@<TRIPOS>MOLECULE
L1C
   62    66     1     0     0
SMALL
bcc


@<TRIPOS>ATOM
      1 F2         -0.3180   -1.1500    2.1750 f         1 L1C     -0.128900
      2 C14         0.8780   -1.0060    1.5620 ca        1 L1C      0.161900
      3 C15         2.0060   -0.6450    2.3130 ca        1 L1C     -0.207000
      4 C16         3.2460   -0.5010    1.6670 ca        1 L1C      0.158900
      5 F1          4.3150   -0.1350    2.4150 f         1 L1C     -0.133900
      6 C17         3.3740   -0.7270    0.2770 ca        1 L1C     -0.170300
      7 C18         2.2230   -1.0660   -0.4440 ca        1 L1C     -0.070000
      8 C13         0.9870   -1.2120    0.1740 ca        1 L1C     -0.179000
      9 C8          4.6890   -0.5730   -0.4390 c3        1 L1C      0.201100
     10 O3          4.5720   -0.9270   -1.8090 oh        1 L1C     -0.569800
     11 C11         5.8230   -1.4170    0.2240 c3        1 L1C      0.046000
     12 N2          6.9480   -0.5380    0.4790 n         1 L1C     -0.440800
     13 C12         7.8040   -0.7440    1.5890 c         1 L1C      0.768100
     14 O2          8.4530    0.2260    2.0530 o         1 L1C     -0.644100
     15 N3          7.9320   -2.0440    2.1030 n         1 L1C     -0.453100
     16 C2          8.9090   -2.4130    3.0490 ca        1 L1C      0.062600
     17 C7          9.3770   -1.5280    4.0420 ca        1 L1C     -0.149500
     18 C6         10.2950   -1.9630    4.9920 ca        1 L1C     -0.101000
     19 C5         10.7570   -3.2810    4.9750 ca        1 L1C     -0.003600
     20 CL1        11.8750   -3.8050    6.1420 cl        1 L1C     -0.090400
     21 C4         10.3030   -4.1710    3.9980 ca        1 L1C     -0.101000
     22 C3          9.3910   -3.7440    3.0400 ca        1 L1C     -0.149500
     23 C10         6.6520    0.8410    0.0870 c3        1 L1C      0.025700
     24 C9          5.1970    0.8840   -0.4190 c3        1 L1C     -0.079400
     25 C1          7.6270    1.3700   -1.0010 c         1 L1C      0.674100
     26 O1          7.1930    1.8920   -2.0360 o         1 L1C     -0.544100
     27 N1          8.9760    1.2970   -0.6760 n         1 L1C     -0.555400
     28 C26        10.0580    1.5600   -1.5340 ca        1 L1C      0.541200
     29 C27        11.3280    1.8470   -0.9460 ca        1 L1C     -0.281300
     30 C28        12.4190    2.1040   -1.7640 ca        1 L1C     -0.045000
     31 C29        12.2570    2.0810   -3.1640 ca        1 L1C     -0.127700
     32 C30        10.9640    1.7580   -3.6610 ca        1 L1C      0.415200
     33 N6          9.8990    1.5080   -2.8940 nb        1 L1C     -0.664000
     34 N4         13.3290    2.3570   -4.0520 n         1 L1C     -0.246200
     35 C24        13.0840    3.1400   -5.1680 cc        1 L1C      0.014600
     36 C23        14.0500    3.4170   -6.1000 cd        1 L1C     -0.249000
     37 C19        15.3630    2.8840   -5.9290 cd        1 L1C     -0.038000
     38 C21        15.6440    2.1230   -4.8420 cc        1 L1C     -0.256200
     39 C20        14.6310    1.8250   -3.8260 c         1 L1C      0.689700
     40 O4         14.8600    1.1520   -2.8040 o         1 L1C     -0.633500
     41 H15         1.9250   -0.4710    3.3960 ha        1 L1C      0.170000
     42 H13         0.0940   -1.4800   -0.4100 ha        1 L1C      0.159000
     43 H18         2.2920   -1.2040   -1.5370 ha        1 L1C      0.159000
     44 H3          4.4060   -1.8780   -1.8500 ho        1 L1C      0.403000
     45 H111        6.1590   -2.2240   -0.4850 h1        1 L1C      0.061200
     46 H112        5.4390   -1.8970    1.1660 h1        1 L1C      0.061200
     47 H91C        4.5770    1.5010    0.2760 hc        1 L1C      0.097700
     48 H92C        5.1360    1.3210   -1.4510 hc        1 L1C      0.097700
     49 H10         6.7670    1.5320    0.9770 h1        1 L1C      0.094700
     50 HA          7.5700   -2.7960    1.5570 hn        1 L1C      0.317500
     51 H7          9.0290   -0.4820    4.0680 ha        1 L1C      0.154000
     52 HB          9.0500   -4.4600    2.2760 ha        1 L1C      0.154000
     53 H6         10.6540   -1.2580    5.7600 ha        1 L1C      0.150500
     54 H4         10.6680   -5.2090    3.9790 ha        1 L1C      0.150500
     55 H1          9.2270    1.0490    0.2600 hn        1 L1C      0.351500
     56 H27        11.4510    1.8620    0.1470 ha        1 L1C      0.153000
     57 H28        13.4080    2.3050   -1.3170 ha        1 L1C      0.169000
     58 H30        10.7680    1.6900   -4.7480 h4        1 L1C      0.028100
     59 H24        12.0560    3.5400   -5.2630 h4        1 L1C      0.160000
     60 H23        13.8190    4.0450   -6.9700 ha        1 L1C      0.153000
     61 H19        16.1280    3.1050   -6.6880 ha        1 L1C      0.141000
     62 H21        16.6340    1.6840   -4.6520 ha        1 L1C      0.164000
@<TRIPOS>BOND
     1    1    2 1   
     2    2    3 ar  
     3    2    8 ar  
     4    3    4 ar  
     5    3   41 1   
     6    4    5 1   
     7    4    6 ar  
     8    6    7 ar  
     9    6    9 1   
    10    7    8 ar  
    11    7   43 1   
    12    8   42 1   
    13    9   10 1   
    14    9   11 1   
    15    9   24 1   
    16   10   44 1   
    17   11   12 1   
    18   11   45 1   
    19   11   46 1   
    20   12   13 1   
    21   12   23 1   
    22   13   14 2   
    23   13   15 1   
    24   15   16 1   
    25   15   50 1   
    26   16   17 ar  
    27   16   22 ar  
    28   17   18 ar  
    29   17   51 1   
    30   18   19 ar  
    31   18   53 1   
    32   19   20 1   
    33   19   21 ar  
    34   21   22 ar  
    35   21   54 1   
    36   22   52 1   
    37   23   24 1   
    38   23   25 1   
    39   23   49 1   
    40   24   47 1   
    41   24   48 1   
    42   25   26 2   
    43   25   27 1   
    44   27   28 1   
    45   27   55 1   
    46   28   29 ar  
    47   28   33 ar  
    48   29   30 ar  
    49   29   56 1   
    50   30   31 ar  
    51   30   57 1   
    52   31   32 ar  
    53   31   34 1   
    54   32   33 ar  
    55   32   58 1   
    56   34   35 1   
    57   34   39 1   
    58   35   36 2   
    59   35   59 1   
    60   36   37 1   
    61   36   60 1   
    62   37   38 2   
    63   37   61 1   
    64   38   39 1   
    65   38   62 1   
    66   39   40 2   
@<TRIPOS>SUBSTRUCTURE
     1 L1C         1 TEMP              0 ****  ****    0 ROOT
