@<TRIPOS>MOLECULE
L1C
   62    58     1     0     0
SMALL
bcc


@<TRIPOS>ATOM
      1 F2         -8.8060   -0.3810   -1.1840 f         1 L1C     -0.094000
      2 C14        -7.4810   -0.2050   -1.2390 c2        1 L1C      0.125000
      3 C15        -6.8610    0.6600   -0.3510 c2        1 L1C     -0.204000
      4 C16        -5.4790    0.7820   -0.3530 c1        1 L1C      0.111000
      5 F1         -4.8820    1.6520    0.4740 f         1 L1C     -0.111000
      6 C17        -4.7190    0.0400   -1.2430 c2        1 L1C     -0.152000
      7 C18        -5.3420   -0.8250   -2.1310 c1        1 L1C     -0.072000
      8 C13        -6.7220   -0.9460   -2.1290 c1        1 L1C     -0.174000
      9 C8         -3.1030    0.0230   -1.1020 c3        1 L1C      0.114000
     10 O3         -2.5090    0.7700   -2.1460 oh        1 L1C     -0.308000
     11 C11        -2.5760   -1.4590   -1.1220 c3        1 L1C     -0.042000
     12 N2         -1.6430   -1.5900    0.0470 n         1 L1C     -0.284000
     13 C12        -1.1200   -2.7920    0.5900 c2        1 L1C      0.381000
     14 O2         -1.4260   -3.8590    0.0960 o         1 L1C     -0.388000
     15 N3         -0.4660   -2.7630    1.8400 n         1 L1C     -0.300000
     16 C2         -0.1710   -3.9720    2.5120 c2        1 L1C      0.068000
     17 C7         -1.1280   -4.5650    3.3230 c2        1 L1C     -0.136000
     18 C6         -0.8730   -5.7920    3.9120 c1        1 L1C     -0.104000
     19 C5          0.3390   -6.4290    3.6920 c1        1 L1C     -0.084000
     20 CL1         0.6900   -7.9360    4.4980 cl        1 L1C     -0.018000
     21 C4          1.2960   -5.8380    2.8820 c1        1 L1C     -0.103000
     22 C3          1.0410   -4.6090    2.2910 c1        1 L1C     -0.164000
     23 C10        -1.4040   -0.3400    0.4730 c3        1 L1C     -0.009000
     24 C9         -2.7640    0.4820    0.0060 c3        1 L1C     -0.209000
     25 C1         -0.1120    0.2550   -0.0610 c2        1 L1C      0.317000
     26 O1          0.1500    0.1690   -1.2430 o         1 L1C     -0.315000
     27 N1          0.7150    1.0400    0.7950 n         1 L1C     -0.332000
     28 C26         1.8490    1.7230    0.2610 c2        1 L1C      0.114000
     29 C27         2.8170    2.2360    1.1150 c2        1 L1C     -0.198000
     30 C28         3.8710    2.9400    0.6070 c1        1 L1C     -0.053000
     31 C29         3.9730    3.1390   -0.7440 c1        1 L1C     -0.032000
     32 C30         3.0030    2.6250   -1.5950 c1        1 L1C     -0.055000
     33 N6          1.9510    1.9220   -1.0850 n1        1 L1C     -0.127000
     34 N4          5.1280    3.7700   -1.2830 n3        1 L1C     -0.189000
     35 C24         6.2150    2.9570   -1.8280 c2        1 L1C      0.008000
     36 C23         7.4910    3.6170   -2.3040 c1        1 L1C     -0.242000
     37 C19         7.6150    5.0800   -2.2690 c1        1 L1C     -0.135500
     38 C21         6.5230    5.8940   -1.7210 c1        1 L1C     -0.135500
     39 C20         5.2490    5.2270   -1.2460 c1        1 L1C      0.330000
     40 O4          4.3470    5.8990   -0.7940 o         1 L1C     -0.358000
     41 H15        -7.3920    1.1440    0.3100 ha        1 L1C      0.168000
     42 H13        -7.1580   -1.5540   -2.7530 ha        1 L1C      0.162000
     43 H18        -4.8080   -1.3470   -2.7580 ha        1 L1C      0.176000
     44 H3         -3.0100    1.4900   -2.3210 ho        1 L1C      0.217000
     45 H111       -2.0960   -1.6330   -1.9560 h1        1 L1C      0.136000
     46 H112       -3.3200   -2.0800   -1.0280 h1        1 L1C      0.136000
     47 H91C       -3.4820    0.3420    0.6600 hc        1 L1C      0.113000
     48 H92C       -2.5660    1.4380   -0.0740 hc        1 L1C      0.113000
     49 H10        -1.2600   -0.2990    1.4420 h1        1 L1C      0.115000
     50 HA         -0.2170   -1.9670    2.2050 hn        1 L1C      0.258000
     51 H7         -1.9820   -4.1170    3.4780 ha        1 L1C      0.169000
     52 HB          1.7140   -4.1920    1.7210 ha        1 L1C      0.144000
     53 H6         -1.5490   -6.2100    4.4840 ha        1 L1C      0.149000
     54 H4          2.1480   -6.2850    2.7270 ha        1 L1C      0.148000
     55 H1          0.5430    1.0750    1.6890 hn        1 L1C      0.238000
     56 H27         2.7430    2.0930    2.0810 ha        1 L1C      0.150000
     57 H28         4.5520    3.3010    1.2060 ha        1 L1C      0.174000
     58 H30         3.0750    2.7670   -2.5610 ha        1 L1C      0.170000
     59 H24         6.1320    1.9860   -1.8520 h4        1 L1C      0.160000
     60 H23         8.2160    3.0740   -2.6680 ha        1 L1C      0.155000
     61 H19         8.4370    5.5080   -2.5750 ha        1 L1C      0.155000
     62 H21         6.6030    6.8650   -1.6970 ha        1 L1C      0.155000
@<TRIPOS>BOND
     1    1    2 1   
     2    2    3 1   
     3    2    8 1   
     4    3    4 1   
     5    3   41 1   
     6    4    6 1   
     7    6    7 1   
     8    6    9 1   
     9    7   43 1   
    10    8   42 1   
    11    9   10 1   
    12    9   11 1   
    13    9   24 1   
    14   10   44 1   
    15   11   12 1   
    16   11   45 1   
    17   11   46 1   
    18   12   13 1   
    19   12   23 1   
    20   13   14 1   
    21   13   15 1   
    22   15   16 1   
    23   15   50 1   
    24   16   17 1   
    25   16   22 1   
    26   17   18 1   
    27   17   51 1   
    28   18   53 1   
    29   19   20 1   
    30   19   21 1   
    31   21   54 1   
    32   22   52 1   
    33   23   24 1   
    34   23   25 1   
    35   23   49 1   
    36   24   47 1   
    37   24   48 1   
    38   25   26 1   
    39   25   27 1   
    40   27   28 1   
    41   27   55 1   
    42   28   29 1   
    43   28   33 1   
    44   29   30 1   
    45   29   56 1   
    46   30   57 1   
    47   31   32 1   
    48   31   34 1   
    49   32   58 1   
    50   34   35 1   
    51   34   39 1   
    52   35   36 1   
    53   35   59 1   
    54   36   60 1   
    55   37   38 1   
    56   37   61 1   
    57   38   62 1   
    58   39   40 1   
@<TRIPOS>SUBSTRUCTURE
     1 L1C         1 TEMP              0 ****  ****    0 ROOT
