@<TRIPOS>MOLECULE
L1C
   62    66     1     0     0
SMALL
bcc


@<TRIPOS>ATOM
      1 F2          6.7090   -6.1030   -0.2130 f         1 L1C     -0.128900
      2 C14         5.5600   -5.4080   -0.3790 ca        1 L1C      0.161900
      3 C15         5.2630   -4.3400    0.4810 ca        1 L1C     -0.207000
      4 C16         4.0680   -3.6230    0.2980 ca        1 L1C      0.158900
      5 F1          3.7990   -2.6070    1.1540 f         1 L1C     -0.133900
      6 C17         3.1720   -3.9520   -0.7440 ca        1 L1C     -0.170300
      7 C18         3.4920   -5.0370   -1.5690 ca        1 L1C     -0.070000
      8 C13         4.6660   -5.7620   -1.4060 ca        1 L1C     -0.179000
      9 C8          1.8840   -3.2040   -0.9550 c3        1 L1C      0.201100
     10 O3          1.1990   -3.6750   -2.1070 oh        1 L1C     -0.569800
     11 C11         2.1110   -1.6640   -1.0760 c3        1 L1C      0.046000
     12 N2          1.2270   -1.0030   -0.1340 n         1 L1C     -0.440800
     13 C12         1.5990    0.2120    0.4920 c         1 L1C      0.768100
     14 O2          1.0770    0.5210    1.5920 o         1 L1C     -0.644100
     15 N3          2.5080    1.0540   -0.1680 n         1 L1C     -0.453100
     16 C2          2.7830    2.3740    0.2410 ca        1 L1C      0.062600
     17 C7          2.7590    2.7710    1.5940 ca        1 L1C     -0.149500
     18 C6          3.1010    4.0710    1.9500 ca        1 L1C     -0.101000
     19 C5          3.4770    4.9940    0.9710 ca        1 L1C     -0.003600
     20 CL1         3.8990    6.5790    1.4140 cl        1 L1C     -0.090400
     21 C4          3.5060    4.6170   -0.3750 ca        1 L1C     -0.101000
     22 C3          3.1590    3.3220   -0.7410 ca        1 L1C     -0.149500
     23 C10         0.4560   -1.9700    0.6480 c3        1 L1C      0.025700
     24 C9          0.9040   -3.3830    0.2240 c3        1 L1C     -0.079400
     25 C1         -1.0760   -1.8010    0.4560 c         1 L1C      0.674100
     26 O1         -1.7860   -2.7710    0.1600 o         1 L1C     -0.544100
     27 N1         -1.5730   -0.5330    0.7330 n         1 L1C     -0.555400
     28 C26        -2.8800   -0.0760    0.4940 ca        1 L1C      0.541200
     29 C27        -3.3310    1.0780    1.2060 ca        1 L1C     -0.281300
     30 C28        -4.6140    1.5590    0.9890 ca        1 L1C     -0.045000
     31 C29        -5.4550    0.9010    0.0680 ca        1 L1C     -0.127700
     32 C30        -4.9130   -0.2220   -0.6160 ca        1 L1C      0.415200
     33 N6         -3.6820   -0.7050   -0.4230 nb        1 L1C     -0.664000
     34 N4         -6.7840    1.3320   -0.1810 n         1 L1C     -0.246200
     35 C24        -7.7800    0.3790   -0.3100 cc        1 L1C      0.014600
     36 C23        -9.0800    0.7050   -0.5970 cd        1 L1C     -0.249000
     37 C19        -9.4350    2.0760   -0.7740 cd        1 L1C     -0.038000
     38 C21        -8.4890    3.0400   -0.6440 cc        1 L1C     -0.256200
     39 C20        -7.0970    2.7140   -0.3240 c         1 L1C      0.689700
     40 O4         -6.2080    3.5740   -0.1720 o         1 L1C     -0.633500
     41 H15         5.9520   -4.0670    1.2930 ha        1 L1C      0.170000
     42 H13         4.9000   -6.6100   -2.0650 ha        1 L1C      0.159000
     43 H18         2.7850   -5.3400   -2.3610 ha        1 L1C      0.159000
     44 H3          1.7270   -3.4330   -2.8780 ho        1 L1C      0.403000
     45 H111        3.1920   -1.4230   -0.8840 h1        1 L1C      0.061200
     46 H112        1.8400   -1.3210   -2.1140 h1        1 L1C      0.061200
     47 H91C        0.0310   -4.0090   -0.1010 hc        1 L1C      0.097700
     48 H92C        1.4160   -3.8860    1.0790 hc        1 L1C      0.097700
     49 H10         0.6540   -1.8240    1.7540 h1        1 L1C      0.094700
     50 HA          2.7080    0.8600   -1.1250 hn        1 L1C      0.317500
     51 H7          2.4590    2.0580    2.3810 ha        1 L1C      0.154000
     52 HB          3.1840    3.0480   -1.8070 ha        1 L1C      0.154000
     53 H6          3.0750    4.3670    3.0110 ha        1 L1C      0.150500
     54 H4          3.7980    5.3430   -1.1490 ha        1 L1C      0.150500
     55 H1         -0.9610    0.1340    1.1600 hn        1 L1C      0.351500
     56 H27        -2.6710    1.5900    1.9220 ha        1 L1C      0.153000
     57 H28        -4.9610    2.4620    1.5180 ha        1 L1C      0.169000
     58 H30        -5.5030   -0.7700   -1.3760 h4        1 L1C      0.028100
     59 H24        -7.4670   -0.6720   -0.1590 h4        1 L1C      0.160000
     60 H23        -9.8430   -0.0780   -0.6870 ha        1 L1C      0.153000
     61 H19       -10.4800    2.3270   -1.0130 ha        1 L1C      0.141000
     62 H21        -8.6980    4.1120   -0.7670 ha        1 L1C      0.164000
@<TRIPOS>BOND
     1    1    2 1   
     2    2    3 ar  
     3    2    8 ar  
     4    3    4 ar  
     5    3   41 1   
     6    4    5 1   
     7    4    6 ar  
     8    6    7 ar  
     9    6    9 1   
    10    7    8 ar  
    11    7   43 1   
    12    8   42 1   
    13    9   10 1   
    14    9   11 1   
    15    9   24 1   
    16   10   44 1   
    17   11   12 1   
    18   11   45 1   
    19   11   46 1   
    20   12   13 1   
    21   12   23 1   
    22   13   14 2   
    23   13   15 1   
    24   15   16 1   
    25   15   50 1   
    26   16   17 ar  
    27   16   22 ar  
    28   17   18 ar  
    29   17   51 1   
    30   18   19 ar  
    31   18   53 1   
    32   19   20 1   
    33   19   21 ar  
    34   21   22 ar  
    35   21   54 1   
    36   22   52 1   
    37   23   24 1   
    38   23   25 1   
    39   23   49 1   
    40   24   47 1   
    41   24   48 1   
    42   25   26 2   
    43   25   27 1   
    44   27   28 1   
    45   27   55 1   
    46   28   29 ar  
    47   28   33 ar  
    48   29   30 ar  
    49   29   56 1   
    50   30   31 ar  
    51   30   57 1   
    52   31   32 ar  
    53   31   34 1   
    54   32   33 ar  
    55   32   58 1   
    56   34   35 1   
    57   34   39 1   
    58   35   36 2   
    59   35   59 1   
    60   36   37 1   
    61   36   60 1   
    62   37   38 2   
    63   37   61 1   
    64   38   39 1   
    65   38   62 1   
    66   39   40 2   
@<TRIPOS>SUBSTRUCTURE
     1 L1C         1 TEMP              0 ****  ****    0 ROOT
