@<TRIPOS>MOLECULE
L1D
   65    69     1     0     0
SMALL
bcc


@<TRIPOS>ATOM
      1 C14        -0.9060    0.2330    2.3900 ca        1 L1D     -0.086000
      2 C15         0.2790   -0.2550    1.8330 ca        1 L1D     -0.110000
      3 C16         1.4680   -0.1900    2.5550 ca        1 L1D     -0.120000
      4 C17         1.4880    0.3700    3.8410 ca        1 L1D     -0.166300
      5 C18         0.2940    0.8380    4.4010 ca        1 L1D     -0.120000
      6 C13        -0.8950    0.7740    3.6750 ca        1 L1D     -0.110000
      7 C8          2.7720    0.4220    4.6090 c3        1 L1D      0.231100
      8 O3          2.6940    1.1240    5.8370 oh        1 L1D     -0.592800
      9 C11         3.9340    1.0580    3.7690 c3        1 L1D      0.036000
     10 N2          5.0840    0.1780    3.9130 n         1 L1D     -0.431800
     11 C12         6.3370    0.3790    3.3970 c         1 L1D      0.652100
     12 O2          7.3080   -0.3730    3.5620 o         1 L1D     -0.507100
     13 N3          6.5960    1.5850    2.5060 n4        1 L1D     -0.503200
     14 C2          6.8430    2.8030    3.2830 ca        1 L1D     -0.091400
     15 C7          8.0150    2.9050    4.0560 ca        1 L1D     -0.086500
     16 C6          8.2730    4.0820    4.7500 ca        1 L1D     -0.105000
     17 C5          7.3740    5.1570    4.6790 ca        1 L1D      0.071400
     18 CL1         7.6950    6.5790    5.5150 cl        1 L1D      0.021600
     19 C4          6.2070    5.0470    3.9050 ca        1 L1D     -0.105000
     20 C3          5.9350    3.8760    3.2080 ca        1 L1D     -0.086500
     21 C10         4.8090   -0.9770    4.7620 c3        1 L1D      0.067700
     22 C9          3.2810   -0.9940    4.9790 c3        1 L1D     -0.092400
     23 C1          5.5410   -0.9020    6.1120 c         1 L1D      0.525100
     24 O1          6.1610    0.0430    6.5700 o         1 L1D     -0.394100
     25 N1          5.5180   -2.1640    6.9440 n4        1 L1D     -0.515200
     26 C26         4.5730   -2.0900    8.0570 ca        1 L1D     -0.167400
     27 C27         3.4350   -2.9400    8.0970 ca        1 L1D      0.179900
     28 C28         2.5940   -2.9420    9.2120 ca        1 L1D     -0.192000
     29 C29         2.8520   -2.0870   10.3130 ca        1 L1D      0.169600
     30 C30         3.9710   -1.2120   10.2350 ca        1 L1D     -0.125000
     31 C31         4.8140   -1.2220    9.1400 ca        1 L1D     -0.047000
     32 N4          2.0270   -2.1140   11.4480 n         1 L1D     -0.279200
     33 C24         0.6690   -2.4290   11.3060 cc        1 L1D     -0.038400
     34 C23        -0.1670   -2.5610   12.3730 cd        1 L1D     -0.171000
     35 C19         0.3360   -2.3840   13.7060 cd        1 L1D     -0.034000
     36 C21         1.6380   -2.0670   13.8920 cc        1 L1D     -0.223200
     37 C20         2.5650   -1.9090   12.7680 c         1 L1D      0.701700
     38 O4          3.7660   -1.6250   12.8940 o         1 L1D     -0.602500
     39 F1          3.1800   -3.7670    7.0540 f         1 L1D     -0.128900
     40 H14        -1.8460    0.1840    1.8160 ha        1 L1D      0.166000
     41 H15         0.2720   -0.6950    0.8230 ha        1 L1D      0.160000
     42 H13        -1.8300    1.1490    4.1230 ha        1 L1D      0.160000
     43 H16         2.3890   -0.5960    2.1120 ha        1 L1D      0.130000
     44 H18         0.2710    1.2430    5.4250 ha        1 L1D      0.130000
     45 H3          2.1850    1.9350    5.6930 ho        1 L1D      0.438000
     46 H111        4.1750    2.0830    4.1670 h1        1 L1D      0.085200
     47 H112        3.6460    1.1270    2.6840 h1        1 L1D      0.085200
     48 H91C        2.8130   -1.7550    4.3020 hc        1 L1D      0.110200
     49 H92C        3.0120   -1.2360    6.0390 hc        1 L1D      0.110200
     50 H10         5.1700   -1.9080    4.2270 h1        1 L1D      0.118700
     51 HA          5.8140    1.7400    1.8580 hn        1 L1D      0.479300
     52 H7          8.7350    2.0690    4.1170 ha        1 L1D      0.163500
     53 HB          5.0210    3.8190    2.5930 ha        1 L1D      0.163500
     54 H6          9.1960    4.1670    5.3510 ha        1 L1D      0.191000
     55 H4          5.5040    5.8970    3.8390 ha        1 L1D      0.191000
     56 H1          5.2770   -2.9730    6.3560 hn        1 L1D      0.473800
     57 H31         5.6800   -0.5350    9.1230 ha        1 L1D      0.172000
     58 H28         1.7500   -3.6540    9.2210 ha        1 L1D      0.191000
     59 H30         4.1970   -0.5210   11.0720 ha        1 L1D      0.212000
     60 H24         0.2980   -2.5350   10.2700 h4        1 L1D      0.157000
     61 H23        -1.2320   -2.7940   12.2220 ha        1 L1D      0.175000
     62 H19        -0.3570   -2.5070   14.5550 ha        1 L1D      0.172000
     63 H21         2.0910   -1.9120   14.8850 ha        1 L1D      0.190000
     64 H32         7.4500    1.3650    1.9630 hn        1 L1D      0.479300
     65 H12         6.4590   -2.3090    7.3460 hn        1 L1D      0.473800
@<TRIPOS>BOND
     1    1    2 ar  
     2    1    6 ar  
     3    1   40 1   
     4    2    3 ar  
     5    2   41 1   
     6    3    4 ar  
     7    3   43 1   
     8    4    5 ar  
     9    4    7 1   
    10    5    6 ar  
    11    5   44 1   
    12    6   42 1   
    13    7    8 1   
    14    7    9 1   
    15    7   22 1   
    16    8   45 1   
    17    9   10 1   
    18    9   46 1   
    19    9   47 1   
    20   10   11 1   
    21   10   21 1   
    22   11   12 2   
    23   11   13 1   
    24   13   14 1   
    25   13   51 1   
    26   13   64 1   
    27   14   15 ar  
    28   14   20 ar  
    29   15   16 ar  
    30   15   52 1   
    31   16   17 ar  
    32   16   54 1   
    33   17   18 1   
    34   17   19 ar  
    35   19   20 ar  
    36   19   55 1   
    37   20   53 1   
    38   21   22 1   
    39   21   23 1   
    40   21   50 1   
    41   22   48 1   
    42   22   49 1   
    43   23   24 2   
    44   23   25 1   
    45   25   26 1   
    46   25   56 1   
    47   25   65 1   
    48   26   27 ar  
    49   26   31 ar  
    50   27   28 ar  
    51   27   39 1   
    52   28   29 ar  
    53   28   58 1   
    54   29   30 ar  
    55   29   32 1   
    56   30   31 ar  
    57   30   59 1   
    58   31   57 1   
    59   32   33 1   
    60   32   37 1   
    61   33   34 2   
    62   33   60 1   
    63   34   35 1   
    64   34   61 1   
    65   35   36 2   
    66   35   62 1   
    67   36   37 1   
    68   36   63 1   
    69   37   38 2   
@<TRIPOS>SUBSTRUCTURE
     1 L1D         1 TEMP              0 ****  ****    0 ROOT
