@<TRIPOS>MOLECULE
L1D
   63    58     1     0     0
SMALL
bcc


@<TRIPOS>ATOM
      1 C14        -5.8550    1.4790   -4.6750 c1        1 L1D     -0.126500
      2 C15        -5.2660    0.2690   -4.2960 c1        1 L1D     -0.126500
      3 C16        -4.4870    0.2040   -3.1410 c1        1 L1D     -0.126500
      4 C17        -4.2970    1.3430   -2.3670 c1        1 L1D     -0.117000
      5 C18        -4.8870    2.5510   -2.7480 c1        1 L1D     -0.116000
      6 C13        -5.6660    2.6150   -3.9030 c1        1 L1D     -0.126500
      7 C8         -3.5270    1.2360   -0.9510 c3        1 L1D      0.110000
      8 O3         -4.4270    1.4620    0.1120 oh        1 L1D     -0.309000
      9 C11        -2.5460    2.0970   -0.9050 c3        1 L1D     -0.026000
     10 N2         -1.2290    1.3360   -1.4530 n         1 L1D     -0.297000
     11 C12        -0.1960    1.9010   -2.2930 c2        1 L1D      0.385000
     12 O2         -0.2730    3.0650   -2.6570 o         1 L1D     -0.370000
     13 N3          0.9450    1.1020   -2.6710 n         1 L1D     -0.302000
     14 C2          1.9730    1.6680   -3.4600 c2        1 L1D      0.066000
     15 C7          2.3730    1.0410   -4.6340 c2        1 L1D     -0.166000
     16 C6          3.4400    1.5500   -5.3640 c1        1 L1D     -0.103000
     17 C5          4.1060    2.6840   -4.9200 c1        1 L1D     -0.084000
     18 CL1         5.4910    3.2700   -5.7870 cl        1 L1D     -0.019000
     19 C4          3.7060    3.3090   -3.7480 c1        1 L1D     -0.104000
     20 C3          2.6380    2.8010   -3.0180 c1        1 L1D     -0.131000
     21 C10        -1.2710    0.0780   -0.9800 c3        1 L1D      0.006000
     22 C9         -2.8620   -0.1580   -0.8040 c3        1 L1D     -0.205000
     23 C1         -0.4490   -0.1400    0.3130 c2        1 L1D      0.307000
     24 O1         -0.1610    0.8050    1.0150 o         1 L1D     -0.348000
     25 N1         -0.0780   -1.4720    0.7140 n         1 L1D     -0.320000
     26 C26         0.6310   -1.6790    1.9410 c2        1 L1D      0.046000
     27 C27        -0.0650   -2.0010    3.0940 c2        1 L1D      0.043000
     28 C28         0.6260   -2.3160    4.2580 c1        1 L1D     -0.116000
     29 C29         2.0160   -2.3080    4.2660 c1        1 L1D      0.039000
     30 C30         2.7130   -1.9860    3.1140 c1        1 L1D     -0.133000
     31 C31         2.0230   -1.6710    1.9490 c1        1 L1D     -0.129000
     32 N4          2.7330   -2.6840    5.4610 n3        1 L1D     -0.197000
     33 C24         3.1430   -1.6550    6.4230 c2        1 L1D      0.010000
     34 C23         4.0450   -2.0160    7.5840 c1        1 L1D     -0.244000
     35 C19         4.4820   -3.4090    7.7690 c1        1 L1D     -0.126500
     36 C21         4.0710   -4.4390    6.8070 c1        1 L1D     -0.126500
     37 C20         3.1660   -4.0720    5.6450 c1        1 L1D      0.330000
     38 O4          2.8260   -4.9220    4.8500 o         1 L1D     -0.353000
     39 F1         -1.4010   -1.9900    3.0930 f         1 L1D     -0.109000
     40 H14        -6.4030    1.5250   -5.4880 ha        1 L1D      0.141333
     41 H15        -5.4000   -0.5340   -4.8420 ha        1 L1D      0.141333
     42 H13        -6.0810    3.4660   -4.1710 ha        1 L1D      0.141333
     43 H16        -4.0750   -0.6400   -2.8760 ha        1 L1D      0.141333
     44 H18        -4.7530    3.3600   -2.1990 ha        1 L1D      0.145000
     45 H3         -5.0000    0.7780    0.1680 ho        1 L1D      0.208000
     46 H111       -2.7500    2.8700   -1.4770 h1        1 L1D      0.131500
     47 H112       -2.4030    2.3920    0.0180 h1        1 L1D      0.131500
     48 H91C       -3.1920   -0.7650   -1.5000 hc        1 L1D      0.113000
     49 H92C       -3.0500   -0.5280    0.0830 hc        1 L1D      0.113000
     50 H10        -0.8610   -0.5700   -1.5960 h1        1 L1D      0.111000
     51 HA          0.9590    0.2090   -2.4760 hn        1 L1D      0.243000
     52 H7          1.9050    0.2440   -4.9460 ha        1 L1D      0.140000
     53 HB          2.3580    3.2390   -2.1970 ha        1 L1D      0.169000
     54 H6          3.7200    1.1130   -6.1820 ha        1 L1D      0.147000
     55 H4          4.1720    4.1040   -3.4380 ha        1 L1D      0.149000
     56 H1         -0.2800   -2.1700    0.1900 hn        1 L1D      0.242000
     57 H31         2.5150   -1.4440    1.1360 ha        1 L1D      0.182000
     58 H28         0.1330   -2.5430    5.0720 ha        1 L1D      0.182000
     59 H30         3.6860   -1.9800    3.1190 ha        1 L1D      0.146000
     60 H24         2.8540   -0.7340    6.3000 h4        1 L1D      0.159000
     61 H23         4.3170   -1.3300    8.2230 ha        1 L1D      0.154000
     62 H19         5.0630   -3.6440    8.5180 ha        1 L1D      0.141333
     63 H21         4.3590   -5.3650    6.9290 ha        1 L1D      0.141333
@<TRIPOS>BOND
     1    1    6 1   
     2    1   40 1   
     3    2    3 1   
     4    2   41 1   
     5    3   43 1   
     6    4    5 1   
     7    4    7 1   
     8    5   44 1   
     9    6   42 1   
    10    7    8 1   
    11    7    9 1   
    12    7   22 1   
    13    8   45 1   
    14    9   10 1   
    15    9   46 1   
    16    9   47 1   
    17   10   11 1   
    18   10   21 1   
    19   11   12 1   
    20   11   13 1   
    21   13   14 1   
    22   13   51 1   
    23   14   15 1   
    24   14   20 1   
    25   15   16 1   
    26   15   52 1   
    27   16   54 1   
    28   17   18 1   
    29   17   19 1   
    30   19   55 1   
    31   20   53 1   
    32   21   22 1   
    33   21   23 1   
    34   21   50 1   
    35   22   48 1   
    36   22   49 1   
    37   23   24 1   
    38   23   25 1   
    39   25   26 1   
    40   25   56 1   
    41   26   27 1   
    42   26   31 1   
    43   27   28 1   
    44   27   39 1   
    45   28   58 1   
    46   29   30 1   
    47   29   32 1   
    48   30   59 1   
    49   31   57 1   
    50   32   33 1   
    51   32   37 1   
    52   33   34 1   
    53   33   60 1   
    54   34   61 1   
    55   35   36 1   
    56   35   62 1   
    57   36   63 1   
    58   37   38 1   
@<TRIPOS>SUBSTRUCTURE
     1 L1D         1 TEMP              0 ****  ****    0 ROOT
