@<TRIPOS>MOLECULE
L1D
   63    67     1     0     0
SMALL
bcc


@<TRIPOS>ATOM
      1 C14         0.6050   -0.3920   -0.6250 ca        1 L1D     -0.120000
      2 C15         1.9400   -0.4750   -0.2280 ca        1 L1D     -0.129000
      3 C16         2.2990   -0.1890    1.0870 ca        1 L1D     -0.117500
      4 C17         1.3240    0.1880    2.0190 ca        1 L1D     -0.126300
      5 C18        -0.0160    0.2560    1.6200 ca        1 L1D     -0.117500
      6 C13        -0.3720   -0.0300    0.3020 ca        1 L1D     -0.129000
      7 C8          1.7130    0.4840    3.4400 c3        1 L1D      0.200100
      8 O3          0.6480    1.0700    4.1750 oh        1 L1D     -0.581800
      9 C11         2.9700    1.4120    3.5210 c3        1 L1D      0.048000
     10 N2          4.0440    0.6050    4.0600 n         1 L1D     -0.451800
     11 C12         5.3230    1.1050    4.3960 c         1 L1D      0.788100
     12 O2          6.1500    0.3250    4.9200 o         1 L1D     -0.613100
     13 N3          5.6440    2.4200    4.0190 n         1 L1D     -0.463100
     14 C2          6.8820    3.0360    4.2740 ca        1 L1D      0.076600
     15 C7          8.0830    2.3110    4.4320 ca        1 L1D     -0.157000
     16 C6          9.2870    2.9810    4.6250 ca        1 L1D     -0.098500
     17 C5          9.3200    4.3760    4.6590 ca        1 L1D     -0.009600
     18 CL1        10.7970    5.1870    4.8880 cl        1 L1D     -0.096400
     19 C4          8.1410    5.1100    4.5050 ca        1 L1D     -0.098500
     20 C3          6.9320    4.4510    4.3180 ca        1 L1D     -0.157000
     21 C10         3.5250   -0.5560    4.7650 c3        1 L1D      0.044700
     22 C9          2.1050   -0.8010    4.2080 c3        1 L1D     -0.078400
     23 C1          3.4350   -0.3740    6.3040 c         1 L1D      0.655100
     24 O1          3.4450    0.7480    6.8340 o         1 L1D     -0.577100
     25 N1          3.3180   -1.5570    7.0210 n         1 L1D     -0.463100
     26 C26         3.2000   -1.6940    8.4100 ca        1 L1D      0.048600
     27 C27         2.8480   -2.9680    8.9550 ca        1 L1D      0.072900
     28 C28         2.7190   -3.1540   10.3360 ca        1 L1D     -0.157000
     29 C29         2.9180   -2.0760   11.2180 ca        1 L1D      0.026600
     30 C30         3.2800   -0.8230   10.6880 ca        1 L1D     -0.091000
     31 C31         3.4200   -0.6400    9.3190 ca        1 L1D     -0.126000
     32 N4          2.7510   -2.2630   12.6200 n         1 L1D     -0.257200
     33 C24         1.6750   -3.0110   13.0680 cc        1 L1D      0.013600
     34 C23         1.4620   -3.2770   14.3940 cd        1 L1D     -0.248000
     35 C19         2.3800   -2.7740   15.3660 cd        1 L1D     -0.039000
     36 C21         3.4410   -2.0300   14.9680 cc        1 L1D     -0.253200
     37 C20         3.6800   -1.7220   13.5550 c         1 L1D      0.690700
     38 O4          4.6330   -1.0250   13.1570 o         1 L1D     -0.625500
     39 F1          2.6420   -4.0320    8.1340 f         1 L1D     -0.147900
     40 H14         0.3230   -0.6170   -1.6640 ha        1 L1D      0.136000
     41 H15         2.7130   -0.7670   -0.9540 ha        1 L1D      0.136500
     42 H13        -1.4270    0.0280   -0.0030 ha        1 L1D      0.136500
     43 H16         3.3530   -0.2650    1.3950 ha        1 L1D      0.144000
     44 H18        -0.7950    0.5230    2.3510 ha        1 L1D      0.144000
     45 H3          0.4040    1.8880    3.7230 ho        1 L1D      0.409000
     46 H111        3.2640    1.7880    2.5040 h1        1 L1D      0.060700
     47 H112        2.7280    2.2900    4.1850 h1        1 L1D      0.060700
     48 H91C        2.1140   -1.6770    3.5150 hc        1 L1D      0.082700
     49 H92C        1.3680   -0.9920    5.0270 hc        1 L1D      0.082700
     50 H10         4.2180   -1.4180    4.5410 h1        1 L1D      0.098700
     51 HA          4.8940    3.0450    3.8220 hn        1 L1D      0.316500
     52 H7          8.0790    1.2080    4.4170 ha        1 L1D      0.154500
     53 HB          6.0150    5.0480    4.2050 ha        1 L1D      0.154500
     54 H6         10.2140    2.3990    4.7510 ha        1 L1D      0.149000
     55 H4          8.1620    6.2100    4.5360 ha        1 L1D      0.149000
     56 H1          3.3170   -2.4110    6.5060 hn        1 L1D      0.327500
     57 H31         3.7120    0.3580    8.9470 ha        1 L1D      0.186000
     58 H28         2.4680   -4.1600   10.7070 ha        1 L1D      0.153000
     59 H30         3.4850    0.0260   11.3640 ha        1 L1D      0.171000
     60 H24         0.9820   -3.3780   12.2860 h4        1 L1D      0.158000
     61 H23         0.5940   -3.8680   14.7110 ha        1 L1D      0.152000
     62 H19         2.2040   -3.0010   16.4290 ha        1 L1D      0.141000
     63 H21         4.1830   -1.6130   15.6640 ha        1 L1D      0.165000
@<TRIPOS>BOND
     1    1    2 ar  
     2    1    6 ar  
     3    1   40 1   
     4    2    3 ar  
     5    2   41 1   
     6    3    4 ar  
     7    3   43 1   
     8    4    5 ar  
     9    4    7 1   
    10    5    6 ar  
    11    5   44 1   
    12    6   42 1   
    13    7    8 1   
    14    7    9 1   
    15    7   22 1   
    16    8   45 1   
    17    9   10 1   
    18    9   46 1   
    19    9   47 1   
    20   10   11 1   
    21   10   21 1   
    22   11   12 2   
    23   11   13 1   
    24   13   14 1   
    25   13   51 1   
    26   14   15 ar  
    27   14   20 ar  
    28   15   16 ar  
    29   15   52 1   
    30   16   17 ar  
    31   16   54 1   
    32   17   18 1   
    33   17   19 ar  
    34   19   20 ar  
    35   19   55 1   
    36   20   53 1   
    37   21   22 1   
    38   21   23 1   
    39   21   50 1   
    40   22   48 1   
    41   22   49 1   
    42   23   24 2   
    43   23   25 1   
    44   25   26 1   
    45   25   56 1   
    46   26   27 ar  
    47   26   31 ar  
    48   27   28 ar  
    49   27   39 1   
    50   28   29 ar  
    51   28   58 1   
    52   29   30 ar  
    53   29   32 1   
    54   30   31 ar  
    55   30   59 1   
    56   31   57 1   
    57   32   33 1   
    58   32   37 1   
    59   33   34 2   
    60   33   60 1   
    61   34   35 1   
    62   34   61 1   
    63   35   36 2   
    64   35   62 1   
    65   36   37 1   
    66   36   63 1   
    67   37   38 2   
@<TRIPOS>SUBSTRUCTURE
     1 L1D         1 TEMP              0 ****  ****    0 ROOT
