@<TRIPOS>MOLECULE
L1D
   63    67     1     0     0
SMALL
bcc


@<TRIPOS>ATOM
      1 C14         4.2490    6.7510   -0.1660 ca        1 L1D     -0.120000
      2 C15         4.3670    5.5580   -0.8790 ca        1 L1D     -0.129000
      3 C16         3.5760    4.4610   -0.5450 ca        1 L1D     -0.117500
      4 C17         2.6600    4.5460    0.5110 ca        1 L1D     -0.126300
      5 C18         2.5370    5.7490    1.2150 ca        1 L1D     -0.117500
      6 C13         3.3310    6.8450    0.8790 ca        1 L1D     -0.129000
      7 C8          1.8000    3.3650    0.8610 c3        1 L1D      0.200100
      8 O3          1.1110    3.5500    2.0880 oh        1 L1D     -0.581800
      9 C11         2.6270    2.0380    0.9260 c3        1 L1D      0.048000
     10 N2          2.1920    1.2250   -0.1900 n         1 L1D     -0.452800
     11 C12         2.6170   -0.1030   -0.4200 c         1 L1D      0.788100
     12 O2          2.1190   -0.7310   -1.3810 o         1 L1D     -0.613100
     13 N3          3.6630   -0.6140    0.3680 n         1 L1D     -0.463100
     14 C2          4.1940   -1.9090    0.2350 ca        1 L1D      0.076600
     15 C7          4.1490   -2.6370   -0.9740 ca        1 L1D     -0.157000
     16 C6          4.7440   -3.8910   -1.0600 ca        1 L1D     -0.098500
     17 C5          5.3970   -4.4400    0.0470 ca        1 L1D     -0.009600
     18 CL1         6.1260   -5.9710   -0.0690 cl        1 L1D     -0.096400
     19 C4          5.4490   -3.7340    1.2510 ca        1 L1D     -0.098500
     20 C3          4.8530   -2.4830    1.3490 ca        1 L1D     -0.157000
     21 C10         0.8860    1.6490   -0.6700 c3        1 L1D      0.044700
     22 C9          0.7090    3.1120   -0.2080 c3        1 L1D     -0.078400
     23 C1         -0.2950    0.8040   -0.1210 c         1 L1D      0.655100
     24 O1         -0.1820    0.0990    0.8950 o         1 L1D     -0.577100
     25 N1         -1.4760    0.9260   -0.8380 n         1 L1D     -0.463100
     26 C26        -2.6990    0.3000   -0.5640 ca        1 L1D      0.048600
     27 C27        -3.8700    0.7230   -1.2680 ca        1 L1D      0.072900
     28 C28        -5.1140    0.1280   -1.0290 ca        1 L1D     -0.157000
     29 C29        -5.2370   -0.8930   -0.0700 ca        1 L1D      0.026600
     30 C30        -4.0860   -1.3250    0.6150 ca        1 L1D     -0.091000
     31 C31        -2.8490   -0.7440    0.3690 ca        1 L1D     -0.126000
     32 N4         -6.5120   -1.4720    0.1930 n         1 L1D     -0.257200
     33 C24        -7.6140   -0.6370    0.2870 cc        1 L1D      0.013600
     34 C23        -8.8820   -1.1110    0.4970 cd        1 L1D     -0.248000
     35 C19        -9.0930   -2.5180    0.6200 cd        1 L1D     -0.039000
     36 C21        -8.0390   -3.3660    0.5420 cc        1 L1D     -0.253200
     37 C20        -6.6710   -2.8810    0.3320 c         1 L1D      0.690700
     38 O4         -5.6790   -3.6300    0.2760 o         1 L1D     -0.625500
     39 F1         -3.7910    1.7120   -2.1980 f         1 L1D     -0.147900
     40 H14         4.8760    7.6160   -0.4290 ha        1 L1D      0.136000
     41 H15         5.0850    5.4820   -1.7090 ha        1 L1D      0.136500
     42 H13         3.2280    7.7860    1.4400 ha        1 L1D      0.136500
     43 H16         3.6680    3.5260   -1.1190 ha        1 L1D      0.144000
     44 H18         1.8000    5.8370    2.0290 ha        1 L1D      0.144000
     45 H3          1.7770    3.6860    2.7730 ho        1 L1D      0.409000
     46 H111        3.7280    2.2400    0.8290 h1        1 L1D      0.060700
     47 H112        2.4280    1.5380    1.9160 h1        1 L1D      0.060700
     48 H91C       -0.3020    3.2850    0.2360 hc        1 L1D      0.082700
     49 H92C        0.8500    3.8040   -1.0740 hc        1 L1D      0.082700
     50 H10         0.9020    1.5630   -1.7950 h1        1 L1D      0.098700
     51 HA          3.8510   -0.1680    1.2390 hn        1 L1D      0.316500
     52 H7          3.6320   -2.2260   -1.8570 ha        1 L1D      0.154500
     53 HB          4.9020   -1.9470    2.3090 ha        1 L1D      0.154500
     54 H6          4.6960   -4.4480   -2.0090 ha        1 L1D      0.149000
     55 H4          5.9580   -4.1650    2.1270 ha        1 L1D      0.149000
     56 H1         -1.4700    1.5180   -1.6410 hn        1 L1D      0.327500
     57 H31        -1.9700   -1.1180    0.9250 ha        1 L1D      0.186000
     58 H28        -5.9800    0.4760   -1.6140 ha        1 L1D      0.153000
     59 H30        -4.1510   -2.1560    1.3390 ha        1 L1D      0.171000
     60 H24        -7.4090    0.4460    0.1940 h4        1 L1D      0.158000
     61 H23        -9.7290   -0.4180    0.5730 ha        1 L1D      0.152000
     62 H19       -10.1180   -2.8880    0.7780 ha        1 L1D      0.141000
     63 H21        -8.1340   -4.4580    0.6290 ha        1 L1D      0.165000
@<TRIPOS>BOND
     1    1    2 ar  
     2    1    6 ar  
     3    1   40 1   
     4    2    3 ar  
     5    2   41 1   
     6    3    4 ar  
     7    3   43 1   
     8    4    5 ar  
     9    4    7 1   
    10    5    6 ar  
    11    5   44 1   
    12    6   42 1   
    13    7    8 1   
    14    7    9 1   
    15    7   22 1   
    16    8   45 1   
    17    9   10 1   
    18    9   46 1   
    19    9   47 1   
    20   10   11 1   
    21   10   21 1   
    22   11   12 2   
    23   11   13 1   
    24   13   14 1   
    25   13   51 1   
    26   14   15 ar  
    27   14   20 ar  
    28   15   16 ar  
    29   15   52 1   
    30   16   17 ar  
    31   16   54 1   
    32   17   18 1   
    33   17   19 ar  
    34   19   20 ar  
    35   19   55 1   
    36   20   53 1   
    37   21   22 1   
    38   21   23 1   
    39   21   50 1   
    40   22   48 1   
    41   22   49 1   
    42   23   24 2   
    43   23   25 1   
    44   25   26 1   
    45   25   56 1   
    46   26   27 ar  
    47   26   31 ar  
    48   27   28 ar  
    49   27   39 1   
    50   28   29 ar  
    51   28   58 1   
    52   29   30 ar  
    53   29   32 1   
    54   30   31 ar  
    55   30   59 1   
    56   31   57 1   
    57   32   33 1   
    58   32   37 1   
    59   33   34 2   
    60   33   60 1   
    61   34   35 1   
    62   34   61 1   
    63   35   36 2   
    64   35   62 1   
    65   36   37 1   
    66   36   63 1   
    67   37   38 2   
@<TRIPOS>SUBSTRUCTURE
     1 L1D         1 TEMP              0 ****  ****    0 ROOT
