@<TRIPOS>MOLECULE
L1D
   63    67     1     0     0
SMALL
bcc


@<TRIPOS>ATOM
      1 C14         0.6040   -0.3880   -0.6250 ca        1 L1D     -0.120000
      2 C15         1.9390   -0.4730   -0.2280 ca        1 L1D     -0.129000
      3 C16         2.2980   -0.1860    1.0880 ca        1 L1D     -0.117500
      4 C17         1.3230    0.1930    2.0190 ca        1 L1D     -0.126300
      5 C18        -0.0160    0.2640    1.6190 ca        1 L1D     -0.117500
      6 C13        -0.3720   -0.0220    0.3010 ca        1 L1D     -0.129000
      7 C8          1.7120    0.4880    3.4400 c3        1 L1D      0.200100
      8 O3          0.6480    1.0760    4.1740 oh        1 L1D     -0.581800
      9 C11         2.9710    1.4140    3.5210 c3        1 L1D      0.048000
     10 N2          4.0440    0.6060    4.0610 n         1 L1D     -0.452800
     11 C12         5.3240    1.1040    4.3970 c         1 L1D      0.788100
     12 O2          6.1490    0.3230    4.9210 o         1 L1D     -0.613100
     13 N3          5.6470    2.4190    4.0200 ns        1 L1D     -0.463100
     14 C2          6.8860    3.0330    4.2750 ca        1 L1D      0.076600
     15 C7          8.0850    2.3060    4.4340 ca        1 L1D     -0.157000
     16 C6          9.2900    2.9740    4.6260 ca        1 L1D     -0.098500
     17 C5          9.3260    4.3700    4.6600 ca        1 L1D     -0.009600
     18 Cl1        10.8030    5.1780    4.8900 cl        1 L1D     -0.096400
     19 C4          8.1470    5.1050    4.5060 ca        1 L1D     -0.098500
     20 C3          6.9380    4.4480    4.3190 ca        1 L1D     -0.157000
     21 C10         3.5230   -0.5540    4.7650 c3        1 L1D      0.044700
     22 C9          2.1030   -0.7970    4.2080 c3        1 L1D     -0.078400
     23 C1          3.4330   -0.3730    6.3040 c         1 L1D      0.655100
     24 O1          3.4450    0.7490    6.8350 o         1 L1D     -0.577100
     25 N1          3.3150   -1.5560    7.0200 ns        1 L1D     -0.463100
     26 C26         3.1970   -1.6940    8.4090 ca        1 L1D      0.048600
     27 C27         2.8470   -2.9690    8.9540 ca        1 L1D      0.072900
     28 C28         2.7180   -3.1550   10.3350 ca        1 L1D     -0.157000
     29 C29         2.9160   -2.0770   11.2170 ca        1 L1D      0.026600
     30 C30         3.2770   -0.8240   10.6880 ca        1 L1D     -0.091000
     31 C31         3.4170   -0.6400    9.3190 ca        1 L1D     -0.126000
     32 N4          2.7500   -2.2650   12.6200 n         1 L1D     -0.257200
     33 C24         1.6740   -3.0150   13.0670 cc        1 L1D      0.013600
     34 C23         1.4610   -3.2810   14.3930 cd        1 L1D     -0.248000
     35 C19         2.3780   -2.7770   15.3650 cd        1 L1D     -0.039000
     36 C21         3.4390   -2.0310   14.9670 cc        1 L1D     -0.253200
     37 C20         3.6780   -1.7230   13.5540 c         1 L1D      0.690700
     38 O4          4.6300   -1.0260   13.1570 o         1 L1D     -0.625500
     39 F1          2.6420   -4.0320    8.1330 f         1 L1D     -0.147900
     40 H14         0.3230   -0.6120   -1.6640 ha        1 L1D      0.136000
     41 H15         2.7120   -0.7670   -0.9540 ha        1 L1D      0.136500
     42 H13        -1.4270    0.0380   -0.0040 ha        1 L1D      0.136500
     43 H16         3.3530   -0.2650    1.3960 ha        1 L1D      0.144000
     44 H18        -0.7950    0.5320    2.3500 ha        1 L1D      0.144000
     45 H3          0.4060    1.8940    3.7220 ho        1 L1D      0.409000
     46 H111        2.7300    2.2930    4.1840 h1        1 L1D      0.060700
     47 H112        3.2660    1.7890    2.5030 h1        1 L1D      0.060700
     48 H91C        2.1100   -1.6740    3.5160 hc        1 L1D      0.082700
     49 H92C        1.3650   -0.9860    5.0280 hc        1 L1D      0.082700
     50 H10         4.2150   -1.4180    4.5400 h1        1 L1D      0.098700
     51 HA          4.8970    3.0450    3.8230 hn        1 L1D      0.316500
     52 H7          8.0790    1.2030    4.4190 ha        1 L1D      0.154500
     53 HB          6.0210    5.0470    4.2060 ha        1 L1D      0.154500
     54 H6         10.2160    2.3910    4.7530 ha        1 L1D      0.149000
     55 H4          8.1700    6.2050    4.5370 ha        1 L1D      0.149000
     56 H1          3.3130   -2.4100    6.5050 hn        1 L1D      0.327500
     57 H31         3.7080    0.3580    8.9470 ha        1 L1D      0.186000
     58 H28         2.4680   -4.1620   10.7050 ha        1 L1D      0.153000
     59 H30         3.4810    0.0250   11.3640 ha        1 L1D      0.171000
     60 H24         0.9820   -3.3820   12.2850 h4        1 L1D      0.158000
     61 H23         0.5930   -3.8720   14.7100 ha        1 L1D      0.152000
     62 H19         2.2030   -3.0040   16.4280 ha        1 L1D      0.141000
     63 H21         4.1800   -1.6150   15.6640 ha        1 L1D      0.165000
@<TRIPOS>BOND
     1    1    2 ar  
     2    1    6 ar  
     3    1   40 1   
     4    2    3 ar  
     5    2   41 1   
     6    3    4 ar  
     7    3   43 1   
     8    4    5 ar  
     9    4    7 1   
    10    5    6 ar  
    11    5   44 1   
    12    6   42 1   
    13    7    8 1   
    14    7    9 1   
    15    7   22 1   
    16    8   45 1   
    17    9   10 1   
    18    9   46 1   
    19    9   47 1   
    20   10   11 1   
    21   10   21 1   
    22   11   12 2   
    23   11   13 1   
    24   13   14 1   
    25   13   51 1   
    26   14   15 ar  
    27   14   20 ar  
    28   15   16 ar  
    29   15   52 1   
    30   16   17 ar  
    31   16   54 1   
    32   17   18 1   
    33   17   19 ar  
    34   19   20 ar  
    35   19   55 1   
    36   20   53 1   
    37   21   22 1   
    38   21   23 1   
    39   21   50 1   
    40   22   48 1   
    41   22   49 1   
    42   23   24 2   
    43   23   25 1   
    44   25   26 1   
    45   25   56 1   
    46   26   27 ar  
    47   26   31 ar  
    48   27   28 ar  
    49   27   39 1   
    50   28   29 ar  
    51   28   58 1   
    52   29   30 ar  
    53   29   32 1   
    54   30   31 ar  
    55   30   59 1   
    56   31   57 1   
    57   32   33 1   
    58   32   37 1   
    59   33   34 2   
    60   33   60 1   
    61   34   35 1   
    62   34   61 1   
    63   35   36 2   
    64   35   62 1   
    65   36   37 1   
    66   36   63 1   
    67   37   38 2   
@<TRIPOS>SUBSTRUCTURE
     1 L1D         1 TEMP              0 ****  ****    0 ROOT
