@<TRIPOS>MOLECULE
L1E
   54    59     1     0     0
SMALL
bcc


@<TRIPOS>ATOM
      1 C5         -1.2340   -1.3370    2.7350 ca        1 L1E      0.608900
      2 C7         -3.0880    1.3830    1.0680 cp        1 L1E     -0.282800
      3 C8         -3.2710    2.4230    1.9930 ca        1 L1E     -0.039000
      4 C10        -4.0360    3.8110    0.1960 ca        1 L1E      0.434200
      5 C15        -0.7020    0.3910   -1.2320 ca        1 L1E      0.011000
      6 C17         0.2060   -1.8360   -1.6960 ca        1 L1E     -0.098000
      7 C21        -0.4360    1.7660   -0.9930 ca        1 L1E     -0.268300
      8 C22         0.8610    2.1700   -0.7410 ca        1 L1E      0.428200
      9 C24         1.7250    0.0280   -0.9300 ca        1 L1E      0.653200
     10 C26         4.1290   -0.4790   -0.6270 ca        1 L1E      0.139600
     11 C28         6.2260   -0.8710    0.5500 ca        1 L1E     -0.107000
     12 C27         4.8890   -1.1880    0.3320 ca        1 L1E     -0.138000
     13 C29         6.8240    0.1620   -0.1750 ca        1 L1E     -0.001600
     14 CL32        8.4560    0.5520    0.0980 cl        1 L1E     -0.097400
     15 C30         6.0860    0.8760   -1.1230 ca        1 L1E     -0.107000
     16 C31         4.7510    0.5590   -1.3530 ca        1 L1E     -0.138000
     17 N25         2.8050   -0.8850   -0.9120 nh        1 L1E     -0.718300
     18 N23         1.9310    1.3340   -0.6750 nb        1 L1E     -0.715000
     19 C16         0.4050   -0.4990   -1.2760 ca        1 L1E     -0.162300
     20 C18        -1.0420   -2.2710   -2.0610 ca        1 L1E     -0.130000
     21 C19        -2.1730   -1.4270   -1.9640 ca        1 L1E     -0.056300
     22 C14        -2.0260   -0.1200   -1.4800 ca        1 L1E      0.095600
     23 C12        -3.3380    1.6440   -0.3140 ca        1 L1E      0.634200
     24 N11        -3.8330    2.8620   -0.7240 nb        1 L1E     -0.725000
     25 C9         -3.7520    3.6550    1.5650 ca        1 L1E     -0.277300
     26 C3         -2.6890    0.0660    1.5830 cp        1 L1E      0.521800
     27 N4         -1.5090   -0.1000    2.2150 nb        1 L1E     -0.676000
     28 N6         -1.9870   -2.4600    2.7240 nb        1 L1E     -0.626000
     29 C1         -3.1870   -2.3150    2.0950 ca        1 L1E      0.545300
     30 C2         -3.5800   -1.0290    1.4940 ca        1 L1E     -0.297800
     31 N35        -4.8550   -1.2170    0.9700 na        1 L1E     -0.254300
     32 C34        -5.1800   -2.5630    1.2160 cc        1 L1E      0.432700
     33 N33        -4.2400   -3.2450    1.8900 nd        1 L1E     -0.623700
     34 H5         -0.2500   -1.4230    3.2420 h5        1 L1E      0.057100
     35 H8         -3.0390    2.2490    3.0560 ha        1 L1E      0.156000
     36 H10        -4.4400    4.7640   -0.1940 h4        1 L1E      0.027100
     37 H17         1.0520   -2.5370   -1.7720 ha        1 L1E      0.141000
     38 H20        -4.2250   -1.9480   -1.5720 hc        1 L1E      0.046033
     39 H20A       -3.8920   -1.3330   -3.2430 hc        1 L1E      0.046033
     40 H20B       -3.3900   -3.0100   -2.7760 hc        1 L1E      0.046033
     41 H21        -1.2320    2.5180   -1.0270 ha        1 L1E      0.149000
     42 H22         1.1080    3.2320   -0.5580 h4        1 L1E      0.025100
     43 H28         6.8040   -1.4340    1.2980 ha        1 L1E      0.147500
     44 H27         4.4340   -2.0010    0.9170 ha        1 L1E      0.144500
     45 H30         6.5570    1.6910   -1.6940 ha        1 L1E      0.147500
     46 H31         4.1870    1.1300   -2.1070 ha        1 L1E      0.144500
     47 HN25        2.5580   -1.7580   -0.4890 hn        1 L1E      0.419800
     48 H18        -1.1840   -3.3000   -2.4270 ha        1 L1E      0.141000
     49 HN13       -3.6050    0.9020   -2.1900 hn        1 L1E      0.419800
     50 H9         -3.9090    4.4830    2.2670 ha        1 L1E      0.152000
     51 H34        -6.1420   -2.9870    0.8960 h5        1 L1E      0.074800
     52 HN35       -5.3270   -0.5880    0.3740 hn        1 L1E      0.319700
     53 N13        -3.2180    0.6340   -1.2990 nh        1 L1E     -0.722300
     54 C20        -3.4840   -1.9580   -2.4090 c3        1 L1E     -0.048800
@<TRIPOS>BOND
     1    1   27 ar  
     2    1   28 ar  
     3    1   34 1   
     4    2    3 ar  
     5    2   23 ar  
     6    2   26 1   
     7    3   25 ar  
     8    3   35 1   
     9    4   24 ar  
    10    4   25 ar  
    11    4   36 1   
    12    5    7 ar  
    13    5   19 ar  
    14    5   22 ar  
    15    6   19 ar  
    16    6   20 ar  
    17    6   37 1   
    18    7    8 ar  
    19    7   41 1   
    20    8   18 ar  
    21    8   42 1   
    22    9   17 1   
    23    9   18 ar  
    24    9   19 ar  
    25   10   12 ar  
    26   10   16 ar  
    27   10   17 1   
    28   11   12 ar  
    29   11   13 ar  
    30   11   43 1   
    31   12   44 1   
    32   13   14 1   
    33   13   15 ar  
    34   15   16 ar  
    35   15   45 1   
    36   16   46 1   
    37   17   47 1   
    38   20   21 ar  
    39   20   48 1   
    40   21   22 ar  
    41   21   54 1   
    42   22   53 1   
    43   23   24 ar  
    44   23   53 1   
    45   25   50 1   
    46   26   27 ar  
    47   26   30 ar  
    48   28   29 ar  
    49   29   30 ar  
    50   29   33 1   
    51   30   31 1   
    52   31   32 1   
    53   31   52 1   
    54   32   33 2   
    55   32   51 1   
    56   38   54 1   
    57   39   54 1   
    58   40   54 1   
    59   49   53 1   
@<TRIPOS>SUBSTRUCTURE
     1 L1E         1 TEMP              0 ****  ****    0 ROOT
