@<TRIPOS>MOLECULE
L1E
   54    55     1     0     0
SMALL
bcc


@<TRIPOS>ATOM
      1 C5          0.1030   -1.5460   -1.2900 c1        1 L1E     -0.001000
      2 C7          3.0050   -0.1310    0.6200 c2        1 L1E     -0.179000
      3 C8          6.9800   -1.3260    2.1240 c1        1 L1E      0.346000
      4 C10         5.7560    0.7220    1.7560 c1        1 L1E     -0.014000
      5 C15         1.6160    3.0550    0.0850 c2        1 L1E     -0.020000
      6 C17         1.5200    6.5800    2.3090 c1        1 L1E      0.246000
      7 C21         2.6430    3.5680   -0.8610 c3        1 L1E     -0.243000
      8 C22         2.2390    3.5640   -2.2950 c1        1 L1E     -0.064000
      9 C24         0.0810    2.8040   -1.7990 c2        1 L1E      0.216000
     10 C26        -1.5690    1.9710   -3.2820 c2        1 L1E      0.096000
     11 C28        -3.3280    1.0580   -4.6690 c1        1 L1E     -0.112000
     12 C27        -2.9820    1.7570   -3.6200 c2        1 L1E     -0.091000
     13 C29        -3.6970    0.3420   -5.6900 c2        1 L1E     -0.089000
     14 Cl32       -3.9700    0.9940   -7.2290 cl        1 L1E      0.001000
     15 C30         0.9970    2.0010   -5.2850 c1        1 L1E      0.123000
     16 C31         2.1360    2.5610   -5.5670 c2        1 L1E     -0.531000
     17 N25        -1.2380    2.5180   -2.1510 n2        1 L1E     -0.216000
     18 N23         1.0050    3.2550   -2.6840 n2        1 L1E     -0.278000
     19 C16         0.3990    2.6690   -0.3590 c2        1 L1E     -0.179000
     20 C18         1.4650    5.3860    1.7510 c2        1 L1E     -0.459000
     21 C19         1.9290    4.1260    2.2920 c2        1 L1E     -0.027000
     22 C14         1.9720    3.0000    1.5190 c2        1 L1E     -0.047000
     23 C12         3.2960    0.9680    1.3670 c2        1 L1E      0.043000
     24 N11         4.6620    1.4090    1.5130 n7        1 L1E     -0.202000
     25 C9          5.8200   -0.7100    1.9580 c2        1 L1E     -0.561000
     26 C3          1.6760   -0.6830    0.3610 c2        1 L1E      0.113000
     27 N4          1.3080   -0.9650   -0.9540 n7        1 L1E     -0.204000
     28 N6         -0.8210   -1.9130   -0.3590 n2        1 L1E     -0.182000
     29 C1         -0.5440   -1.6810    0.9250 c2        1 L1E      0.178000
     30 C2          0.7500   -1.0230    1.3250 c2        1 L1E     -0.312000
     31 N35         0.7360   -0.8920    2.7660 ny        1 L1E     -0.052000
     32 C34        -0.6480   -1.5640    3.1580 c1        1 L1E     -0.046000
     33 N33        -1.2950   -1.9630    2.1030 n2        1 L1E     -0.244000
     34 H5          1.9440   -0.7380   -1.6880 hn        1 L1E      0.262000
     35 H8          3.8270   -0.6690    0.1070 ha        1 L1E      0.168000
     36 H10         4.7890    2.4000    1.4190 hn        1 L1E      0.263000
     37 H17        -0.3800    2.2820    0.3170 ha        1 L1E      0.170000
     38 H20         3.3250    3.6540    3.8690 hc        1 L1E      0.094667
     39 H20A        1.5700    3.5550    4.3330 hc        1 L1E      0.094667
     40 H20B        2.3710    5.1630    4.1360 hc        1 L1E      0.094667
     41 H21         3.5790    2.9450   -0.7880 hc        1 L1E      0.151500
     42 H22         2.9370    4.6210   -0.5820 hc        1 L1E      0.151500
     43 H28        -3.7510    2.1930   -2.9550 ha        1 L1E      0.169000
     44 H27        -0.8260    1.6070   -4.0410 h4        1 L1E      0.188000
     45 H30        -3.8630   -0.7450   -5.6380 h4        1 L1E      0.181000
     46 H31         2.7160    2.4290   -6.4900 ha        1 L1E      0.205500
     47 HN25        2.6120    3.2550   -4.8410 ha        1 L1E      0.205500
     48 H18         0.9880    5.3490    0.7430 ha        1 L1E      0.205000
     49 HN13        2.4820    1.7690    3.0320 hn        1 L1E      0.185000
     50 H9          4.8980   -1.3280    1.9980 ha        1 L1E      0.174000
     51 H34         0.7150    0.0780    3.0670 hn        1 L1E      0.228500
     52 HN35        1.5020   -1.3850    3.2100 hn        1 L1E      0.228500
     53 N13         2.2630    1.7080    2.0480 n7        1 L1E     -0.229000
     54 C20         2.3190    4.1240    3.7260 c3        1 L1E     -0.198000
@<TRIPOS>BOND
     1    1   27 1   
     2    1   28 1   
     3    2   23 1   
     4    2   26 1   
     5    2   35 1   
     6    3   25 1   
     7    4   24 1   
     8    4   25 1   
     9    5    7 1   
    10    5   19 1   
    11    5   22 1   
    12    6   20 1   
    13    7    8 1   
    14    7   41 1   
    15    7   42 1   
    16    8   18 1   
    17    9   17 1   
    18    9   18 1   
    19    9   19 1   
    20   10   12 1   
    21   10   17 1   
    22   10   44 1   
    23   11   12 1   
    24   11   13 1   
    25   12   43 1   
    26   13   14 1   
    27   13   45 1   
    28   15   16 1   
    29   16   46 1   
    30   16   47 1   
    31   19   37 1   
    32   20   21 1   
    33   20   48 1   
    34   21   22 1   
    35   21   54 1   
    36   22   53 1   
    37   23   24 1   
    38   23   53 1   
    39   24   36 1   
    40   25   50 1   
    41   26   27 1   
    42   26   30 1   
    43   27   34 1   
    44   28   29 1   
    45   29   30 1   
    46   29   33 1   
    47   30   31 1   
    48   31   32 1   
    49   31   51 1   
    50   31   52 1   
    51   32   33 1   
    52   38   54 1   
    53   39   54 1   
    54   40   54 1   
    55   49   53 1   
@<TRIPOS>SUBSTRUCTURE
     1 L1E         1 TEMP              0 ****  ****    0 ROOT
