@<TRIPOS>MOLECULE
L1E
   54    55     1     0     0
SMALL
bcc


@<TRIPOS>ATOM
      1 C5          0.1660   -1.5610   -1.3130 c1        1 L1E     -0.001000
      2 C7          3.0350   -0.1010    0.6120 c2        1 L1E     -0.179000
      3 C8          7.0310   -1.2280    2.1150 c1        1 L1E      0.346000
      4 C10         5.7670    0.7980    1.7600 c1        1 L1E     -0.014000
      5 C15         1.5850    3.0600    0.0970 c2        1 L1E     -0.020000
      6 C17         1.4130    6.5670    2.3450 c1        1 L1E      0.246000
      7 C21         2.6030    3.6000   -0.8430 c3        1 L1E     -0.243000
      8 C22         2.2020    3.5980   -2.2780 c1        1 L1E     -0.064000
      9 C24         0.0590    2.7910   -1.7930 c2        1 L1E      0.216000
     10 C26        -1.5710    1.9340   -3.2850 c2        1 L1E      0.096000
     11 C28        -3.3080    0.9940   -4.6820 c1        1 L1E     -0.112000
     12 C27        -2.9790    1.6930   -3.6280 c2        1 L1E     -0.091000
     13 C29        -3.6600    0.2770   -5.7080 c2        1 L1E     -0.089000
     14 CL32       -3.9430    0.9320   -7.2430 cl        1 L1E      0.001000
     15 C30         0.9980    2.0310   -5.2820 c1        1 L1E      0.123000
     16 C31         2.1260    2.6160   -5.5580 c2        1 L1E     -0.531000
     17 N25        -1.2540    2.4800   -2.1500 n2        1 L1E     -0.216000
     18 N23         0.9760    3.2670   -2.6730 n2        1 L1E     -0.278000
     19 C16         0.3760    2.6520   -0.3530 c2        1 L1E     -0.179000
     20 C18         1.3830    5.3750    1.7780 c2        1 L1E     -0.459000
     21 C19         1.8710    4.1220    2.3110 c2        1 L1E     -0.027000
     22 C14         1.9380    3.0020    1.5310 c2        1 L1E     -0.047000
     23 C12         3.3030    0.9970    1.3670 c2        1 L1E      0.043000
     24 N11         4.6600    1.4650    1.5190 n3        1 L1E     -0.202000
     25 C9          5.8590   -0.6330    1.9520 c2        1 L1E     -0.561000
     26 C3          1.7180   -0.6780    0.3470 c2        1 L1E      0.113000
     27 N4          1.3580   -0.9590   -0.9710 n3        1 L1E     -0.204000
     28 N6         -0.7520   -1.9520   -0.3860 n2        1 L1E     -0.182000
     29 C1         -0.4830   -1.7240    0.9000 c2        1 L1E      0.178000
     30 C2          0.7970   -1.0430    1.3060 c2        1 L1E     -0.312000
     31 N35         0.7780   -0.9220    2.7480 n4        1 L1E     -0.052000
     32 C34        -0.5930   -1.6240    3.1330 c1        1 L1E     -0.046000
     33 N33        -1.2300   -2.0290    2.0750 n2        1 L1E     -0.244000
     34 H5          1.9910   -0.7140   -1.7020 hn        1 L1E      0.262000
     35 H8          3.8690   -0.6200    0.0970 ha        1 L1E      0.168000
     36 H10         4.7670    2.4590    1.4320 hn        1 L1E      0.263000
     37 H17        -0.3960    2.2450    0.3180 ha        1 L1E      0.170000
     38 H20         3.2730    3.6670    3.8880 hc        1 L1E      0.094667
     39 H20A        1.5190    3.5290    4.3480 hc        1 L1E      0.094667
     40 H20B        2.2880    5.1550    4.1640 hc        1 L1E      0.094667
     41 H21         3.5510    2.9960   -0.7730 hc        1 L1E      0.151500
     42 H22         2.8740    4.6570   -0.5570 hc        1 L1E      0.151500
     43 H28        -3.7570    2.1100   -2.9620 ha        1 L1E      0.169000
     44 H27        -0.8190    1.5910   -4.0450 h4        1 L1E      0.188000
     45 H30        -3.8030   -0.8140   -5.6620 h4        1 L1E      0.181000
     46 H31         2.7100    2.5020   -6.4800 ha        1 L1E      0.205500
     47 HN25        2.5870    3.3140   -4.8250 ha        1 L1E      0.205500
     48 H18         0.9090    5.3360    0.7680 ha        1 L1E      0.205000
     49 HN13        2.4700    1.7710    3.0360 hn        1 L1E      0.185000
     50 H9          4.9490   -1.2700    1.9860 ha        1 L1E      0.174000
     51 H34         0.7370    0.0450    3.0560 hn        1 L1E      0.228500
     52 HN35        1.5520   -1.4030    3.1910 hn        1 L1E      0.228500
     53 N13         2.2540    1.7130    2.0520 n3        1 L1E     -0.229000
     54 C20         2.2580    4.1170    3.7460 c3        1 L1E     -0.198000
@<TRIPOS>BOND
     1    1   27 1   
     2    1   28 1   
     3    2   23 1   
     4    2   26 1   
     5    2   35 1   
     6    3   25 1   
     7    4   24 1   
     8    4   25 1   
     9    5    7 1   
    10    5   19 1   
    11    5   22 1   
    12    6   20 1   
    13    7    8 1   
    14    7   41 1   
    15    7   42 1   
    16    8   18 1   
    17    9   17 1   
    18    9   18 1   
    19    9   19 1   
    20   10   12 1   
    21   10   17 1   
    22   10   44 1   
    23   11   12 1   
    24   11   13 1   
    25   12   43 1   
    26   13   14 1   
    27   13   45 1   
    28   15   16 1   
    29   16   46 1   
    30   16   47 1   
    31   19   37 1   
    32   20   21 1   
    33   20   48 1   
    34   21   22 1   
    35   21   54 1   
    36   22   53 1   
    37   23   24 1   
    38   23   53 1   
    39   24   36 1   
    40   25   50 1   
    41   26   27 1   
    42   26   30 1   
    43   27   34 1   
    44   28   29 1   
    45   29   30 1   
    46   29   33 1   
    47   30   31 1   
    48   31   32 1   
    49   31   51 1   
    50   31   52 1   
    51   32   33 1   
    52   38   54 1   
    53   39   54 1   
    54   40   54 1   
    55   49   53 1   
@<TRIPOS>SUBSTRUCTURE
     1 L1E         1 TEMP              0 ****  ****    0 ROOT
