@<TRIPOS>MOLECULE
L1G
   83    89     1     0     0
SMALL
bcc


@<TRIPOS>ATOM
      1 C1          0.1240    0.0300   -0.0380 cc        1 L1G      0.422500
      2 C2          1.5710    0.1230    0.0030 ca        1 L1G     -0.498500
      3 C3         -0.7070   -0.0940   -1.2280 ca        1 L1G     -0.099900
      4 N1         -0.3730    0.0800    1.2250 nd        1 L1G     -0.509100
      5 C4          1.8870    0.2250    1.4200 ca        1 L1G      0.475800
      6 C5          2.6680    0.1660   -0.9130 ca        1 L1G      0.766200
      7 C6         -1.7300    0.8330   -1.4630 ca        1 L1G     -0.143000
      8 C7         -0.5070   -1.1390   -2.1320 ca        1 L1G     -0.128000
      9 N2          0.6490    0.2090    2.0920 na        1 L1G      0.001200
     10 N3          3.1620    0.3380    1.9070 nb        1 L1G     -0.745000
     11 N4          3.9490    0.2850   -0.4220 nb        1 L1G     -0.803000
     12 N5          2.4540    0.0680   -2.2640 nh        1 L1G     -0.963500
     13 C8         -2.5250    0.7230   -2.6020 ca        1 L1G      0.065100
     14 C9         -1.2960   -1.2580   -3.2730 ca        1 L1G     -0.140000
     15 C10         0.4870    0.1840    3.5480 c3        1 L1G      0.078000
     16 C11         4.0950    0.3540    0.9290 ca        1 L1G      0.696900
     17 C12        -2.3210   -0.3320   -3.5480 ca        1 L1G      0.059600
     18 O1         -3.5240    1.6370   -2.9070 os        1 L1G     -0.351900
     19 C13        -0.4610    1.2840    4.0470 c3        1 L1G     -0.091400
     20 C14        -0.0150   -1.1720    4.0640 c3        1 L1G     -0.091400
     21 N6         -3.1430   -0.4070   -4.6810 n         1 L1G     -0.462100
     22 C15        -4.0640    2.3530   -1.8000 c3        1 L1G      0.116700
     23 C16        -0.5060    1.2860    5.5610 c3        1 L1G     -0.079900
     24 C17        -0.0590   -1.1650    5.5760 c3        1 L1G     -0.079900
     25 C18        -2.9290   -1.1770   -5.8160 c         1 L1G      0.702300
     26 C19        -1.0070   -0.0650    6.0950 c3        1 L1G      0.188500
     27 C20        -3.9400   -1.0520   -6.8960 cc        1 L1G     -0.144300
     28 O2         -1.9720   -1.9640   -5.9370 o         1 L1G     -0.578100
     29 N7         -1.1220   -0.1420    7.5580 n3        1 L1G     -0.735600
     30 N8         -4.5530    0.1520   -7.3060 na        1 L1G     -0.067400
     31 C21        -4.4390   -2.1260   -7.6340 cd        1 L1G     -0.097200
     32 C22        -2.0970   -1.1470    7.9630 c3        1 L1G      0.172300
     33 C23        -1.3490    1.1300    8.2220 c3        1 L1G      0.172300
     34 C24        -5.4210   -0.1600   -8.3620 ca        1 L1G     -0.026200
     35 C25        -4.1090    1.4680   -6.9770 c3        1 L1G      0.019600
     36 C26        -5.3920   -1.5900   -8.5740 ca        1 L1G     -0.113800
     37 C27        -2.2160   -1.2870    9.4920 c3        1 L1G      0.167300
     38 C28        -1.4780    0.9950    9.7530 c3        1 L1G      0.167300
     39 C29        -6.2550    0.6640   -9.1380 ca        1 L1G     -0.148000
     40 C30        -6.2070   -2.1600   -9.5550 ca        1 L1G     -0.070000
     41 N9         -2.4450   -0.0140   10.1590 n3        1 L1G     -0.732600
     42 C31        -7.0440    0.0590  -10.1020 ca        1 L1G     -0.100000
     43 C32        -7.0230   -1.3340  -10.3100 ca        1 L1G     -0.161000
     44 C33        -2.5310   -0.1500   11.5950 c3        1 L1G      0.157100
     45 H6         -1.9010    1.6460   -0.7410 ha        1 L1G      0.153000
     46 H7          0.2710   -1.8940   -1.9360 ha        1 L1G      0.150000
     47 H5N1        1.5220    0.0920   -2.5990 hn        1 L1G      0.447300
     48 H5N2        3.2050    0.1710   -2.9000 hn        1 L1G      0.447300
     49 H9         -1.1090   -2.0990   -3.9640 ha        1 L1G      0.179000
     50 H10         1.5160    0.3750    3.9780 h1        1 L1G      0.091700
     51 H11         5.1470    0.4430    1.2760 h5        1 L1G      0.052100
     52 H131       -1.4900    1.1190    3.6350 hc        1 L1G      0.057950
     53 H132       -0.1060    2.2860    3.6900 hc        1 L1G      0.057950
     54 H141        0.6700   -1.9900    3.7190 hc        1 L1G      0.057950
     55 H142       -1.0360   -1.3840    3.6500 hc        1 L1G      0.057950
     56 HA         -3.9470    0.1840   -4.6580 hn        1 L1G      0.337500
     57 H151       -3.3440    3.1390   -1.4660 h1        1 L1G      0.047367
     58 H152       -4.3130    1.6650   -0.9560 h1        1 L1G      0.047367
     59 H153       -4.9910    2.8220   -2.2180 h1        1 L1G      0.047367
     60 H161       -1.1930    2.1110    5.8860 hc        1 L1G      0.052450
     61 H162        0.5150    1.5020    5.9720 hc        1 L1G      0.052450
     62 H171       -0.4050   -2.1710    5.9290 hc        1 L1G      0.052450
     63 H172        0.9690   -0.9980    5.9900 hc        1 L1G      0.052450
     64 H19        -2.0250   -0.2440    5.6210 h1        1 L1G      0.027700
     65 H21        -4.1580   -3.1700   -7.5180 ha        1 L1G      0.172000
     66 H221       -3.1220   -0.9270    7.5420 h1        1 L1G      0.036450
     67 H222       -1.7630   -2.1410    7.5550 h1        1 L1G      0.036450
     68 H231       -2.2710    1.6520    7.8310 h1        1 L1G      0.036450
     69 H232       -0.4600    1.7930    8.0270 h1        1 L1G      0.036450
     70 H251       -4.6370    1.8280   -6.0510 h1        1 L1G      0.055367
     71 H252       -3.0020    1.4780   -6.7930 h1        1 L1G      0.055367
     72 H253       -4.3440    2.1730   -7.8190 h1        1 L1G      0.055367
     73 H271       -1.2900   -1.8040    9.8820 h1        1 L1G      0.036450
     74 H272       -3.0990   -1.9520    9.7080 h1        1 L1G      0.036450
     75 H281       -1.8270    1.9860   10.1550 h1        1 L1G      0.036450
     76 H282       -0.4540    0.7880   10.1830 h1        1 L1G      0.036450
     77 H29        -6.2830    1.7510   -8.9820 ha        1 L1G      0.134000
     78 H30        -6.1930   -3.2480   -9.7170 ha        1 L1G      0.138000
     79 H31        -7.7060    0.6790  -10.7260 ha        1 L1G      0.132000
     80 H32        -7.6700   -1.7650  -11.0880 ha        1 L1G      0.133000
     81 H331       -2.7910    0.8480   12.0370 h1        1 L1G      0.032367
     82 H332       -1.5770   -0.5130   12.0690 h1        1 L1G      0.032367
     83 H333       -3.3490   -0.8780   11.8400 h1        1 L1G      0.032367
@<TRIPOS>BOND
     1    1    2 1   
     2    1    3 1   
     3    1    4 2   
     4    2    5 ar  
     5    2    6 ar  
     6    3    7 ar  
     7    3    8 ar  
     8    4    9 1   
     9    5    9 1   
    10    5   10 ar  
    11    6   11 ar  
    12    6   12 1   
    13    7   13 ar  
    14    7   45 1   
    15    8   14 ar  
    16    8   46 1   
    17    9   15 1   
    18   10   16 ar  
    19   11   16 ar  
    20   12   47 1   
    21   12   48 1   
    22   13   17 ar  
    23   13   18 1   
    24   14   17 ar  
    25   14   49 1   
    26   15   19 1   
    27   15   20 1   
    28   15   50 1   
    29   16   51 1   
    30   17   21 1   
    31   18   22 1   
    32   19   23 1   
    33   19   52 1   
    34   19   53 1   
    35   20   24 1   
    36   20   54 1   
    37   20   55 1   
    38   21   25 1   
    39   21   56 1   
    40   22   57 1   
    41   22   58 1   
    42   22   59 1   
    43   23   26 1   
    44   23   60 1   
    45   23   61 1   
    46   24   26 1   
    47   24   62 1   
    48   24   63 1   
    49   25   27 1   
    50   25   28 2   
    51   26   29 1   
    52   26   64 1   
    53   27   30 1   
    54   27   31 2   
    55   29   32 1   
    56   29   33 1   
    57   30   34 1   
    58   30   35 1   
    59   31   36 1   
    60   31   65 1   
    61   32   37 1   
    62   32   66 1   
    63   32   67 1   
    64   33   38 1   
    65   33   68 1   
    66   33   69 1   
    67   34   36 ar  
    68   34   39 ar  
    69   35   70 1   
    70   35   71 1   
    71   35   72 1   
    72   36   40 ar  
    73   37   41 1   
    74   37   73 1   
    75   37   74 1   
    76   38   41 1   
    77   38   75 1   
    78   38   76 1   
    79   39   42 ar  
    80   39   77 1   
    81   40   43 ar  
    82   40   78 1   
    83   41   44 1   
    84   42   43 ar  
    85   42   79 1   
    86   43   80 1   
    87   44   81 1   
    88   44   82 1   
    89   44   83 1   
@<TRIPOS>SUBSTRUCTURE
     1 L1G         1 TEMP              0 ****  ****    0 ROOT
