@<TRIPOS>MOLECULE
L1G
   83    89     1     0     0
SMALL
bcc


@<TRIPOS>ATOM
      1 C1          0.1230    0.0270   -0.0400 cc        1 L1G      0.422500
      2 C2          1.5700    0.1190    0.0010 ca        1 L1G     -0.498500
      3 C3         -0.7100   -0.0960   -1.2290 ca        1 L1G     -0.099900
      4 N1         -0.3740    0.0790    1.2240 nd        1 L1G     -0.509100
      5 C4          1.8860    0.2220    1.4170 ca        1 L1G      0.475800
      6 C5          2.6660    0.1600   -0.9160 ca        1 L1G      0.766200
      7 C6         -1.7310    0.8320   -1.4640 ca        1 L1G     -0.143000
      8 C7         -0.5110   -1.1430   -2.1320 ca        1 L1G     -0.128000
      9 N2          0.6490    0.2080    2.0910 na        1 L1G      0.001200
     10 N3          3.1620    0.3340    1.9030 nb        1 L1G     -0.745000
     11 N4          3.9480    0.2790   -0.4260 nb        1 L1G     -0.803000
     12 N5          2.4510    0.0620   -2.2660 nv        1 L1G     -0.963500
     13 C8         -2.5260    0.7210   -2.6030 ca        1 L1G      0.066100
     14 C9         -1.3000   -1.2610   -3.2720 ca        1 L1G     -0.140000
     15 C10         0.4880    0.1840    3.5460 c3        1 L1G      0.078000
     16 C11         4.0940    0.3490    0.9250 ca        1 L1G      0.696900
     17 C12        -2.3250   -0.3340   -3.5470 ca        1 L1G      0.059600
     18 O1         -3.5250    1.6370   -2.9080 os        1 L1G     -0.351900
     19 C13        -0.4580    1.2860    4.0460 c3        1 L1G     -0.091400
     20 C14        -0.0150   -1.1720    4.0640 c3        1 L1G     -0.091400
     21 N6         -3.1470   -0.4090   -4.6800 ns        1 L1G     -0.462100
     22 C15        -4.0640    2.3540   -1.8010 c3        1 L1G      0.116700
     23 C16        -0.5020    1.2880    5.5600 c3        1 L1G     -0.079900
     24 C17        -0.0580   -1.1630    5.5760 c3        1 L1G     -0.079900
     25 C18        -2.9340   -1.1800   -5.8150 c         1 L1G      0.702300
     26 C19        -1.0040   -0.0620    6.0950 c3        1 L1G      0.188500
     27 C20        -3.9450   -1.0560   -6.8940 cc        1 L1G     -0.144300
     28 O2         -1.9780   -1.9680   -5.9360 o         1 L1G     -0.578100
     29 N7         -1.1170   -0.1370    7.5580 n3        1 L1G     -0.735600
     30 N8         -4.5590    0.1490   -7.3040 na        1 L1G     -0.067400
     31 C21        -4.4450   -2.1290   -7.6320 cd        1 L1G     -0.097200
     32 C22        -2.0930   -1.1410    7.9650 c3        1 L1G      0.172300
     33 C23        -1.3420    1.1360    8.2220 c3        1 L1G      0.172300
     34 C24        -5.4270   -0.1630   -8.3600 ca        1 L1G     -0.026200
     35 C25        -4.1140    1.4650   -6.9760 c3        1 L1G      0.019600
     36 C26        -5.3980   -1.5930   -8.5720 ca        1 L1G     -0.113800
     37 C27        -2.2110   -1.2800    9.4940 c3        1 L1G      0.167300
     38 C28        -1.4690    1.0010    9.7530 c3        1 L1G      0.167300
     39 C29        -6.2610    0.6610   -9.1360 ca        1 L1G     -0.148000
     40 C30        -6.2140   -2.1640   -9.5520 ca        1 L1G     -0.070000
     41 N9         -2.4360   -0.0060   10.1610 n3        1 L1G     -0.732600
     42 C31        -7.0500    0.0550  -10.1000 ca        1 L1G     -0.100000
     43 C32        -7.0300   -1.3370  -10.3070 ca        1 L1G     -0.161000
     44 C33        -2.5210   -0.1410   11.5970 c3        1 L1G      0.157100
     45 H6         -1.9000    1.6450   -0.7430 ha        1 L1G      0.153000
     46 H7          0.2670   -1.8990   -1.9360 ha        1 L1G      0.150000
     47 H5N1        3.2020    0.1630   -2.9040 hn        1 L1G      0.447300
     48 H5N2        1.5190    0.0860   -2.6010 hn        1 L1G      0.447300
     49 H9         -1.1150   -2.1030   -3.9620 ha        1 L1G      0.179000
     50 H10         1.5180    0.3740    3.9760 h1        1 L1G      0.091700
     51 H11         5.1470    0.4360    1.2720 h5        1 L1G      0.052100
     52 H131       -0.1030    2.2870    3.6870 hc        1 L1G      0.057950
     53 H132       -1.4880    1.1200    3.6340 hc        1 L1G      0.057950
     54 H141        0.6690   -1.9910    3.7190 hc        1 L1G      0.057950
     55 H142       -1.0360   -1.3830    3.6510 hc        1 L1G      0.057950
     56 HA         -3.9510    0.1820   -4.6570 hn        1 L1G      0.337500
     57 H151       -4.3130    1.6670   -0.9560 h1        1 L1G      0.047367
     58 H152       -3.3420    3.1400   -1.4680 h1        1 L1G      0.047367
     59 H153       -4.9890    2.8240   -2.2190 h1        1 L1G      0.047367
     60 H161       -1.1880    2.1140    5.8850 hc        1 L1G      0.052450
     61 H162        0.5190    1.5040    5.9700 hc        1 L1G      0.052450
     62 H171       -0.4040   -2.1690    5.9300 hc        1 L1G      0.052450
     63 H172        0.9710   -0.9970    5.9890 hc        1 L1G      0.052450
     64 H19        -2.0220   -0.2400    5.6220 h1        1 L1G      0.027700
     65 H21        -4.1640   -3.1740   -7.5160 ha        1 L1G      0.172000
     66 H221       -3.1180   -0.9200    7.5450 h1        1 L1G      0.036450
     67 H222       -1.7610   -2.1350    7.5570 h1        1 L1G      0.036450
     68 H231       -0.4520    1.7970    8.0250 h1        1 L1G      0.036450
     69 H232       -2.2640    1.6580    7.8320 h1        1 L1G      0.036450
     70 H251       -3.0060    1.4740   -6.7940 h1        1 L1G      0.055367
     71 H252       -4.6410    1.8250   -6.0500 h1        1 L1G      0.055367
     72 H253       -4.3490    2.1690   -7.8190 h1        1 L1G      0.055367
     73 H271       -1.2850   -1.7970    9.8840 h1        1 L1G      0.036450
     74 H272       -3.0940   -1.9430    9.7120 h1        1 L1G      0.036450
     75 H281       -0.4450    0.7940   10.1820 h1        1 L1G      0.036450
     76 H282       -1.8170    1.9940   10.1550 h1        1 L1G      0.036450
     77 H29        -6.2880    1.7470   -8.9810 ha        1 L1G      0.134000
     78 H30        -6.2000   -3.2510   -9.7140 ha        1 L1G      0.138000
     79 H31        -7.7120    0.6760  -10.7240 ha        1 L1G      0.132000
     80 H32        -7.6770   -1.7690  -11.0850 ha        1 L1G      0.133000
     81 H331       -2.7790    0.8570   12.0390 h1        1 L1G      0.032367
     82 H332       -1.5670   -0.5050   12.0700 h1        1 L1G      0.032367
     83 H333       -3.3390   -0.8680   11.8430 h1        1 L1G      0.032367
@<TRIPOS>BOND
     1    1    2 1   
     2    1    3 1   
     3    1    4 2   
     4    2    5 ar  
     5    2    6 ar  
     6    3    7 ar  
     7    3    8 ar  
     8    4    9 1   
     9    5    9 1   
    10    5   10 ar  
    11    6   11 ar  
    12    6   12 1   
    13    7   13 ar  
    14    7   45 1   
    15    8   14 ar  
    16    8   46 1   
    17    9   15 1   
    18   10   16 ar  
    19   11   16 ar  
    20   12   47 1   
    21   12   48 1   
    22   13   17 ar  
    23   13   18 1   
    24   14   17 ar  
    25   14   49 1   
    26   15   19 1   
    27   15   20 1   
    28   15   50 1   
    29   16   51 1   
    30   17   21 1   
    31   18   22 1   
    32   19   23 1   
    33   19   52 1   
    34   19   53 1   
    35   20   24 1   
    36   20   54 1   
    37   20   55 1   
    38   21   25 1   
    39   21   56 1   
    40   22   57 1   
    41   22   58 1   
    42   22   59 1   
    43   23   26 1   
    44   23   60 1   
    45   23   61 1   
    46   24   26 1   
    47   24   62 1   
    48   24   63 1   
    49   25   27 1   
    50   25   28 2   
    51   26   29 1   
    52   26   64 1   
    53   27   30 1   
    54   27   31 2   
    55   29   32 1   
    56   29   33 1   
    57   30   34 1   
    58   30   35 1   
    59   31   36 1   
    60   31   65 1   
    61   32   37 1   
    62   32   66 1   
    63   32   67 1   
    64   33   38 1   
    65   33   68 1   
    66   33   69 1   
    67   34   36 ar  
    68   34   39 ar  
    69   35   70 1   
    70   35   71 1   
    71   35   72 1   
    72   36   40 ar  
    73   37   41 1   
    74   37   73 1   
    75   37   74 1   
    76   38   41 1   
    77   38   75 1   
    78   38   76 1   
    79   39   42 ar  
    80   39   77 1   
    81   40   43 ar  
    82   40   78 1   
    83   41   44 1   
    84   42   43 ar  
    85   42   79 1   
    86   43   80 1   
    87   44   81 1   
    88   44   82 1   
    89   44   83 1   
@<TRIPOS>SUBSTRUCTURE
     1 L1G         1 TEMP              0 ****  ****    0 ROOT
