@<TRIPOS>MOLECULE
L1G
   83    89     1     0     0
SMALL
bcc


@<TRIPOS>ATOM
      1 C1          0.7820   -1.6790   -0.1460 cc        1 L1G      0.422500
      2 C2          1.1960   -3.0650   -0.2590 ca        1 L1G     -0.498500
      3 C3         -0.5840   -1.1820   -0.0640 ca        1 L1G     -0.099900
      4 N1          1.8780   -0.8750   -0.1320 nd        1 L1G     -0.509100
      5 C4          2.6490   -3.0060   -0.3020 ca        1 L1G      0.475800
      6 C5          0.5930   -4.3580   -0.3590 ca        1 L1G      0.766200
      7 C6         -1.0360   -0.2290   -0.9850 ca        1 L1G     -0.143000
      8 C7         -1.4480   -1.6330    0.9370 ca        1 L1G     -0.128000
      9 N2          2.9820   -1.6390   -0.2370 na        1 L1G      0.001200
     10 N3          3.4500   -4.1120   -0.4110 nb        1 L1G     -0.745000
     11 N4          1.4000   -5.4680   -0.4750 nb        1 L1G     -0.803000
     12 N5         -0.7700   -4.4970   -0.3200 nh        1 L1G     -0.963500
     13 C8         -2.3440    0.2460   -0.9140 ca        1 L1G      0.066100
     14 C9         -2.7560   -1.1640    1.0160 ca        1 L1G     -0.140000
     15 C10         4.3460   -1.1120   -0.1470 c3        1 L1G      0.078000
     16 C11         2.7450   -5.2620   -0.4860 ca        1 L1G      0.696900
     17 C12        -3.2470   -0.2190    0.0940 ca        1 L1G      0.059600
     18 O1         -2.8570    1.1590   -1.8250 os        1 L1G     -0.351900
     19 C13         4.6300   -0.0470   -1.2160 c3        1 L1G     -0.091900
     20 C14         4.6610   -0.5220    1.2360 c3        1 L1G     -0.091900
     21 N6         -4.5550    0.2850    0.1310 n         1 L1G     -0.462100
     22 C15        -1.8980    1.9810   -2.4830 c3        1 L1G      0.116700
     23 C16         6.0810    0.3830   -1.1500 c3        1 L1G     -0.079900
     24 C17         6.1110   -0.0930    1.2950 c3        1 L1G     -0.079900
     25 C18        -5.6270   -0.2320    0.8450 c         1 L1G      0.702300
     26 C19         6.4140    0.9770    0.2270 c3        1 L1G      0.188500
     27 C20        -6.9230    0.4740    0.6890 cc        1 L1G     -0.144300
     28 O2         -5.5300   -1.2080    1.6110 o         1 L1G     -0.578100
     29 N7          7.7950    1.4600    0.3690 n3        1 L1G     -0.735600
     30 N8         -7.4280    0.9960   -0.5230 na        1 L1G     -0.067400
     31 C21        -7.8060    0.7400    1.7360 cd        1 L1G     -0.097200
     32 C22         7.8960    2.4860    1.3980 c3        1 L1G      0.172300
     33 C23         8.4300    1.8730   -0.8710 c3        1 L1G      0.172300
     34 C24        -8.6820    1.5570   -0.2450 ca        1 L1G     -0.026200
     35 C25        -6.9450    0.6860   -1.8300 c3        1 L1G      0.019600
     36 C26        -8.9370    1.4350    1.1730 ca        1 L1G     -0.113800
     37 C27         9.3370    2.9890    1.6070 c3        1 L1G      0.167300
     38 C28         9.8700    2.3850   -0.6670 c3        1 L1G      0.167300
     39 C29        -9.6130    2.1880   -1.0900 ca        1 L1G     -0.148000
     40 C30       -10.1150    1.9580    1.7120 ca        1 L1G     -0.070000
     41 N9          9.9750    3.4040    0.3660 n3        1 L1G     -0.732600
     42 C31       -10.7700    2.6880   -0.5160 ca        1 L1G     -0.100000
     43 C32       -11.0200    2.5770    0.8650 ca        1 L1G     -0.161000
     44 C33        11.3340    3.8510    0.5660 c3        1 L1G      0.157100
     45 H6         -0.3500    0.1410   -1.7620 ha        1 L1G      0.153000
     46 H7         -1.0890   -2.3550    1.6880 ha        1 L1G      0.150000
     47 H5N1       -1.1890   -5.3830   -0.4620 hn        1 L1G      0.447300
     48 H5N2       -1.3310   -3.6810   -0.3450 hn        1 L1G      0.447300
     49 H9         -3.4090   -1.5420    1.8220 ha        1 L1G      0.179000
     50 H10         5.0320   -1.9940   -0.3270 h1        1 L1G      0.091700
     51 H11         3.3530   -6.1890   -0.5740 h5        1 L1G      0.052100
     52 H131        4.4150   -0.4610   -2.2350 hc        1 L1G      0.057950
     53 H132        3.9610    0.8400   -1.0590 hc        1 L1G      0.057950
     54 H141        3.9920    0.3550    1.4380 hc        1 L1G      0.057950
     55 H142        4.4710   -1.2880    2.0320 hc        1 L1G      0.057950
     56 HA         -4.7150    1.0840   -0.4460 hn        1 L1G      0.337500
     57 H151       -1.1730    2.4180   -1.7550 h1        1 L1G      0.047367
     58 H152       -1.3610    1.3900   -3.2650 h1        1 L1G      0.047367
     59 H153       -2.5200    2.7820   -2.9570 h1        1 L1G      0.047367
     60 H161        6.7470   -0.4940   -1.3580 hc        1 L1G      0.052450
     61 H162        6.2520    1.1470   -1.9540 hc        1 L1G      0.052450
     62 H171        6.7810   -0.9780    1.1370 hc        1 L1G      0.052450
     63 H172        6.3230    0.3110    2.3180 hc        1 L1G      0.052450
     64 H19         5.6890    1.8360    0.3940 h1        1 L1G      0.027700
     65 H21        -7.6640    0.4680    2.7790 ha        1 L1G      0.172000
     66 H221        7.2360    3.3740    1.1690 h1        1 L1G      0.036450
     67 H222        7.5470    2.0410    2.3710 h1        1 L1G      0.036450
     68 H231        8.4950    0.9760   -1.5490 h1        1 L1G      0.036450
     69 H232        7.8380    2.6750   -1.4020 h1        1 L1G      0.036450
     70 H251       -6.1710    1.4420   -2.1390 h1        1 L1G      0.055367
     71 H252       -6.4840   -0.3380   -1.8500 h1        1 L1G      0.055367
     72 H253       -7.7910    0.7180   -2.5680 h1        1 L1G      0.055367
     73 H271        9.2930    3.8850    2.2880 h1        1 L1G      0.036450
     74 H272        9.9300    2.1830    2.1320 h1        1 L1G      0.036450
     75 H281       10.2090    2.8450   -1.6370 h1        1 L1G      0.036450
     76 H282       10.5390    1.5010   -0.4500 h1        1 L1G      0.036450
     77 H29        -9.4270    2.2840   -2.1680 ha        1 L1G      0.134000
     78 H30       -10.3120    1.8730    2.7900 ha        1 L1G      0.138000
     79 H31       -11.5170    3.1860   -1.1530 ha        1 L1G      0.132000
     80 H32       -11.9540    2.9930    1.2720 ha        1 L1G      0.133000
     81 H331       12.0210    3.0430    0.9420 h1        1 L1G      0.032367
     82 H332       11.7350    4.2340   -0.4090 h1        1 L1G      0.032367
     83 H333       11.3320    4.6900    1.3100 h1        1 L1G      0.032367
@<TRIPOS>BOND
     1    1    2 1   
     2    1    3 1   
     3    1    4 2   
     4    2    5 ar  
     5    2    6 ar  
     6    3    7 ar  
     7    3    8 ar  
     8    4    9 1   
     9    5    9 1   
    10    5   10 ar  
    11    6   11 ar  
    12    6   12 1   
    13    7   13 ar  
    14    7   45 1   
    15    8   14 ar  
    16    8   46 1   
    17    9   15 1   
    18   10   16 ar  
    19   11   16 ar  
    20   12   47 1   
    21   12   48 1   
    22   13   17 ar  
    23   13   18 1   
    24   14   17 ar  
    25   14   49 1   
    26   15   19 1   
    27   15   20 1   
    28   15   50 1   
    29   16   51 1   
    30   17   21 1   
    31   18   22 1   
    32   19   23 1   
    33   19   52 1   
    34   19   53 1   
    35   20   24 1   
    36   20   54 1   
    37   20   55 1   
    38   21   25 1   
    39   21   56 1   
    40   22   57 1   
    41   22   58 1   
    42   22   59 1   
    43   23   26 1   
    44   23   60 1   
    45   23   61 1   
    46   24   26 1   
    47   24   62 1   
    48   24   63 1   
    49   25   27 1   
    50   25   28 2   
    51   26   29 1   
    52   26   64 1   
    53   27   30 1   
    54   27   31 2   
    55   29   32 1   
    56   29   33 1   
    57   30   34 1   
    58   30   35 1   
    59   31   36 1   
    60   31   65 1   
    61   32   37 1   
    62   32   66 1   
    63   32   67 1   
    64   33   38 1   
    65   33   68 1   
    66   33   69 1   
    67   34   36 ar  
    68   34   39 ar  
    69   35   70 1   
    70   35   71 1   
    71   35   72 1   
    72   36   40 ar  
    73   37   41 1   
    74   37   73 1   
    75   37   74 1   
    76   38   41 1   
    77   38   75 1   
    78   38   76 1   
    79   39   42 ar  
    80   39   77 1   
    81   40   43 ar  
    82   40   78 1   
    83   41   44 1   
    84   42   43 ar  
    85   42   79 1   
    86   43   80 1   
    87   44   81 1   
    88   44   82 1   
    89   44   83 1   
@<TRIPOS>SUBSTRUCTURE
     1 L1G         1 TEMP              0 ****  ****    0 ROOT
