@<TRIPOS>MOLECULE
L1G
   85    91     1     0     0
SMALL
bcc


@<TRIPOS>ATOM
      1 C1          0.5220    0.2060   -0.1980 cc        1 L1G      0.338500
      2 C2          1.9540    0.0630   -0.0600 ca        1 L1G     -0.411500
      3 C3         -0.2840    0.3060   -1.4090 ca        1 L1G     -0.021900
      4 N1         -0.0490    0.2110    1.0450 nd        1 L1G     -0.410100
      5 C4          2.1640   -0.0320    1.4010 ca        1 L1G      0.453800
      6 C5          3.1360    0.0180   -0.8220 ca        1 L1G      0.546200
      7 C6         -1.2280    1.3300   -1.5210 ca        1 L1G     -0.166000
      8 C7         -0.1790   -0.6630   -2.4200 ca        1 L1G     -0.199000
      9 N2          0.8840    0.0730    1.9780 na        1 L1G      0.062200
     10 N3          3.3920   -0.1800    1.9740 nb        1 L1G     -0.603000
     11 N4          4.3590   -0.1300   -0.2710 nb        1 L1G     -0.680000
     12 N5          3.0690    0.1500   -2.2950 n4        1 L1G     -0.832300
     13 C8         -2.0930    1.3720   -2.6240 ca        1 L1G      0.188100
     14 C9         -1.0320   -0.6330   -3.5160 ca        1 L1G     -0.036000
     15 C10         0.6040    0.0030    3.4370 c3        1 L1G      0.062000
     16 C11         4.4150   -0.2250    1.0990 ca        1 L1G      0.690900
     17 C12        -2.0030    0.3770   -3.6370 ca        1 L1G     -0.072400
     18 O1         -3.0460    2.3370   -2.8170 os        1 L1G     -0.354900
     19 C13        -0.0820    1.2730    3.9520 c3        1 L1G     -0.090400
     20 C14        -0.2500   -1.2180    3.7990 c3        1 L1G     -0.090400
     21 N6         -2.9340    0.3880   -4.7610 n4        1 L1G     -0.539200
     22 C15        -3.2640    3.2740   -1.7530 c3        1 L1G      0.114700
     23 C16        -0.2290    1.1840    5.4570 c3        1 L1G     -0.085900
     24 C17        -0.4020   -1.2990    5.3050 c3        1 L1G     -0.085900
     25 C18        -3.7140   -0.9180   -4.9770 c         1 L1G      0.591300
     26 C19        -1.0810   -0.0370    5.8620 c3        1 L1G      0.193500
     27 C20        -4.5480   -0.9430   -6.1460 cc        1 L1G     -0.282300
     28 O2         -3.5140   -1.8140   -4.1670 o         1 L1G     -0.440100
     29 N7         -1.2840   -0.0470    7.3140 n3        1 L1G     -0.733600
     30 N8         -4.9010    0.1760   -6.9750 na        1 L1G     -0.058400
     31 C21        -4.9760   -2.1520   -6.7290 cd        1 L1G      0.064800
     32 C22        -1.4150   -1.3710    7.9020 c3        1 L1G      0.170800
     33 C23        -2.3730    0.8420    7.7040 c3        1 L1G      0.170800
     34 C24        -5.6450   -0.3790   -8.0510 ca        1 L1G      0.003800
     35 C25        -5.3360    1.4200   -6.3930 c3        1 L1G     -0.023400
     36 C26        -5.6680   -1.8190   -7.9380 ca        1 L1G     -0.152800
     37 C27        -1.6750   -1.3360    9.4220 c3        1 L1G      0.167300
     38 C28        -2.6200    0.8680    9.2250 c3        1 L1G      0.167300
     39 C29        -6.2490    0.2600   -9.1430 ca        1 L1G     -0.154000
     40 C30        -6.2900   -2.5920   -8.9270 ca        1 L1G     -0.037000
     41 N9         -2.7830   -0.4650    9.7840 n3        1 L1G     -0.732600
     42 C31        -6.8610   -0.5380  -10.1020 ca        1 L1G     -0.040000
     43 C32        -6.8830   -1.9420   -9.9980 ca        1 L1G     -0.140000
     44 C33        -3.0350   -0.4460   11.2070 c3        1 L1G      0.154100
     45 H6         -1.3160    2.0870   -0.7230 ha        1 L1G      0.185000
     46 H7          0.5080   -1.5160   -2.3010 ha        1 L1G      0.157000
     47 H5N1        2.0860    0.0890   -2.5890 hn        1 L1G      0.476133
     48 H5N2        3.6180   -0.5970   -2.7440 hn        1 L1G      0.476133
     49 H9         -0.9730   -1.4390   -4.2700 ha        1 L1G      0.171000
     50 H10         1.6180   -0.0950    3.9300 h1        1 L1G      0.108700
     51 H11         5.4410   -0.3500    1.5240 h5        1 L1G      0.113100
     52 H131       -1.0910    1.3870    3.4760 hc        1 L1G      0.059950
     53 H132        0.5270    2.1780    3.6940 hc        1 L1G      0.059950
     54 H141       -1.2600   -1.1380    3.3180 hc        1 L1G      0.059950
     55 H142        0.2360   -2.1580    3.4280 hc        1 L1G      0.059950
     56 HA         -2.4160    0.5920   -5.6240 hn        1 L1G      0.470300
     57 H151       -2.3540    3.9040   -1.6070 h1        1 L1G      0.076033
     58 H152       -3.5460    2.7370   -0.8150 h1        1 L1G      0.076033
     59 H153       -4.1190    3.8880   -2.1380 h1        1 L1G      0.076033
     60 H161       -0.7120    2.1290    5.8200 hc        1 L1G      0.068700
     61 H162        0.7800    1.1160    5.9410 hc        1 L1G      0.068700
     62 H171       -1.0210   -2.2070    5.5370 hc        1 L1G      0.068700
     63 H172        0.6030   -1.4350    5.7830 hc        1 L1G      0.068700
     64 H19        -2.0800    0.0570    5.3280 h1        1 L1G      0.025700
     65 H21        -4.7860   -3.1550   -6.3400 ha        1 L1G      0.190000
     66 H221       -2.2400   -1.9670    7.4130 h1        1 L1G      0.034950
     67 H222       -0.4440   -1.9200    7.7500 h1        1 L1G      0.034950
     68 H231       -3.3390    0.5640    7.1880 h1        1 L1G      0.034950
     69 H232       -2.1010    1.8860    7.3870 h1        1 L1G      0.034950
     70 H251       -5.7510    1.2850   -5.3590 h1        1 L1G      0.062367
     71 H252       -6.1380    1.8890   -7.0290 h1        1 L1G      0.062367
     72 H253       -4.4640    2.1300   -6.3690 h1        1 L1G      0.062367
     73 H271       -0.7190   -1.0390    9.9450 h1        1 L1G      0.044200
     74 H272       -1.9370   -2.3820    9.7470 h1        1 L1G      0.044200
     75 H281       -3.5720    1.4400    9.4070 h1        1 L1G      0.044200
     76 H282       -1.7760    1.4320    9.7190 h1        1 L1G      0.044200
     77 H29        -6.2380    1.3550   -9.2460 ha        1 L1G      0.157000
     78 H30        -6.3020   -3.6900   -8.8480 ha        1 L1G      0.162000
     79 H31        -7.3460   -0.0600  -10.9710 ha        1 L1G      0.165000
     80 H32        -7.3830   -2.5290  -10.7870 ha        1 L1G      0.168000
     81 H331       -2.1800   -0.0250   11.8060 h1        1 L1G      0.039700
     82 H332       -3.9480    0.1760   11.4020 h1        1 L1G      0.039700
     83 H333       -3.2310   -1.4940   11.5520 h1        1 L1G      0.039700
     84 H53         3.4620    1.0590   -2.5730 hn        1 L1G      0.476133
     85 H62        -3.6200    1.1450   -4.6110 hn        1 L1G      0.470300
@<TRIPOS>BOND
     1    1    2 1   
     2    1    3 1   
     3    1    4 2   
     4    2    5 ar  
     5    2    6 ar  
     6    3    7 ar  
     7    3    8 ar  
     8    4    9 1   
     9    5    9 1   
    10    5   10 ar  
    11    6   11 ar  
    12    6   12 1   
    13    7   13 ar  
    14    7   45 1   
    15    8   14 ar  
    16    8   46 1   
    17    9   15 1   
    18   10   16 ar  
    19   11   16 ar  
    20   12   47 1   
    21   12   48 1   
    22   12   84 1   
    23   13   17 ar  
    24   13   18 1   
    25   14   17 ar  
    26   14   49 1   
    27   15   19 1   
    28   15   20 1   
    29   15   50 1   
    30   16   51 1   
    31   17   21 1   
    32   18   22 1   
    33   19   23 1   
    34   19   52 1   
    35   19   53 1   
    36   20   24 1   
    37   20   54 1   
    38   20   55 1   
    39   21   25 1   
    40   21   56 1   
    41   21   85 1   
    42   22   57 1   
    43   22   58 1   
    44   22   59 1   
    45   23   26 1   
    46   23   60 1   
    47   23   61 1   
    48   24   26 1   
    49   24   62 1   
    50   24   63 1   
    51   25   27 1   
    52   25   28 2   
    53   26   29 1   
    54   26   64 1   
    55   27   30 1   
    56   27   31 2   
    57   29   32 1   
    58   29   33 1   
    59   30   34 1   
    60   30   35 1   
    61   31   36 1   
    62   31   65 1   
    63   32   37 1   
    64   32   66 1   
    65   32   67 1   
    66   33   38 1   
    67   33   68 1   
    68   33   69 1   
    69   34   36 ar  
    70   34   39 ar  
    71   35   70 1   
    72   35   71 1   
    73   35   72 1   
    74   36   40 ar  
    75   37   41 1   
    76   37   73 1   
    77   37   74 1   
    78   38   41 1   
    79   38   75 1   
    80   38   76 1   
    81   39   42 ar  
    82   39   77 1   
    83   40   43 ar  
    84   40   78 1   
    85   41   44 1   
    86   42   43 ar  
    87   42   79 1   
    88   43   80 1   
    89   44   81 1   
    90   44   82 1   
    91   44   83 1   
@<TRIPOS>SUBSTRUCTURE
     1 L1G         1 TEMP              0 ****  ****    0 ROOT
