@<TRIPOS>MOLECULE
L1O
   24    24     1     0     0
SMALL
bcc


@<TRIPOS>ATOM
      1 N1          1.0020    0.2150    2.0510 n4        1 L1O     -0.863600
      2 C2          1.2810    0.1920    0.5940 c3        1 L1O      0.067800
      3 C3          2.5400   -0.6140    0.2360 c3        1 L1O      0.100400
      4 O4          2.5040   -1.9230    0.7870 os        1 L1O     -0.302900
      5 C5          3.0190   -2.0050    2.0830 ca        1 L1O     -0.004900
      6 C6          2.1440   -2.3450    3.1360 ca        1 L1O     -0.036600
      7 CL7         0.4770   -2.6500    2.8280 cl        1 L1O     -0.093900
      8 C8          2.6110   -2.4420    4.4420 ca        1 L1O     -0.077500
      9 C9          3.9570   -2.1790    4.7180 ca        1 L1O     -0.110600
     10 C10         4.8480   -1.9260    3.6760 ca        1 L1O     -0.077500
     11 C11         4.3880   -1.8480    2.3560 ca        1 L1O     -0.036600
     12 CL12        5.5080   -1.5530    1.1100 cl        1 L1O     -0.093900
     13 C13         4.4280   -2.1200    6.1850 c         1 L1O      0.916200
     14 O14         3.5190   -2.1520    7.0520 o         1 L1O     -0.784300
     15 O15         5.6630   -2.0090    6.3730 o         1 L1O     -0.784300
     16 H1N1        1.8750    0.3350    2.5780 hn        1 L1O      0.465133
     17 H1N2        0.5870   -0.7140    2.3380 hn        1 L1O      0.465133
     18 H2C1        0.3840   -0.2640    0.0840 hx        1 L1O      0.101200
     19 H2C2        1.4130    1.2500    0.2300 hx        1 L1O      0.101200
     20 H3C1        2.5420   -0.7800   -0.8770 h1        1 L1O      0.095200
     21 H3C2        3.4620   -0.0530    0.5420 h1        1 L1O      0.095200
     22 H8          1.9500   -2.7050    5.2900 ha        1 L1O      0.198000
     23 H10         5.9180   -1.7900    3.9260 ha        1 L1O      0.198000
     24 H13         0.3560    0.9680    2.2860 hn        1 L1O      0.465133
@<TRIPOS>BOND
     1    1    2 1   
     2    1   16 1   
     3    1   17 1   
     4    1   24 1   
     5    2    3 1   
     6    2   18 1   
     7    2   19 1   
     8    3    4 1   
     9    3   20 1   
    10    3   21 1   
    11    4    5 1   
    12    5    6 ar  
    13    5   11 ar  
    14    6    7 1   
    15    6    8 ar  
    16    8    9 ar  
    17    8   22 1   
    18    9   10 ar  
    19    9   13 1   
    20   10   11 ar  
    21   10   23 1   
    22   11   12 1   
    23   13   14 1   
    24   13   15 1   
@<TRIPOS>SUBSTRUCTURE
     1 L1O         1 TEMP              0 ****  ****    0 ROOT
