@<TRIPOS>MOLECULE
L1O
   23    23     1     0     0
SMALL
bcc


@<TRIPOS>ATOM
      1 N1         32.8220    5.0120   26.1520 n3        1 L1O     -0.900800
      2 C2         32.5050    4.9050   27.5530 c3        1 L1O      0.151800
      3 C3         31.6680    6.0400   28.1550 c3        1 L1O      0.084400
      4 O4         30.4260    6.0500   27.4340 os        1 L1O     -0.339900
      5 C5         29.6130    7.1230   27.7800 ca        1 L1O      0.065100
      6 C6         29.6830    8.3280   27.0570 ca        1 L1O     -0.005600
      7 CL7        30.8520    8.5440   25.8280 cl        1 L1O     -0.128900
      8 C8         28.7940    9.3690   27.3340 ca        1 L1O     -0.092500
      9 C9         27.8350    9.2250   28.3390 ca        1 L1O     -0.116600
     10 C10        27.7610    8.0330   29.0640 ca        1 L1O     -0.092500
     11 C11        28.6470    6.9890   28.7920 ca        1 L1O     -0.005600
     12 CL12       28.5350    5.5510   29.7080 cl        1 L1O     -0.128900
     13 C13        26.8730   10.3710   28.6480 c         1 L1O      0.912200
     14 O14        26.0290   10.1900   29.5680 o         1 L1O     -0.817300
     15 O15        26.9870   11.4260   27.9660 o         1 L1O     -0.817300
     16 H1N1       31.9810    4.9570   25.6080 hn        1 L1O      0.348800
     17 H1N2       33.2560    5.8960   25.9600 hn        1 L1O      0.348800
     18 H2C1       31.9540    3.9360   27.7110 h1        1 L1O      0.051700
     19 H2C2       33.4700    4.8620   28.1320 h1        1 L1O      0.051700
     20 H3C1       31.4630    5.8440   29.2390 h1        1 L1O      0.040700
     21 H3C2       32.1780    7.0320   28.0420 h1        1 L1O      0.040700
     22 H8         28.8270   10.3210   26.7760 ha        1 L1O      0.175000
     23 H10        26.9910    7.9480   29.8500 ha        1 L1O      0.175000
@<TRIPOS>BOND
     1    1    2 1   
     2    1   16 1   
     3    1   17 1   
     4    2    3 1   
     5    2   18 1   
     6    2   19 1   
     7    3    4 1   
     8    3   20 1   
     9    3   21 1   
    10    4    5 1   
    11    5    6 ar  
    12    5   11 ar  
    13    6    7 1   
    14    6    8 ar  
    15    8    9 ar  
    16    8   22 1   
    17    9   10 ar  
    18    9   13 1   
    19   10   11 ar  
    20   10   23 1   
    21   11   12 1   
    22   13   14 1   
    23   13   15 1   
@<TRIPOS>SUBSTRUCTURE
     1 L1O         1 TEMP              0 ****  ****    0 ROOT
