@<TRIPOS>MOLECULE
L1O
   24    24     1     0     0
SMALL
bcc


@<TRIPOS>ATOM
      1 N1          0.3880    0.0280    1.3940 nz        1 L1O     -0.870600
      2 C2          1.7740    0.3750    0.9960 c3        1 L1O      0.060800
      3 C3          2.4750   -0.7740    0.2630 c3        1 L1O      0.099400
      4 O4          2.3460   -2.0070    0.9610 os        1 L1O     -0.322900
      5 C5          2.9620   -2.0260    2.2140 ca        1 L1O      0.011100
      6 C6          2.1450   -2.1730    3.3530 ca        1 L1O     -0.022600
      7 Cl7         0.4360   -2.3640    3.1950 cl        1 L1O     -0.102900
      8 C8          2.6980   -2.2040    4.6290 ca        1 L1O     -0.073500
      9 C9          4.0830   -2.0780    4.7840 ca        1 L1O     -0.107600
     10 C10         4.9080   -2.0030    3.6630 ca        1 L1O     -0.073500
     11 C11         4.3560   -1.9870    2.3760 ca        1 L1O     -0.022600
     12 Cl12        5.4030   -1.9190    1.0350 cl        1 L1O     -0.102900
     13 C13         4.6780   -1.9960    6.2030 c         1 L1O      0.916200
     14 O14         3.8500   -1.9790    7.1480 o         1 L1O     -0.786300
     15 O15         5.9290   -1.9290    6.2820 o         1 L1O     -0.786300
     16 H1N1       -0.1870   -0.1380    0.5680 hn        1 L1O      0.458467
     17 H1N2        0.4090   -0.8700    1.9760 hn        1 L1O      0.458467
     18 H2C1        2.3490    0.6130    1.9400 hx        1 L1O      0.111200
     19 H2C2        1.7520    1.2870    0.3360 hx        1 L1O      0.111200
     20 H3C1        2.0030   -0.9850   -0.7340 h1        1 L1O      0.094700
     21 H3C2        3.5530   -0.4880    0.1270 h1        1 L1O      0.094700
     22 H8          2.0820   -2.3190    5.5400 ha        1 L1O      0.197000
     23 H10         6.0020   -1.9570    3.8240 ha        1 L1O      0.197000
     24 H13        -0.0210    0.7790    1.9490 hn        1 L1O      0.458467
@<TRIPOS>BOND
     1    1    2 1   
     2    1   16 1   
     3    1   17 1   
     4    1   24 1   
     5    2    3 1   
     6    2   18 1   
     7    2   19 1   
     8    3    4 1   
     9    3   20 1   
    10    3   21 1   
    11    4    5 1   
    12    5    6 ar  
    13    5   11 ar  
    14    6    7 1   
    15    6    8 ar  
    16    8    9 ar  
    17    8   22 1   
    18    9   10 ar  
    19    9   13 1   
    20   10   11 ar  
    21   10   23 1   
    22   11   12 1   
    23   13   14 1   
    24   13   15 1   
@<TRIPOS>SUBSTRUCTURE
     1 L1O         1 TEMP              0 ****  ****    0 ROOT
