@<TRIPOS>MOLECULE
L1O
   23    21     1     0     0
SMALL
bcc


@<TRIPOS>ATOM
      1 N1         -1.6200   -1.3580   -3.8770 n3        1 L1O     -0.336000
      2 C2         -1.2690   -0.0850   -3.2030 c3        1 L1O     -0.094000
      3 C3         -0.6280   -0.3940   -1.8540 c3        1 L1O     -0.063000
      4 O4         -0.3420    0.8030   -1.1890 os        1 L1O     -0.211000
      5 C5          0.1220    0.6280    0.1640 c2        1 L1O      0.019000
      6 C6         -0.7880    0.5830    1.2070 c2        1 L1O     -0.084000
      7 CL7        -2.5070    0.8850    0.8940 cl        1 L1O     -0.048000
      8 C8         -0.3380    0.4370    2.5130 c1        1 L1O     -0.093000
      9 C9          1.0170    0.3370    2.7720 c1        1 L1O     -0.096000
     10 C10         1.9280    0.3820    1.7290 c1        1 L1O     -0.093000
     11 C11         1.4810    0.5270    0.4240 c1        1 L1O     -0.084000
     12 CL12        2.6280    0.4360   -0.9130 cl        1 L1O     -0.048000
     13 C13         1.5140    0.2620    4.2160 c2        1 L1O      0.361000
     14 O14         1.8210    1.3250    4.8360 o         1 L1O     -0.552000
     15 O15         1.6170   -0.8600    4.7930 o         1 L1O     -0.552000
     16 H1N1       -1.9250   -1.9740   -3.2390 hn        1 L1O      0.136000
     17 H1N2       -0.8640   -1.7030   -4.3070 hn        1 L1O      0.136000
     18 H2C1       -0.6280    0.4240   -3.7660 h1        1 L1O      0.104000
     19 H2C2       -2.0900    0.4580   -3.0640 h1        1 L1O      0.104000
     20 H3C1       -1.2430   -0.9290   -1.3150 h1        1 L1O      0.074000
     21 H3C2        0.2050   -0.8960   -1.9950 h1        1 L1O      0.074000
     22 H8         -0.9830    0.4660    3.2630 ha        1 L1O      0.175000
     23 H10         2.8940    0.2460    1.9090 ha        1 L1O      0.175000
@<TRIPOS>BOND
     1    1    2 1   
     2    1   16 1   
     3    1   17 1   
     4    2    3 1   
     5    2   18 1   
     6    2   19 1   
     7    3    4 1   
     8    3   20 1   
     9    3   21 1   
    10    4    5 1   
    11    5    6 1   
    12    5   11 1   
    13    6    7 1   
    14    6    8 1   
    15    8   22 1   
    16    9   10 1   
    17    9   13 1   
    18   10   23 1   
    19   11   12 1   
    20   13   14 1   
    21   13   15 1   
@<TRIPOS>SUBSTRUCTURE
     1 L1O         1 TEMP              0 ****  ****    0 ROOT
