@<TRIPOS>MOLECULE
L1O
   24    24     1     0     0
SMALL
bcc


@<TRIPOS>ATOM
      1 N1          0.3770   -0.0840    1.3130 n4        1 L1O     -0.870600
      2 C2          1.7590    0.3210    0.9550 c3        1 L1O      0.060800
      3 C3          2.5310   -0.8020    0.2520 c3        1 L1O      0.099400
      4 O4          2.4340   -2.0350    0.9540 os        1 L1O     -0.322900
      5 C5          3.0110   -2.0190    2.2260 ca        1 L1O      0.011100
      6 C6          2.1660   -2.1960    3.3400 ca        1 L1O     -0.022600
      7 CL7         0.4730   -2.4610    3.1310 cl        1 L1O     -0.102900
      8 C8          2.6800   -2.1950    4.6330 ca        1 L1O     -0.073500
      9 C9          4.0530   -2.0070    4.8290 ca        1 L1O     -0.107600
     10 C10         4.9090   -1.9030    3.7340 ca        1 L1O     -0.073500
     11 C11         4.3960   -1.9180    2.4310 ca        1 L1O     -0.022600
     12 CL12        5.4800   -1.8130    1.1220 cl        1 L1O     -0.102900
     13 C13         4.5990   -1.8910    6.2660 c         1 L1O      0.916200
     14 O14         3.7420   -1.9050    7.1850 o         1 L1O     -0.786300
     15 O15         5.8430   -1.7680    6.3820 o         1 L1O     -0.786300
     16 H1N1       -0.1640   -0.2790    0.4710 hn        1 L1O      0.458467
     17 H1N2        0.4190   -0.9770    1.9020 hn        1 L1O      0.458467
     18 H2C1        2.2940    0.5890    1.9150 hx        1 L1O      0.111200
     19 H2C2        1.7180    1.2260    0.2880 hx        1 L1O      0.111200
     20 H3C1        2.0990   -1.0390   -0.7580 h1        1 L1O      0.094700
     21 H3C2        3.5990   -0.4700    0.1470 h1        1 L1O      0.094700
     22 H8          2.0420   -2.3310    5.5260 ha        1 L1O      0.197000
     23 H10         5.9940   -1.8080    3.9290 ha        1 L1O      0.197000
     24 H13        -0.0800    0.6520    1.8510 hn        1 L1O      0.458467
@<TRIPOS>BOND
     1    1    2 1   
     2    1   16 1   
     3    1   17 1   
     4    1   24 1   
     5    2    3 1   
     6    2   18 1   
     7    2   19 1   
     8    3    4 1   
     9    3   20 1   
    10    3   21 1   
    11    4    5 1   
    12    5    6 ar  
    13    5   11 ar  
    14    6    7 1   
    15    6    8 ar  
    16    8    9 ar  
    17    8   22 1   
    18    9   10 ar  
    19    9   13 1   
    20   10   11 ar  
    21   10   23 1   
    22   11   12 1   
    23   13   14 1   
    24   13   15 1   
@<TRIPOS>SUBSTRUCTURE
     1 L1O         1 TEMP              0 ****  ****    0 ROOT
