@<TRIPOS>MOLECULE
L1R
   46    47     1     0     0
SMALL
bcc


@<TRIPOS>ATOM
      1 C1          0.2360    0.4270    0.1110 c3        1 L1R     -0.111100
      2 C2          1.5870    0.1200   -0.5040 c3        1 L1R      0.138100
      3 C3          2.7200    0.6870    0.3360 c3        1 L1R     -0.111100
      4 O4          1.8170   -1.3040   -0.5140 os        1 L1R     -0.326900
      5 C5          1.2600   -2.0440   -1.5300 ca        1 L1R      0.165100
      6 C6          1.6070   -3.4100   -1.4990 ca        1 L1R     -0.171000
      7 C7          1.1030   -4.2530   -2.4790 ca        1 L1R     -0.072000
      8 C8          0.2700   -3.7720   -3.4860 ca        1 L1R     -0.214000
      9 C9         -0.0810   -2.4040   -3.5150 ca        1 L1R      0.080600
     10 N10        -0.9490   -1.9650   -4.5390 ns        1 L1R     -0.454100
     11 C11        -1.1750   -0.6620   -4.9280 c         1 L1R      0.671700
     12 O12        -0.6590    0.3370   -4.3950 o         1 L1R     -0.565100
     13 C13        -2.1160   -0.4720   -6.0860 ca        1 L1R     -0.108600
     14 C14        -1.7800    0.5070   -7.0300 ca        1 L1R     -0.068500
     15 C15        -2.6390    0.7510   -8.1000 ca        1 L1R      0.012900
     16 Cl1        -2.2100    1.9480   -9.2420 cl        1 L1R     -0.072900
     17 C17        -3.8420    0.0310   -8.2220 ca        1 L1R      0.077100
     18 O18        -4.7600    0.3820   -9.2060 os        1 L1R     -0.356900
     19 C19        -4.5550   -0.2840  -10.4610 c3        1 L1R      0.100400
     20 C20        -5.1400    0.6540  -11.5220 c3        1 L1R      0.093800
     21 N21        -4.5620    2.0260  -11.4370 nz        1 L1R     -0.837600
     22 C22        -4.1720   -0.9510   -7.2730 ca        1 L1R      0.012900
     23 Cl2        -5.6030   -1.8450   -7.3940 cl        1 L1R     -0.072900
     24 C24        -3.3040   -1.1930   -6.1990 ca        1 L1R     -0.068500
     25 C25         0.4160   -1.5350   -2.5240 ca        1 L1R     -0.227000
     26 H1C1        0.1900    0.0380    1.1570 hc        1 L1R      0.050033
     27 H1C2       -0.5820   -0.0500   -0.4780 hc        1 L1R      0.050033
     28 H1C3        0.0760    1.5310    0.1290 hc        1 L1R      0.050033
     29 H2          1.6520    0.5230   -1.5520 h1        1 L1R      0.054700
     30 H3C1        2.7020    0.2460    1.3610 hc        1 L1R      0.050033
     31 H3C2        2.6000    1.7930    0.4100 hc        1 L1R      0.050033
     32 H3C3        3.7040    0.4510   -0.1340 hc        1 L1R      0.050033
     33 H6          2.2680   -3.7830   -0.7040 ha        1 L1R      0.159000
     34 H7          1.3670   -5.3220   -2.4640 ha        1 L1R      0.142000
     35 H25         0.1430   -0.4690   -2.5300 ha        1 L1R      0.173000
     36 H8         -0.1070   -4.4700   -4.2470 ha        1 L1R      0.129000
     37 H10        -1.3500   -2.6890   -5.0940 hn        1 L1R      0.319500
     38 H14        -0.8470    1.0860   -6.9030 ha        1 L1R      0.185500
     39 H24        -3.5840   -1.9430   -5.4380 ha        1 L1R      0.185500
     40 H191       -5.1390   -1.2430  -10.4610 h1        1 L1R      0.093200
     41 H192       -3.4680   -0.4920  -10.6390 h1        1 L1R      0.093200
     42 H201       -6.2550    0.7450  -11.3650 hx        1 L1R      0.122700
     43 H202       -4.9390    0.2340  -12.5480 hx        1 L1R      0.122700
     44 H211       -3.5690    2.0110  -11.6940 hn        1 L1R      0.467800
     45 H212       -5.0660    2.6660  -12.0560 hn        1 L1R      0.467800
     46 H213       -4.6350    2.3560  -10.4610 hn        1 L1R      0.467800
@<TRIPOS>BOND
     1    1    2 1   
     2    1   26 1   
     3    1   27 1   
     4    1   28 1   
     5    2    3 1   
     6    2    4 1   
     7    2   29 1   
     8    3   30 1   
     9    3   31 1   
    10    3   32 1   
    11    4    5 1   
    12    5    6 ar  
    13    5   25 ar  
    14    6    7 ar  
    15    6   33 1   
    16    7    8 ar  
    17    7   34 1   
    18    8    9 ar  
    19    8   36 1   
    20    9   10 1   
    21    9   25 ar  
    22   10   11 1   
    23   10   37 1   
    24   11   12 2   
    25   11   13 1   
    26   13   14 ar  
    27   13   24 ar  
    28   14   15 ar  
    29   14   38 1   
    30   15   16 1   
    31   15   17 ar  
    32   17   18 1   
    33   17   22 ar  
    34   18   19 1   
    35   19   20 1   
    36   19   40 1   
    37   19   41 1   
    38   20   21 1   
    39   20   42 1   
    40   20   43 1   
    41   21   44 1   
    42   21   45 1   
    43   21   46 1   
    44   22   23 1   
    45   22   24 ar  
    46   24   39 1   
    47   25   35 1   
@<TRIPOS>SUBSTRUCTURE
     1 L1R         1 TEMP              0 ****  ****    0 ROOT
