@<TRIPOS>MOLECULE
L1R
   45    42     1     0     0
SMALL
bcc


@<TRIPOS>ATOM
      1 C1         -1.9470   -7.1390    2.6700 c3        1 L1R     -0.229000
      2 C2         -1.8250   -6.0500    1.5630 c3        1 L1R      0.030000
      3 C3         -3.0120   -6.1060    0.6950 c3        1 L1R     -0.229000
      4 O4         -1.7520   -4.7700    2.1700 os        1 L1R     -0.218000
      5 C5         -0.5860   -3.9830    1.7760 c2        1 L1R      0.115000
      6 C6          0.6920   -4.3860    2.1680 c1        1 L1R     -0.229000
      7 C7          1.7760   -3.5660    1.9380 c1        1 L1R     -0.130000
      8 C8          1.5990   -2.3390    1.3160 c1        1 L1R     -0.130000
      9 C9          0.3220   -1.9310    0.9210 c1        1 L1R      0.105000
     10 N10         0.1310   -0.6070    0.2730 n         1 L1R     -0.320000
     11 C11         1.2400    0.3110    0.1630 c2        1 L1R      0.355000
     12 O12         2.2980    0.0100    0.5870 o         1 L1R     -0.335000
     13 C13         1.0500    1.6620   -0.5210 c2        1 L1R     -0.118000
     14 C14         0.0550    2.5440   -0.0740 c2        1 L1R     -0.083000
     15 C15        -0.1530    3.7340   -0.7380 c1        1 L1R     -0.078000
     16 CL1        -1.4790    4.8130   -0.2330 cl        1 L1R      0.019500
     17 C17         0.6340    4.0620   -1.8650 c2        1 L1R      0.085000
     18 O18         0.3810    5.2220   -2.5690 os        1 L1R     -0.217000
     19 C19         0.6270    6.4110   -1.8280 c3        1 L1R     -0.021000
     20 C20         0.8760    7.5620   -2.7960 c3        1 L1R     -0.083000
     21 N21         0.3700    8.7880   -2.2420 n3        1 L1R     -0.348000
     22 C22         1.6280    3.1760   -2.3080 c1        1 L1R     -0.078000
     23 CL2         2.4860    3.5070   -3.7620 cl        1 L1R      0.019500
     24 C24         1.8380    1.9940   -1.6510 c2        1 L1R     -0.083000
     25 C25        -0.7620   -2.7470    1.1490 c2        1 L1R     -0.220000
     26 H1C1       -2.8220   -7.0420    3.1280 hc        1 L1R      0.087500
     27 H1C2       -1.2640   -7.0340    3.2860 hc        1 L1R      0.087500
     28 H1C3       -1.8890   -8.0000    2.2770 hc        1 L1R      0.087500
     29 H2         -1.0230   -6.2080    1.0330 h1        1 L1R      0.089000
     30 H3C1       -3.8220   -6.0550    1.2540 hc        1 L1R      0.087500
     31 H3C2       -3.0140   -6.9360    0.2000 hc        1 L1R      0.087500
     32 H3C3       -2.9990   -5.3670    0.0820 hc        1 L1R      0.087500
     33 H6          0.8190   -5.2570    2.6130 ha        1 L1R      0.139000
     34 H7          2.7110   -3.8610    2.2260 ha        1 L1R      0.153500
     35 H25        -1.6300   -2.4680    0.8840 ha        1 L1R      0.147000
     36 H8          2.3240   -1.7940    1.1650 ha        1 L1R      0.153500
     37 H10        -0.7070   -0.3550   -0.0250 hn        1 L1R      0.236000
     38 H14        -0.4260    2.3630    0.7870 ha        1 L1R      0.166000
     39 H24         2.5580    1.3540   -1.9740 ha        1 L1R      0.166000
     40 H191       -0.1630    6.6190   -1.2580 h1        1 L1R      0.089500
     41 H192        1.4120    6.2840   -1.2630 h1        1 L1R      0.089500
     42 H201        1.8350    7.6500   -2.9570 h1        1 L1R      0.083000
     43 H202        0.4130    7.3740   -3.6550 h1        1 L1R      0.083000
     44 H211        0.9850    9.1370   -1.6520 hn        1 L1R      0.149000
     45 H212        0.2160    9.4220   -2.9560 hn        1 L1R      0.149000
@<TRIPOS>BOND
     1    1    2 1   
     2    1   26 1   
     3    1   27 1   
     4    1   28 1   
     5    2    3 1   
     6    2    4 1   
     7    2   29 1   
     8    3   30 1   
     9    3   31 1   
    10    3   32 1   
    11    4    5 1   
    12    5    6 1   
    13    5   25 1   
    14    6   33 1   
    15    7    8 1   
    16    7   34 1   
    17    8   36 1   
    18    9   10 1   
    19    9   25 1   
    20   10   11 1   
    21   10   37 1   
    22   11   12 1   
    23   11   13 1   
    24   13   14 1   
    25   13   24 1   
    26   14   15 1   
    27   14   38 1   
    28   15   17 1   
    29   17   18 1   
    30   17   22 1   
    31   18   19 1   
    32   19   20 1   
    33   19   40 1   
    34   19   41 1   
    35   20   21 1   
    36   20   42 1   
    37   20   43 1   
    38   21   44 1   
    39   21   45 1   
    40   22   24 1   
    41   24   39 1   
    42   25   35 1   
@<TRIPOS>SUBSTRUCTURE
     1 L1R         1 TEMP              0 ****  ****    0 ROOT
