@<TRIPOS>MOLECULE
L1R
   45    46     1     0     0
SMALL
bcc


@<TRIPOS>ATOM
      1 C1         21.4250   10.9000   29.3670 c3        1 L1R     -0.110100
      2 C2         21.9740   12.2870   29.0970 c3        1 L1R      0.138100
      3 C3         20.8830   13.2280   28.6140 c3        1 L1R     -0.110100
      4 O4         22.4550   12.8770   30.3210 os        1 L1R     -0.333900
      5 C5         23.7330   12.5630   30.7300 ca        1 L1R      0.161100
      6 C6         24.1680   13.2880   31.8560 ca        1 L1R     -0.185000
      7 C7         25.4400   13.0460   32.3560 ca        1 L1R     -0.073000
      8 C8         26.2820   12.1110   31.7640 ca        1 L1R     -0.221000
      9 C9         25.8470   11.3800   30.6330 ca        1 L1R      0.099600
     10 N10        26.7270   10.4310   30.0800 n         1 L1R     -0.466100
     11 C11        26.5960    9.7650   28.8720 c         1 L1R      0.681700
     12 O12        25.6360    9.9240   28.0960 o         1 L1R     -0.578100
     13 C13        27.7080    8.8250   28.5250 ca        1 L1R     -0.138600
     14 C14        28.1620    8.8120   27.2030 ca        1 L1R     -0.082000
     15 C15        29.1890    7.9410   26.8280 ca        1 L1R     -0.000100
     16 CL1        29.7250    7.9610   25.2180 cl        1 L1R     -0.059400
     17 C17        29.7520    7.0620   27.7750 ca        1 L1R      0.128100
     18 O18        30.6760    6.1120   27.3790 os        1 L1R     -0.333900
     19 C19        32.0410    6.5600   27.4870 c3        1 L1R      0.081400
     20 C20        32.9080    5.3760   27.0340 c3        1 L1R      0.158800
     21 N21        32.7490    4.9350   25.6770 n3        1 L1R     -0.900800
     22 C22        29.2810    7.0810   29.1020 ca        1 L1R     -0.000100
     23 CL2        29.9280    6.0450   30.2790 cl        1 L1R     -0.059400
     24 C24        28.2570    7.9590   29.4720 ca        1 L1R     -0.082000
     25 C25        24.5540   11.6090   30.1190 ca        1 L1R     -0.233000
     26 H1C1       21.0460   10.4560   28.4160 hc        1 L1R      0.047700
     27 H1C2       22.2200   10.2380   29.7860 hc        1 L1R      0.047700
     28 H1C3       20.5870   10.9520   30.1030 hc        1 L1R      0.047700
     29 H2         22.8040   12.2470   28.3390 h1        1 L1R      0.058700
     30 H3C1       20.0820   13.3230   29.3850 hc        1 L1R      0.047700
     31 H3C2       21.3080   14.2410   28.4180 hc        1 L1R      0.047700
     32 H3C3       20.4420   12.8240   27.6730 hc        1 L1R      0.047700
     33 H6         23.4990   14.0270   32.3170 ha        1 L1R      0.151000
     34 H7         25.7910   13.6060   33.2370 ha        1 L1R      0.134000
     35 H25        24.1960   11.0400   29.2470 ha        1 L1R      0.177000
     36 H8         27.2850   11.9510   32.1860 ha        1 L1R      0.129000
     37 H10        27.5730   10.2890   30.5880 hn        1 L1R      0.320500
     38 H14        27.6950    9.4830   26.4620 ha        1 L1R      0.166500
     39 H24        27.8790    7.9430   30.5070 ha        1 L1R      0.166500
     40 H191       32.1850    7.4580   26.8330 h1        1 L1R      0.044700
     41 H192       32.2630    6.8230   28.5520 h1        1 L1R      0.044700
     42 H201       33.9810    5.6860   27.1850 h1        1 L1R      0.064700
     43 H202       32.6920    4.5030   27.7120 h1        1 L1R      0.064700
     44 H211       31.8310    4.5620   25.5310 hn        1 L1R      0.353800
     45 H212       32.8990    5.6860   25.0330 hn        1 L1R      0.353800
@<TRIPOS>BOND
     1    1    2 1   
     2    1   26 1   
     3    1   27 1   
     4    1   28 1   
     5    2    3 1   
     6    2    4 1   
     7    2   29 1   
     8    3   30 1   
     9    3   31 1   
    10    3   32 1   
    11    4    5 1   
    12    5    6 ar  
    13    5   25 ar  
    14    6    7 ar  
    15    6   33 1   
    16    7    8 ar  
    17    7   34 1   
    18    8    9 ar  
    19    8   36 1   
    20    9   10 1   
    21    9   25 ar  
    22   10   11 1   
    23   10   37 1   
    24   11   12 2   
    25   11   13 1   
    26   13   14 ar  
    27   13   24 ar  
    28   14   15 ar  
    29   14   38 1   
    30   15   16 1   
    31   15   17 ar  
    32   17   18 1   
    33   17   22 ar  
    34   18   19 1   
    35   19   20 1   
    36   19   40 1   
    37   19   41 1   
    38   20   21 1   
    39   20   42 1   
    40   20   43 1   
    41   21   44 1   
    42   21   45 1   
    43   22   23 1   
    44   22   24 ar  
    45   24   39 1   
    46   25   35 1   
@<TRIPOS>SUBSTRUCTURE
     1 L1R         1 TEMP              0 ****  ****    0 ROOT
