@<TRIPOS>MOLECULE
L1R
   47    48     1     0     0
SMALL
bcc


@<TRIPOS>ATOM
      1 C1          1.2170   -0.5120    0.5320 c3        1 L1R     -0.116600
      2 C2          1.9920   -0.3090   -0.7520 c3        1 L1R      0.141100
      3 C3          3.4600   -0.0310   -0.4850 c3        1 L1R     -0.116600
      4 O4          2.0010   -1.5310   -1.5340 os        1 L1R     -0.305900
      5 C5          0.8680   -1.9060   -2.1880 ca        1 L1R      0.191100
      6 C6          0.9470   -3.1810   -2.8070 ca        1 L1R     -0.102000
      7 C7         -0.1300   -3.6640   -3.5290 ca        1 L1R     -0.076000
      8 C8         -1.3060   -2.9140   -3.6620 ca        1 L1R     -0.147000
      9 C9         -1.3740   -1.6610   -3.0460 ca        1 L1R     -0.025400
     10 N10        -2.6130   -0.8730   -3.1360 n4        1 L1R     -0.539200
     11 C11        -2.4150    0.3740   -3.9740 c         1 L1R      0.569700
     12 O12        -2.0030    1.3550   -3.3740 o         1 L1R     -0.389100
     13 C13        -2.7260    0.2800   -5.4120 ca        1 L1R     -0.149600
     14 C14        -1.8530    0.9270   -6.2960 ca        1 L1R     -0.062000
     15 C15        -2.1380    0.9460   -7.6660 ca        1 L1R      0.015400
     16 CL1        -1.0630    1.7300   -8.7080 cl        1 L1R     -0.008900
     17 C17        -3.3130    0.3340   -8.1420 ca        1 L1R      0.130100
     18 O18        -3.6970    0.5130   -9.4640 os        1 L1R     -0.361900
     19 C19        -3.2230   -0.4950  -10.3720 c3        1 L1R      0.102400
     20 C20        -4.0790   -0.3540  -11.6340 c3        1 L1R      0.097800
     21 N21        -4.0120    1.0070  -12.2360 n4        1 L1R     -0.834600
     22 C22        -4.1770   -0.3330   -7.2500 ca        1 L1R      0.015400
     23 CL2        -5.5810   -1.1010   -7.7890 cl        1 L1R     -0.008900
     24 C24        -3.8820   -0.3520   -5.8820 ca        1 L1R     -0.062000
     25 C25        -0.2970   -1.1370   -2.3050 ca        1 L1R     -0.213000
     26 H1C1        1.2550    0.4230    1.1410 hc        1 L1R      0.062033
     27 H1C2        1.6630   -1.3450    1.1280 hc        1 L1R      0.062033
     28 H1C3        0.1500   -0.7630    0.3190 hc        1 L1R      0.062033
     29 H2          1.5470    0.5160   -1.3730 h1        1 L1R      0.043700
     30 H3C1        4.0130    0.0960   -1.4460 hc        1 L1R      0.062033
     31 H3C2        3.9220   -0.8750    0.0820 hc        1 L1R      0.062033
     32 H3C3        3.5460    0.9050    0.1170 hc        1 L1R      0.062033
     33 H6          1.8740   -3.7690   -2.6930 ha        1 L1R      0.191000
     34 H7         -0.0730   -4.6590   -4.0030 ha        1 L1R      0.174000
     35 H25        -0.3680   -0.1490   -1.8220 ha        1 L1R      0.170000
     36 H8         -2.1490   -3.3340   -4.2310 ha        1 L1R      0.148000
     37 H10        -2.8800   -0.5910   -2.1800 hn        1 L1R      0.467300
     38 H14        -0.9480    1.4350   -5.9120 ha        1 L1R      0.179000
     39 H24        -4.5960   -0.8370   -5.1960 ha        1 L1R      0.179000
     40 H191       -2.1330   -0.3190  -10.5730 h1        1 L1R      0.094200
     41 H192       -3.3790   -1.5230   -9.9490 h1        1 L1R      0.094200
     42 H201       -3.7260   -1.1070  -12.3980 hx        1 L1R      0.131200
     43 H202       -5.1610   -0.5600  -11.3800 hx        1 L1R      0.131200
     44 H211       -3.0560    1.2190  -12.5430 hn        1 L1R      0.472133
     45 H212       -4.6430    1.0650  -13.0430 hn        1 L1R      0.472133
     46 H102       -3.3550   -1.4570   -3.5360 hn        1 L1R      0.467300
     47 H213       -4.2930    1.7060  -11.5350 hn        1 L1R      0.472133
@<TRIPOS>BOND
     1    1    2 1   
     2    1   26 1   
     3    1   27 1   
     4    1   28 1   
     5    2    3 1   
     6    2    4 1   
     7    2   29 1   
     8    3   30 1   
     9    3   31 1   
    10    3   32 1   
    11    4    5 1   
    12    5    6 ar  
    13    5   25 ar  
    14    6    7 ar  
    15    6   33 1   
    16    7    8 ar  
    17    7   34 1   
    18    8    9 ar  
    19    8   36 1   
    20    9   10 1   
    21    9   25 ar  
    22   10   11 1   
    23   10   37 1   
    24   10   46 1   
    25   11   12 2   
    26   11   13 1   
    27   13   14 ar  
    28   13   24 ar  
    29   14   15 ar  
    30   14   38 1   
    31   15   16 1   
    32   15   17 ar  
    33   17   18 1   
    34   17   22 ar  
    35   18   19 1   
    36   19   20 1   
    37   19   40 1   
    38   19   41 1   
    39   20   21 1   
    40   20   42 1   
    41   20   43 1   
    42   21   44 1   
    43   21   45 1   
    44   21   47 1   
    45   22   23 1   
    46   22   24 ar  
    47   24   39 1   
    48   25   35 1   
@<TRIPOS>SUBSTRUCTURE
     1 L1R         1 TEMP              0 ****  ****    0 ROOT
