@<TRIPOS>MOLECULE
L1R
   46    47     1     0     0
SMALL
bcc


@<TRIPOS>ATOM
      1 C1          0.2060    0.3990    0.1240 c3        1 L1R     -0.111100
      2 C2          1.5610    0.1020   -0.4850 c3        1 L1R      0.138100
      3 C3          2.6870    0.6680    0.3640 c3        1 L1R     -0.111100
      4 O4          1.7970   -1.3210   -0.5040 os        1 L1R     -0.326900
      5 C5          1.2500   -2.0570   -1.5280 ca        1 L1R      0.165100
      6 C6          1.6040   -3.4210   -1.5050 ca        1 L1R     -0.171000
      7 C7          1.1100   -4.2600   -2.4930 ca        1 L1R     -0.072000
      8 C8          0.2790   -3.7760   -3.5010 ca        1 L1R     -0.214000
      9 C9         -0.0780   -2.4090   -3.5230 ca        1 L1R      0.080600
     10 N10        -0.9440   -1.9680   -4.5480 n         1 L1R     -0.454100
     11 C11        -1.1770   -0.6630   -4.9270 c         1 L1R      0.671700
     12 O12        -0.6700    0.3350   -4.3840 o         1 L1R     -0.565100
     13 C13        -2.1130   -0.4710   -6.0890 ca        1 L1R     -0.108600
     14 C14        -1.7790    0.5190   -7.0230 ca        1 L1R     -0.068500
     15 C15        -2.6340    0.7660   -8.0960 ca        1 L1R      0.012900
     16 CL1        -2.2080    1.9760   -9.2240 cl        1 L1R     -0.072900
     17 C17        -3.8310    0.0380   -8.2300 ca        1 L1R      0.077100
     18 O18        -4.7460    0.3910   -9.2160 os        1 L1R     -0.356900
     19 C19        -4.5280   -0.2610  -10.4760 c3        1 L1R      0.100400
     20 C20        -5.1150    0.6820  -11.5320 c3        1 L1R      0.093800
     21 N21        -4.5480    2.0580  -11.4310 n4        1 L1R     -0.837600
     22 C22        -4.1580   -0.9550   -7.2920 ca        1 L1R      0.012900
     23 CL2        -5.5810   -1.8590   -7.4290 cl        1 L1R     -0.072900
     24 C24        -3.2940   -1.2000   -6.2150 ca        1 L1R     -0.068500
     25 C25         0.4080   -1.5450   -2.5220 ca        1 L1R     -0.227000
     26 H1C1        0.1560    0.0030    1.1670 hc        1 L1R      0.050033
     27 H1C2       -0.6070   -0.0780   -0.4730 hc        1 L1R      0.050033
     28 H1C3        0.0410    1.5020    0.1480 hc        1 L1R      0.050033
     29 H2          1.6300    0.5110   -1.5310 h1        1 L1R      0.054700
     30 H3C1        2.6670    0.2200    1.3860 hc        1 L1R      0.050033
     31 H3C2        2.5620    1.7730    0.4450 hc        1 L1R      0.050033
     32 H3C3        3.6750    0.4400   -0.1030 hc        1 L1R      0.050033
     33 H6          2.2630   -3.7960   -0.7090 ha        1 L1R      0.159000
     34 H7          1.3800   -5.3280   -2.4850 ha        1 L1R      0.142000
     35 H25         0.1300   -0.4800   -2.5230 ha        1 L1R      0.173000
     36 H8         -0.0900   -4.4710   -4.2690 ha        1 L1R      0.129000
     37 H10        -1.3370   -2.6900   -5.1110 hn        1 L1R      0.319500
     38 H14        -0.8510    1.1040   -6.8860 ha        1 L1R      0.185500
     39 H24        -3.5730   -1.9580   -5.4630 ha        1 L1R      0.185500
     40 H191       -5.1040   -1.2250  -10.4880 h1        1 L1R      0.093200
     41 H192       -3.4390   -0.4590  -10.6500 h1        1 L1R      0.093200
     42 H201       -4.9050    0.2730  -12.5600 hx        1 L1R      0.122700
     43 H202       -6.2320    0.7620  -11.3800 hx        1 L1R      0.122700
     44 H211       -5.0540    2.6990  -12.0460 hn        1 L1R      0.467800
     45 H212       -4.6290    2.3780  -10.4520 hn        1 L1R      0.467800
     46 H213       -3.5540    2.0530  -11.6820 hn        1 L1R      0.467800
@<TRIPOS>BOND
     1    1    2 1   
     2    1   26 1   
     3    1   27 1   
     4    1   28 1   
     5    2    3 1   
     6    2    4 1   
     7    2   29 1   
     8    3   30 1   
     9    3   31 1   
    10    3   32 1   
    11    4    5 1   
    12    5    6 ar  
    13    5   25 ar  
    14    6    7 ar  
    15    6   33 1   
    16    7    8 ar  
    17    7   34 1   
    18    8    9 ar  
    19    8   36 1   
    20    9   10 1   
    21    9   25 ar  
    22   10   11 1   
    23   10   37 1   
    24   11   12 2   
    25   11   13 1   
    26   13   14 ar  
    27   13   24 ar  
    28   14   15 ar  
    29   14   38 1   
    30   15   16 1   
    31   15   17 ar  
    32   17   18 1   
    33   17   22 ar  
    34   18   19 1   
    35   19   20 1   
    36   19   40 1   
    37   19   41 1   
    38   20   21 1   
    39   20   42 1   
    40   20   43 1   
    41   21   44 1   
    42   21   45 1   
    43   21   46 1   
    44   22   23 1   
    45   22   24 ar  
    46   24   39 1   
    47   25   35 1   
@<TRIPOS>SUBSTRUCTURE
     1 L1R         1 TEMP              0 ****  ****    0 ROOT
