@<TRIPOS>MOLECULE
L1X
   63    65     1     0     0
SMALL
bcc


@<TRIPOS>ATOM
      1 C1          0.3610   -0.2120    0.4850 ca        1 L1X     -0.098500
      2 C2         -0.1740    1.1510    2.4270 ca        1 L1X     -0.098500
      3 C3         -4.6720    6.1830    0.4840 c3        1 L1X     -0.180000
      4 C4         -5.4130    7.4280    0.5420 c1        1 L1X     -0.152000
      5 C5          1.7130   -0.1160    0.7850 ca        1 L1X     -0.158500
      6 C6          1.1790    1.2550    2.7270 ca        1 L1X     -0.158500
      7 C7         -5.5470    9.9340    1.1870 c2        1 L1X      0.009000
      8 C8         -6.6940   11.9090   -0.6190 c2        1 L1X     -0.267000
      9 C9         -6.8330    4.9510    0.7210 c2        1 L1X     -0.284000
     10 C10        -4.1390   10.2070    3.1200 c1        1 L1X     -0.059000
     11 C11        -9.7330    9.5630   -0.6430 c3        1 L1X     -0.176000
     12 C12        -8.8860   10.7880   -2.4010 c2        1 L1X     -0.197000
     13 C13        -5.3860    9.9020    2.5230 c2        1 L1X     -0.149000
     14 C14        -7.3390   10.6340   -0.3820 c2        1 L1X      0.038000
     15 C15        -8.5400   10.3790   -1.1370 c2        1 L1X     -0.079000
     16 C16        -5.9070   12.5160    0.2640 c1        1 L1X      0.057000
     17 C17        -0.6030    0.4150    1.3040 ca        1 L1X      0.029000
     18 C18        -5.4630    4.8990    0.5870 c2        1 L1X      0.109000
     19 C19        -6.7960    7.4050    0.7020 c2        1 L1X     -0.113000
     20 C20        -6.8240    9.7390    0.5120 c2        1 L1X      0.027000
     21 C21         2.1300    0.6200    1.9100 ca        1 L1X      0.094000
     22 C22        -7.5200    6.2110    0.7700 c2        1 L1X      0.237000
     23 C23        -4.6890    0.1090    0.1510 c2        1 L1X     -0.009000
     24 C24        -3.8320   -1.0870    0.0340 c3        1 L1X     -0.132000
     25 C25        -4.2160    1.2970    0.5760 c2        1 L1X     -0.213000
     26 C26        -2.5400   -0.9830    0.7990 c2        1 L1X      0.013000
     27 C27        -2.7850    1.4620    0.9390 c2        1 L1X      0.367000
     28 C28        -5.1890    2.4270    0.7010 c2        1 L1X      0.361000
     29 C29        -1.9600   -2.1070    1.2630 c2        1 L1X     -0.254000
     30 N31        -3.1170   10.4950    3.6000 n1        1 L1X     -0.116000
     31 N32       -10.6760    9.6200   -1.7970 n2        1 L1X     -0.058000
     32 N33       -10.2060   10.2770   -2.7290 n2        1 L1X     -0.028000
     33 N34        -5.3540   13.1850    1.1210 n2        1 L1X     -0.227000
     34 N35        -1.9890    0.3100    0.9810 n         1 L1X     -0.231000
     35 N36        -4.7220    3.7260    0.5170 ns        1 L1X     -0.303000
     36 O38        -6.3890    2.1740    0.9170 o         1 L1X     -0.335000
     37 O39        -7.5460    8.5810    0.8060 os        1 L1X     -0.156000
     38 F40         3.4480    0.7160    2.2030 f         1 L1X     -0.100000
     39 F41        -8.8580    6.1960    0.8800 f         1 L1X     -0.069000
     40 H1          0.0470   -0.7910   -0.3980 ha        1 L1X      0.152000
     41 H2         -0.9090    1.6740    3.0610 ha        1 L1X      0.152000
     42 H3         -4.0920    6.1950   -0.4870 hc        1 L1X      0.169500
     43 H4         -3.9040    6.2210    1.3160 hc        1 L1X      0.169500
     44 H5          2.4620   -0.6060    0.1470 ha        1 L1X      0.155500
     45 H6          1.5110    1.8350    3.6010 ha        1 L1X      0.155500
     46 H7         -4.7030   10.1580    0.5080 ha        1 L1X      0.150000
     47 H8         -6.8940   12.4010   -1.5840 ha        1 L1X      0.162000
     48 H9         -7.4560    4.0430    0.7990 ha        1 L1X      0.192000
     49 H10        -6.2120    9.6670    3.2160 ha        1 L1X      0.163000
     50 H11        -9.4580    8.4980   -0.4170 h1        1 L1X      0.159500
     51 H12        -8.3460   11.3880   -3.1330 h4        1 L1X      0.179000
     52 H13        -5.7530   -0.0110   -0.1280 ha        1 L1X      0.170000
     53 H14        -3.5990   -1.2610   -1.0560 hc        1 L1X      0.130500
     54 H15        -4.4000   -1.9880    0.3980 hc        1 L1X      0.130500
     55 H16        -2.4200   -3.0880    1.0930 ha        1 L1X      0.136000
     56 H17        -1.0130   -2.1170    1.8160 ha        1 L1X      0.136000
     57 H18        -4.3600   13.1480    1.3730 hn        1 L1X      0.283000
     58 H19        -1.8240   12.3180    1.6640 ha        1 L1X      0.047500
     59 H20        -2.4470   13.3410    3.0530 ha        1 L1X      0.047500
     60 H21       -10.2070   10.0170    0.2640 h1        1 L1X      0.159500
     61 H22        -3.7280    3.8450    0.4390 hn        1 L1X      0.269000
     62 O37        -2.2750    2.5750    1.1830 o         1 L1X     -0.363000
     63 C30        -2.6710   12.8770    2.0830 c1        1 L1X     -0.046000
@<TRIPOS>BOND
     1    1    5 1   
     2    1   17 1   
     3    1   40 1   
     4    2    6 1   
     5    2   17 1   
     6    2   41 1   
     7    3    4 1   
     8    3   18 1   
     9    3   42 1   
    10    3   43 1   
    11    4   19 1   
    12    5   21 1   
    13    5   44 1   
    14    6   21 1   
    15    6   45 1   
    16    7   13 1   
    17    7   20 1   
    18    7   46 1   
    19    8   14 1   
    20    8   16 1   
    21    8   47 1   
    22    9   18 1   
    23    9   22 1   
    24    9   48 1   
    25   10   13 1   
    26   10   30 1   
    27   11   15 1   
    28   11   31 1   
    29   11   50 1   
    30   11   60 1   
    31   12   15 1   
    32   12   32 1   
    33   12   51 1   
    34   13   49 1   
    35   14   15 1   
    36   14   20 1   
    37   16   33 1   
    38   17   34 1   
    39   18   35 1   
    40   19   22 1   
    41   19   37 1   
    42   20   37 1   
    43   21   38 1   
    44   22   39 1   
    45   23   24 1   
    46   23   25 1   
    47   23   52 1   
    48   24   26 1   
    49   24   53 1   
    50   24   54 1   
    51   25   27 1   
    52   25   28 1   
    53   26   29 1   
    54   26   34 1   
    55   27   34 1   
    56   27   62 1   
    57   28   35 1   
    58   28   36 1   
    59   29   55 1   
    60   29   56 1   
    61   31   32 1   
    62   33   57 1   
    63   35   61 1   
    64   58   63 1   
    65   59   63 1   
@<TRIPOS>SUBSTRUCTURE
     1 L1X         1 TEMP              0 ****  ****    0 ROOT
