@<TRIPOS>MOLECULE
L1X
   64    68     1     0     0
SMALL
bcc


@<TRIPOS>ATOM
      1 C1         -1.2950   -1.1950    2.0560 ca        1 L1X     -0.096000
      2 C2         -2.0420    0.5910    3.5330 ca        1 L1X     -0.096000
      3 C3         -3.5170    6.7910   -0.4570 c3        1 L1X     -0.066000
      4 C4         -4.4130    7.8010    0.1750 cx        1 L1X     -0.127000
      5 C5         -0.8090   -1.8990    3.1490 ca        1 L1X     -0.152500
      6 C6         -1.5510   -0.1090    4.6280 ca        1 L1X     -0.152500
      7 C7         -5.2660    8.8860   -0.4980 cx        1 L1X     -0.048000
      8 C8         -7.7830   10.5350   -1.0670 c2        1 L1X     -0.221000
      9 C9         -3.7100    5.5290    1.7260 c2        1 L1X     -0.004000
     10 C10        -2.8810    9.7560   -0.3620 c1        1 L1X     -0.135000
     11 C11       -10.0230   10.2700    0.8110 c2        1 L1X     -0.071000
     12 C12        -9.1600    8.4610    1.8640 c2        1 L1X     -0.126000
     13 C13        -4.0450    9.2750    0.3100 cx        1 L1X     -0.043000
     14 C14        -7.6850    9.6000    0.0410 c2        1 L1X      0.151000
     15 C15        -8.8660    9.4540    0.8430 c2        1 L1X     -0.194000
     16 C16        -6.7880   11.2660   -1.5410 c1        1 L1X      0.029000
     17 C17        -1.9210    0.0570    2.2350 ca        1 L1X      0.004000
     18 C18        -3.0420    5.7960    0.5680 c2        1 L1X     -0.232000
     19 C19        -5.2860    7.2910    1.2670 c2        1 L1X      0.115000
     20 C20        -6.5380    8.9080    0.2610 c2        1 L1X     -0.099000
     21 C21        -0.9330   -1.3590    4.4440 ca        1 L1X      0.115000
     22 C22        -4.9430    6.2170    2.0420 c2        1 L1X     -0.028000
     23 C23        -2.8700   -0.4420   -2.3500 c1        1 L1X      0.272000
     24 C24        -2.3710   -0.2950   -1.1370 c2        1 L1X     -0.502000
     25 C25        -2.8040    2.7930   -0.3040 c3        1 L1X     -0.216000
     26 C26        -3.1060   -0.0230    0.1010 c2        1 L1X      0.040000
     27 C27        -2.2410    2.1100    0.9400 c2        1 L1X      0.326000
     28 C28        -1.9900    3.9780   -0.7310 c2        1 L1X      0.275000
     29 C29        -4.3430   -0.5220    0.3030 c2        1 L1X     -0.168000
     30 N31        -1.9290   10.1680   -0.8890 n1        1 L1X      0.003000
     31 N32       -10.8930    9.7490    1.7570 na        1 L1X     -0.148000
     32 N33       -10.3920    8.6790    2.3830 n2        1 L1X     -0.071000
     33 N34        -5.8620   11.8310   -2.1210 n2        1 L1X     -0.138000
     34 N35        -2.4370    0.7590    1.1000 n         1 L1X     -0.203000
     35 N36        -1.7940    5.0990    0.2630 n4        1 L1X     -0.047000
     36 O38        -1.4650    4.1420   -1.8230 o         1 L1X     -0.172000
     37 O39        -6.4670    7.9830    1.3550 os        1 L1X     -0.092000
     38 F40        -0.4580   -2.0420    5.5080 f         1 L1X     -0.084000
     39 F41        -5.6910    5.7600    3.0710 f         1 L1X     -0.067000
     40 H1         -1.1960   -1.6330    1.0500 ha        1 L1X      0.149500
     41 H2         -2.5090    1.5760    3.6920 ha        1 L1X      0.149500
     42 H3         -4.0780    6.2400   -1.2640 hc        1 L1X      0.120000
     43 H4         -2.6520    7.3160   -0.9500 hc        1 L1X      0.120000
     44 H5         -0.3240   -2.8780    3.0110 ha        1 L1X      0.166000
     45 H6         -1.6440    0.3090    5.6420 ha        1 L1X      0.166000
     46 H7         -5.3170    9.0550   -1.5860 hc        1 L1X      0.185000
     47 H8         -8.7760   10.6230   -1.5440 ha        1 L1X      0.177000
     48 H9         -3.3660    4.7700    2.4560 ha        1 L1X      0.180000
     49 H10        -4.1990    9.7660    1.3000 hc        1 L1X      0.177000
     50 H12        -8.5220    7.6420    2.2030 h4        1 L1X      0.195000
     51 H13        -3.8560    3.1240   -0.0720 hc        1 L1X      0.178500
     52 H14        -2.8440    2.0900   -1.1880 hc        1 L1X      0.178500
     53 H15        -1.2710   -0.4440   -1.0340 ha        1 L1X      0.214000
     54 H16        -4.8270   -1.1520   -0.4570 ha        1 L1X      0.151000
     55 H17        -4.9210   -0.3540    1.2220 ha        1 L1X      0.151000
     56 H21       -11.7980   10.0890    1.9940 hn        1 L1X      0.286000
     57 H22        -1.4030    4.6870    1.1350 hn        1 L1X      0.276500
     58 C30        -5.3650   13.1550   -1.9270 c3        1 L1X     -0.120000
     59 H362       -1.1220    5.7770   -0.1230 hn        1 L1X      0.276500
     60 O37        -1.6600    2.8130    1.8020 o         1 L1X     -0.414000
     61 H11       -10.2610   11.1470    0.2080 h4        1 L1X      0.187000
     62 H18        -5.5440   13.7290   -2.8780 h1        1 L1X      0.106667
     63 H19        -4.2570   13.0800   -1.7540 h1        1 L1X      0.106667
     64 H20        -5.8350   13.7090   -1.0710 h1        1 L1X      0.106667
@<TRIPOS>BOND
     1    1    5 1   
     2    1   17 1   
     3    1   40 1   
     4    2    6 1   
     5    2   17 1   
     6    2   41 1   
     7    3    4 1   
     8    3   18 1   
     9    3   42 1   
    10    3   43 1   
    11    4    7 1   
    12    4   13 1   
    13    4   19 1   
    14    5   21 1   
    15    5   44 1   
    16    6   21 1   
    17    6   45 1   
    18    7   13 1   
    19    7   20 1   
    20    7   46 1   
    21    8   14 1   
    22    8   16 1   
    23    8   47 1   
    24    9   18 1   
    25    9   22 1   
    26    9   48 1   
    27   10   13 1   
    28   10   30 1   
    29   11   15 1   
    30   11   31 1   
    31   11   61 1   
    32   12   15 1   
    33   12   32 1   
    34   12   50 1   
    35   13   49 1   
    36   14   15 1   
    37   14   20 1   
    38   16   33 1   
    39   17   34 1   
    40   18   35 1   
    41   19   22 1   
    42   19   37 1   
    43   20   37 1   
    44   21   38 1   
    45   22   39 1   
    46   23   24 1   
    47   24   26 1   
    48   24   53 1   
    49   25   27 1   
    50   25   28 1   
    51   25   51 1   
    52   25   52 1   
    53   26   29 1   
    54   26   34 1   
    55   27   34 1   
    56   27   60 1   
    57   28   35 1   
    58   28   36 1   
    59   29   54 1   
    60   29   55 1   
    61   31   32 1   
    62   31   56 1   
    63   33   58 1   
    64   35   57 1   
    65   35   59 1   
    66   58   62 1   
    67   58   63 1   
    68   58   64 1   
@<TRIPOS>SUBSTRUCTURE
     1 L1X         1 TEMP              0 ****  ****    0 ROOT
