@<TRIPOS>MOLECULE
L1X
   63    66     1     0     0
SMALL
bcc


@<TRIPOS>ATOM
      1 C1          0.0220    0.3480    1.1380 ca        1 L1X     -0.084500
      2 C2         -1.1310   -0.1610    3.2210 ca        1 L1X     -0.084500
      3 C3         -4.4170    6.1460    0.1460 c3        1 L1X     -0.180000
      4 C4         -4.9480    7.4520   -0.2020 c1        1 L1X     -0.157000
      5 C5          1.2370    0.3680    1.8130 ca        1 L1X     -0.163000
      6 C6          0.0820   -0.1440    3.8980 ca        1 L1X     -0.163000
      7 C7         -4.7970   10.2830   -1.1230 c2        1 L1X      0.018000
      8 C8         -6.6770   11.7340    0.7080 c1        1 L1X     -0.355000
      9 C9         -6.2340    5.0970   -1.1980 c2        1 L1X     -0.278000
     10 C10        -2.9050   11.7890   -1.2730 c1        1 L1X     -0.080000
     11 C11        -9.1560   10.5160    1.5780 c3        1 L1X     -0.182000
     12 C12        -9.0780    9.0660   -0.2120 c2        1 L1X     -0.161000
     13 C13        -4.2550   11.5110   -0.9660 c2        1 L1X     -0.212000
     14 C14        -6.9960   10.5450    0.0990 c2        1 L1X      0.163000
     15 C15        -8.3080   10.0180    0.4070 c2        1 L1X     -0.094000
     16 C16        -6.2500   12.7000    1.4420 c2        1 L1X     -0.106000
     17 C17        -1.1730    0.0740    1.8320 ca        1 L1X      0.006000
     18 C18        -5.1250    4.9290   -0.4020 c2        1 L1X      0.096000
     19 C19        -6.0730    7.5510   -1.0210 c2        1 L1X     -0.102000
     20 C20        -6.1360    9.9040   -0.7780 c2        1 L1X     -0.077000
     21 C21         1.2730    0.1180    3.1970 ca        1 L1X      0.108000
     22 C22        -6.7230    6.4120   -1.5100 c2        1 L1X      0.214000
     23 C23        -4.8720    0.0160   -0.2130 c2        1 L1X      0.052000
     24 C24        -4.2550   -1.1850    0.2020 c2        1 L1X     -0.273000
     25 C25        -4.2850    1.2350    0.0350 c2        1 L1X     -0.267000
     26 C26        -3.0410   -1.1500    0.8640 c2        1 L1X      0.114000
     27 C27        -3.0030    1.3000    0.7340 c2        1 L1X      0.354000
     28 C28        -5.0030    2.4420   -0.4620 c2        1 L1X      0.371000
     29 C29        -2.3850   -2.4260    1.2840 c3        1 L1X     -0.203000
     30 N31        -1.7920   12.0430   -1.5080 n1        1 L1X     -0.104000
     31 N32       -10.3980    9.6940    1.4640 n2        1 L1X     -0.063000
     32 N33       -10.3380    8.9260    0.5010 n2        1 L1X     -0.027000
     33 N34        -5.3530   12.4180    2.5580 n3        1 L1X     -0.014000
     34 N35        -2.4240    0.0610    1.1350 n         1 L1X     -0.193000
     35 N36        -4.5850    3.7010   -0.0390 n         1 L1X     -0.309000
     36 O38        -5.9760    2.2970   -1.2290 o         1 L1X     -0.354000
     37 O39        -6.6130    8.7670   -1.4440 os        1 L1X     -0.156000
     38 F40         2.4540    0.1340    3.8560 f         1 L1X     -0.096000
     39 F41        -7.8170    6.5010   -2.2870 f         1 L1X     -0.075000
     40 H1          0.0020    0.5680    0.0580 ha        1 L1X      0.151500
     41 H2         -2.0580   -0.3530    3.7840 ha        1 L1X      0.151500
     42 H3         -3.3380    6.1390   -0.1960 hc        1 L1X      0.162000
     43 H4         -4.3960    6.0960    1.2750 hc        1 L1X      0.162000
     44 H5          2.1710    0.5850    1.2730 ha        1 L1X      0.158000
     45 H6          0.1180   -0.3260    4.9830 ha        1 L1X      0.158000
     46 H7         -4.1900    9.4580   -1.5450 ha        1 L1X      0.144000
     47 H8         -6.4390   13.7800    1.3520 h4        1 L1X      0.153000
     48 H9         -6.7910    4.2470   -1.6270 ha        1 L1X      0.190000
     49 H10        -4.8410   12.3790   -0.6200 ha        1 L1X      0.152000
     50 H11        -8.6710   10.3290    2.5680 h1        1 L1X      0.143000
     51 H12        -8.8790    8.4560   -1.0980 h4        1 L1X      0.203000
     52 H13        -5.8390   -0.0290   -0.7500 ha        1 L1X      0.176000
     53 H14        -4.7400   -2.1480   -0.0080 ha        1 L1X      0.162000
     54 H15        -2.2300   -2.4430    2.3920 hc        1 L1X      0.108667
     55 H16        -3.0240   -3.2970    0.9970 hc        1 L1X      0.108667
     56 H17        -1.3880   -2.5340    0.7870 hc        1 L1X      0.108667
     57 H18        -5.0480   14.3700    3.2200 h4        1 L1X      0.162500
     58 H19        -5.1160   11.4370    2.6660 hn        1 L1X      0.242000
     59 H20        -4.1020   13.0130    4.1370 h4        1 L1X      0.162500
     60 H21        -9.4070   11.6030    1.4780 h1        1 L1X      0.143000
     61 H22        -3.7690    3.7470    0.5420 hn        1 L1X      0.267000
     62 O37        -2.3710    2.3420    1.0060 o         1 L1X     -0.374000
     63 C30        -4.8130   13.2950    3.3380 c2        1 L1X     -0.076000
@<TRIPOS>BOND
     1    1    5 1   
     2    1   17 1   
     3    1   40 1   
     4    2    6 1   
     5    2   17 1   
     6    2   41 1   
     7    3    4 1   
     8    3   18 1   
     9    3   42 1   
    10    3   43 1   
    11    4   19 1   
    12    5   21 1   
    13    5   44 1   
    14    6   21 1   
    15    6   45 1   
    16    7   13 1   
    17    7   20 1   
    18    7   46 1   
    19    8   14 1   
    20    8   16 1   
    21    9   18 1   
    22    9   22 1   
    23    9   48 1   
    24   10   13 1   
    25   10   30 1   
    26   11   15 1   
    27   11   31 1   
    28   11   50 1   
    29   11   60 1   
    30   12   15 1   
    31   12   32 1   
    32   12   51 1   
    33   13   49 1   
    34   14   15 1   
    35   14   20 1   
    36   16   33 1   
    37   16   47 1   
    38   17   34 1   
    39   18   35 1   
    40   19   22 1   
    41   19   37 1   
    42   20   37 1   
    43   21   38 1   
    44   22   39 1   
    45   23   24 1   
    46   23   25 1   
    47   23   52 1   
    48   24   26 1   
    49   24   53 1   
    50   25   27 1   
    51   25   28 1   
    52   26   29 1   
    53   26   34 1   
    54   27   34 1   
    55   27   62 1   
    56   28   35 1   
    57   28   36 1   
    58   29   54 1   
    59   29   55 1   
    60   29   56 1   
    61   31   32 1   
    62   33   58 1   
    63   33   63 1   
    64   35   61 1   
    65   57   63 1   
    66   59   63 1   
@<TRIPOS>SUBSTRUCTURE
     1 L1X         1 TEMP              0 ****  ****    0 ROOT
