@<TRIPOS>MOLECULE
L1X
   63    68     1     0     0
SMALL
bcc


@<TRIPOS>ATOM
      1 C1         -7.0810    0.0560    1.7680 ca        1 L1X     -0.085000
      2 C2         -7.4440    1.4120   -0.2210 ca        1 L1X     -0.085000
      3 C3          0.1790   -0.0390    1.0850 ca        1 L1X     -0.192000
      4 C4          1.5440    0.0700    1.2930 ca        1 L1X     -0.089000
      5 C5         -7.8420    0.9460    2.5160 ca        1 L1X     -0.163500
      6 C6         -8.2070    2.3030    0.5230 ca        1 L1X     -0.163500
      7 C7          4.0000    1.4170   -0.4070 ca        1 L1X     -0.125000
      8 C8          6.8340    1.1380   -0.1330 ca        1 L1X     -0.124000
      9 C9          0.5650   -1.6550   -0.6970 ca        1 L1X     -0.197000
     10 C10         4.6940    3.6340   -1.6610 cc        1 L1X      0.345800
     11 C11         7.8450   -1.5060    0.8850 cc        1 L1X     -0.135300
     12 C12         5.9480   -1.8260    2.0720 cd        1 L1X      0.337200
     13 C13         4.8510    2.3850   -0.9280 ca        1 L1X     -0.188900
     14 C14         5.9800    0.1640    0.3910 ca        1 L1X      0.037000
     15 C15         6.5490   -0.9740    1.0600 cd        1 L1X     -0.207300
     16 C16         6.2790    2.2420   -0.7870 ca        1 L1X     -0.070200
     17 C17        -6.8820    0.2730    0.3910 ca        1 L1X      0.001600
     18 C18        -0.3360   -0.9070    0.0840 ca        1 L1X      0.103600
     19 C19         2.4390   -0.6730    0.5170 ca        1 L1X      0.008100
     20 C20         4.5680    0.3270    0.2460 ca        1 L1X      0.098100
     21 C21        -8.4120    2.0730    1.8970 ca        1 L1X      0.141900
     22 C22         1.9500   -1.5380   -0.4850 ca        1 L1X      0.159900
     23 C23        -4.5680   -2.4020   -1.9250 cc        1 L1X      0.047000
     24 C24        -5.9810   -2.4250   -1.9850 cc        1 L1X     -0.272000
     25 C25        -3.9130   -1.5270   -1.0930 cd        1 L1X     -0.299400
     26 C26        -6.7230   -1.5460   -1.2170 cd        1 L1X      0.108400
     27 C27        -4.6720   -0.5940   -0.2630 c         1 L1X      0.714700
     28 C28        -2.4210   -1.5580   -1.1140 c         1 L1X      0.698300
     29 C29        -8.2160   -1.5740   -1.2850 c3        1 L1X     -0.079900
     30 N31         5.8970    4.1760   -1.9210 nd        1 L1X     -0.504100
     31 N32         7.9460   -2.5870    1.7580 na        1 L1X     -0.022600
     32 N33         6.8270   -2.7820    2.4610 nc        1 L1X     -0.523800
     33 N34         6.8580    3.3470   -1.4560 na        1 L1X      0.084900
     34 N35        -6.0920   -0.6420   -0.3770 n         1 L1X     -0.258200
     35 N36        -1.7280   -0.9970   -0.0530 n         1 L1X     -0.458100
     36 O38        -1.8430   -2.1240   -2.0660 o         1 L1X     -0.607100
     37 O39         3.7960   -0.6790    0.8290 os        1 L1X     -0.240200
     38 F40        -9.1550    2.9390    2.6220 f         1 L1X     -0.131900
     39 F41         2.7990   -2.2670   -1.2420 f         1 L1X     -0.120900
     40 H1         -6.6220   -0.8120    2.2680 ha        1 L1X      0.151500
     41 H2         -7.2790    1.6100   -1.2920 ha        1 L1X      0.151500
     42 H3         -0.5050    0.5570    1.7090 ha        1 L1X      0.145000
     43 H4          1.9380    0.7390    2.0740 ha        1 L1X      0.153000
     44 H5         -7.9960    0.7800    3.5930 ha        1 L1X      0.157500
     45 H6         -8.6460    3.1940    0.0490 ha        1 L1X      0.157500
     46 H7          2.9100    1.5090   -0.5160 ha        1 L1X      0.154000
     47 H8          7.9230    1.0320   -0.0260 ha        1 L1X      0.137000
     48 H9          0.2120   -2.3400   -1.4870 ha        1 L1X      0.191000
     49 H10         3.7610    4.0980   -1.9830 h4        1 L1X      0.054800
     50 H11         8.6570   -1.2090    0.2240 h4        1 L1X      0.174000
     51 H12         4.9370   -1.7510    2.4790 h4        1 L1X      0.061100
     52 H13        -3.9880   -3.0960   -2.5620 ha        1 L1X      0.174000
     53 H14        -6.4860   -3.1400   -2.6470 ha        1 L1X      0.160000
     54 H15        -8.5510   -2.3430   -2.0240 hc        1 L1X      0.068033
     55 H16        -8.6470   -1.8270   -0.2840 hc        1 L1X      0.068033
     56 H17        -8.6140   -0.5760   -1.5990 hc        1 L1X      0.068033
     57 H18         8.3900    4.3130   -0.3540 h1        1 L1X      0.052700
     58 H19         8.8610    2.8060   -1.2820 h1        1 L1X      0.052700
     59 H20         8.5480    4.3770   -2.1740 h1        1 L1X      0.052700
     60 H21         8.7210   -3.1960    1.8690 hn        1 L1X      0.319700
     61 H22        -2.2550   -0.4750    0.6210 hn        1 L1X      0.350500
     62 O37        -4.1860    0.2370    0.5310 o         1 L1X     -0.645500
     63 C30         8.2360    3.7380   -1.3060 c3        1 L1X      0.047600
@<TRIPOS>BOND
     1    1    5 ar  
     2    1   17 ar  
     3    1   40 1   
     4    2    6 ar  
     5    2   17 ar  
     6    2   41 1   
     7    3    4 ar  
     8    3   18 ar  
     9    3   42 1   
    10    4   19 ar  
    11    4   43 1   
    12    5   21 ar  
    13    5   44 1   
    14    6   21 ar  
    15    6   45 1   
    16    7   13 ar  
    17    7   20 ar  
    18    7   46 1   
    19    8   14 ar  
    20    8   16 ar  
    21    8   47 1   
    22    9   18 ar  
    23    9   22 ar  
    24    9   48 1   
    25   10   13 1   
    26   10   30 2   
    27   10   49 1   
    28   11   15 2   
    29   11   31 1   
    30   11   50 1   
    31   12   15 1   
    32   12   32 2   
    33   12   51 1   
    34   13   16 ar  
    35   14   15 1   
    36   14   20 ar  
    37   16   33 1   
    38   17   34 1   
    39   18   35 1   
    40   19   22 ar  
    41   19   37 1   
    42   20   37 1   
    43   21   38 1   
    44   22   39 1   
    45   23   24 1   
    46   23   25 2   
    47   23   52 1   
    48   24   26 2   
    49   24   53 1   
    50   25   27 1   
    51   25   28 1   
    52   26   29 1   
    53   26   34 1   
    54   27   34 1   
    55   27   62 2   
    56   28   35 1   
    57   28   36 2   
    58   29   54 1   
    59   29   55 1   
    60   29   56 1   
    61   30   33 1   
    62   31   32 1   
    63   31   60 1   
    64   33   63 1   
    65   35   61 1   
    66   57   63 1   
    67   58   63 1   
    68   59   63 1   
@<TRIPOS>SUBSTRUCTURE
     1 L1X         1 TEMP              0 ****  ****    0 ROOT
