@<TRIPOS>MOLECULE
L1X
   63    48     1     0     0
SMALL
bcc


@<TRIPOS>ATOM
      1 C1          3.6840   -6.5000   -1.9180 c1        1 L1X     -0.132000
      2 C2          5.1230   -5.4730   -0.3000 c1        1 L1X     -0.075000
      3 C3         -0.3640    0.6010    1.6610 c1        1 L1X     -0.132000
      4 C4         -0.9390    1.8760    1.5630 c1        1 L1X     -0.132000
      5 C5          4.7710   -6.8200   -2.6950 c1        1 L1X     -0.132000
      6 C6          6.2350   -5.7990   -1.0930 c1        1 L1X     -0.146500
      7 C7         -2.4800    3.4200   -1.1090 c1        1 L1X     -0.093000
      8 C8         -2.4940    6.1650   -0.8200 c1        1 L1X     -0.146500
      9 C9         -2.5010   -0.4020    1.1840 c1        1 L1X     -0.204000
     10 C10        -2.1380    3.9680   -3.5560 c1        1 L1X     -0.151000
     11 C11        -4.1290    6.4570    2.1160 c1        1 L1X     -0.111500
     12 C12        -1.9510    6.6600    2.3520 c1        1 L1X     -0.111500
     13 C13        -2.3250    4.2460   -2.2380 c1        1 L1X     -0.120000
     14 C14        -2.6470    5.3470    0.2930 c1        1 L1X      0.051000
     15 C15        -2.9190    6.1540    1.5540 c2        1 L1X     -0.162000
     16 C16        -2.3320    5.5960   -2.0940 c1        1 L1X      0.049000
     17 C17         3.8630   -5.8210   -0.7110 c1        1 L1X      0.009000
     18 C18        -1.1490   -0.5340    1.4700 c1        1 L1X      0.088000
     19 C19        -2.2840    2.0060    1.2780 c1        1 L1X     -0.004000
     20 C20        -2.6410    3.9880    0.1500 c1        1 L1X      0.020000
     21 C21         6.0600   -6.4640   -2.2760 c1        1 L1X      0.049000
     22 C22        -3.0730    0.8640    1.0870 c1        1 L1X      0.099000
     23 C23         0.6200   -4.5090    2.0210 c1        1 L1X      0.045000
     24 C24         1.2260   -5.8590    2.1770 c1        1 L1X     -0.272000
     25 C25         1.1630   -3.5690    1.0020 c1        1 L1X     -0.259000
     26 C26         2.3930   -6.2770    1.2870 c1        1 L1X      0.109000
     27 C27         2.3330   -4.0020    0.1130 c1        1 L1X      0.352000
     28 C28         0.5390   -2.2220    0.8170 c1        1 L1X      0.372000
     29 C29         3.0070   -7.6940    1.4260 c3        1 L1X     -0.202000
     30 C30        -2.1030    7.3590   -4.1010 c3        1 L1X     -0.051000
     31 N31        -2.0300    5.1490   -4.2220 n2        1 L1X     -0.035000
     32 N32        -3.9010    7.1400    3.2450 n2        1 L1X     -0.128500
     33 N33        -2.5490    7.2700    3.3960 n2        1 L1X     -0.128500
     34 N34        -2.1500    6.1510   -3.3210 n2        1 L1X     -0.160000
     35 N35         2.8760   -5.3680    0.2230 n1        1 L1X     -0.196000
     36 N36        -0.5720   -1.8430    1.6170 n2        1 L1X     -0.310000
     37 O37         2.7910   -3.2170   -0.7410 o         1 L1X     -0.369000
     38 O38         0.9970   -1.4500    0.0130 o         1 L1X     -0.372000
     39 O39        -2.8580    3.3100    1.3560 os        1 L1X     -0.155000
     40 F40         7.0970   -6.8380   -3.0750 f         1 L1X     -0.097000
     41 F41        -4.3910    0.8930    1.2880 f         1 L1X     -0.095000
     42 H1          2.7850   -6.7480   -2.2110 ha        1 L1X      0.160500
     43 H2          5.2450   -5.0040    0.5330 ha        1 L1X      0.155000
     44 H3          0.5820    0.5080    1.8610 ha        1 L1X      0.160500
     45 H4         -0.3740    2.6940    1.7000 ha        1 L1X      0.160500
     46 H5          4.6420   -7.3020   -3.5520 ha        1 L1X      0.160500
     47 H6          7.1190   -5.5550   -0.8050 ha        1 L1X      0.150500
     48 H7         -2.4750    2.4430   -1.2090 ha        1 L1X      0.155000
     49 H8         -2.5320    7.1210   -0.7220 ha        1 L1X      0.150500
     50 H9         -3.0540   -1.2020    1.0500 ha        1 L1X      0.156000
     51 H10        -2.0900    3.0790   -3.9530 DU        1 L1X      0.209250
     52 H11        -5.0010    6.2180    1.7600 DU        1 L1X      0.209250
     53 H12        -1.0250    6.5980    2.2040 DU        1 L1X      0.209250
     54 H13        -0.1530   -4.2290    2.6110 ha        1 L1X      0.173000
     55 H14         0.8700   -6.4840    2.8490 ha        1 L1X      0.160000
     56 H15         3.8820   -7.6310    1.8990 hc        1 L1X      0.107333
     57 H16         3.1450   -8.0790    0.5300 hc        1 L1X      0.107333
     58 H17         2.3970   -8.2700    1.9390 hc        1 L1X      0.107333
     59 H18        -2.2700    8.1310   -3.5200 h1        1 L1X      0.093667
     60 H19        -2.7950    7.3210   -4.8090 h1        1 L1X      0.093667
     61 H20        -1.2310    7.4460   -4.5080 h1        1 L1X      0.093667
     62 H21        -4.5300    7.4590    3.8070 DU        1 L1X      0.209250
     63 H22        -0.9980   -2.4740    2.1320 hn        1 L1X      0.261000
@<TRIPOS>BOND
     1    1    5 1   
     2    1   42 1   
     3    2   17 1   
     4    2   43 1   
     5    3    4 1   
     6    3   44 1   
     7    4   45 1   
     8    5   46 1   
     9    6   21 1   
    10    6   47 1   
    11    7   13 1   
    12    7   48 1   
    13    8   16 1   
    14    8   49 1   
    15    9   18 1   
    16    9   50 1   
    17   10   13 1   
    18   10   31 1   
    19   11   15 1   
    20   11   32 1   
    21   12   15 1   
    22   12   33 1   
    23   14   15 1   
    24   14   20 1   
    25   17   35 1   
    26   18   36 1   
    27   19   22 1   
    28   19   39 1   
    29   20   39 1   
    30   22   41 1   
    31   23   25 1   
    32   23   54 1   
    33   24   26 1   
    34   24   55 1   
    35   25   28 1   
    36   26   29 1   
    37   27   37 1   
    38   28   38 1   
    39   29   56 1   
    40   29   57 1   
    41   29   58 1   
    42   30   34 1   
    43   30   59 1   
    44   30   60 1   
    45   30   61 1   
    46   31   34 1   
    47   32   33 1   
    48   36   63 1   
@<TRIPOS>SUBSTRUCTURE
     1 L1X         1 TEMP              0 ****  ****    0 ROOT
