@<TRIPOS>MOLECULE
L20
   53    57     1     0     0
SMALL
bcc


@<TRIPOS>ATOM
      1 C1         -2.5060   -4.6790   12.9090 c3        1 L20     -0.106400
      2 C2         -3.9430   -4.9560   12.7310 cc        1 L20      0.357900
      3 N3         -4.7320   -5.6210   13.6090 nd        1 L20     -0.515100
      4 N4         -5.9920   -5.6160   13.1460 na        1 L20     -0.015100
      5 C6         -6.0700   -5.0190   11.8760 ca        1 L20     -0.047200
      6 C7         -7.1330   -4.8010   10.9880 ca        1 L20     -0.142000
      7 C8         -6.8580   -4.1140    9.8180 ca        1 L20     -0.085000
      8 C9         -5.5620   -3.6330    9.5140 cp        1 L20     -0.073000
      9 C10        -4.5010   -3.8410   10.3980 ca        1 L20     -0.046000
     10 C11        -4.7420   -4.5360   11.5780 ca        1 L20     -0.214900
     11 C12        -5.3410   -2.9160    8.2630 cp        1 L20     -0.106300
     12 C13        -5.9600   -3.3390    7.0660 ca        1 L20      0.362200
     13 N14        -5.7960   -2.7190    5.8810 nb        1 L20     -0.637000
     14 C15        -5.0000   -1.6430    5.8360 ca        1 L20      0.370200
     15 C16        -4.3330   -1.1410    6.9870 ca        1 L20      0.014800
     16 O17        -3.5570   -0.0250    6.7740 os        1 L20     -0.330900
     17 C18        -2.8580    0.4770    7.9200 c3        1 L20      0.080400
     18 C19        -2.0050    1.6610    7.4100 c3        1 L20      0.170500
     19 N21        -2.7620    2.7590    6.8460 n3        1 L20     -0.900800
     20 C25        -1.1010    2.1170    8.5730 c3        1 L20     -0.006200
     21 C26        -0.0820    1.1130    8.9060 cc        1 L20     -0.150400
     22 C27         0.9200    0.6270    8.0630 cd        1 L20     -0.096100
     23 N28         1.7180   -0.2940    8.7440 na        1 L20     -0.190400
     24 C30         1.2450   -0.4050   10.0530 ca        1 L20     -0.047200
     25 C31         1.6970   -1.1820   11.1320 ca        1 L20     -0.144000
     26 C32         1.0130   -1.0780   12.3320 ca        1 L20     -0.114000
     27 C33        -0.0970   -0.2260   12.4780 ca        1 L20     -0.157000
     28 C34        -0.5550    0.5480   11.4220 ca        1 L20     -0.088000
     29 C35         0.1020    0.4730   10.1930 ca        1 L20     -0.091800
     30 C36        -4.5060   -1.7870    8.2150 ca        1 L20     -0.166000
     31 H1C1       -2.0410   -4.4600   11.9170 hc        1 L20      0.054367
     32 H1C2       -2.3680   -3.7890   13.5740 hc        1 L20      0.054367
     33 H1C3       -1.9760   -5.5490   13.3720 hc        1 L20      0.054367
     34 H4         -6.6480   -6.2600   13.5210 hn        1 L20      0.318700
     35 H7         -8.1460   -5.1600   11.2130 ha        1 L20      0.142000
     36 H8         -7.6720   -3.9260    9.1000 ha        1 L20      0.140000
     37 H10        -3.4910   -3.4710   10.1660 ha        1 L20      0.143000
     38 H13        -6.6160   -4.2270    7.0550 h4        1 L20      0.026100
     39 H36        -4.0140   -1.4280    9.1300 ha        1 L20      0.149000
     40 H15        -4.8750   -1.1460    4.8590 h4        1 L20      0.037100
     41 H181       -3.5990    0.8060    8.6940 h1        1 L20      0.051200
     42 H182       -2.1920   -0.3200    8.3420 h1        1 L20      0.051200
     43 H19        -1.3450    1.2650    6.5800 h1        1 L20      0.071700
     44 H211       -3.3440    3.1840    7.5410 hn        1 L20      0.353800
     45 H212       -3.3380    2.4230    6.0980 hn        1 L20      0.353800
     46 H251       -1.7340    2.3290    9.4760 hc        1 L20      0.058700
     47 H252       -0.5940    3.0780    8.2840 hc        1 L20      0.058700
     48 H27         1.1200    0.8720    7.0170 h4        1 L20      0.170000
     49 H28         2.5020   -0.7630    8.3770 hn        1 L20      0.300700
     50 H31         2.5640   -1.8470   11.0260 ha        1 L20      0.133000
     51 H32         1.3450   -1.6730   13.1970 ha        1 L20      0.130000
     52 H33        -0.6040   -0.1740   13.4520 ha        1 L20      0.131000
     53 H34        -1.4200    1.2160   11.5450 ha        1 L20      0.132000
@<TRIPOS>BOND
     1    1    2 1   
     2    1   31 1   
     3    1   32 1   
     4    1   33 1   
     5    2    3 2   
     6    2   10 1   
     7    3    4 1   
     8    4    5 1   
     9    4   34 1   
    10    5    6 ar  
    11    5   10 ar  
    12    6    7 ar  
    13    6   35 1   
    14    7    8 ar  
    15    7   36 1   
    16    8    9 ar  
    17    8   11 1   
    18    9   10 ar  
    19    9   37 1   
    20   11   12 ar  
    21   11   30 ar  
    22   12   13 ar  
    23   12   38 1   
    24   13   14 ar  
    25   14   15 ar  
    26   14   40 1   
    27   15   16 1   
    28   15   30 ar  
    29   16   17 1   
    30   17   18 1   
    31   17   41 1   
    32   17   42 1   
    33   18   19 1   
    34   18   20 1   
    35   18   43 1   
    36   19   44 1   
    37   19   45 1   
    38   20   21 1   
    39   20   46 1   
    40   20   47 1   
    41   21   22 2   
    42   21   29 1   
    43   22   23 1   
    44   22   48 1   
    45   23   24 1   
    46   23   49 1   
    47   24   25 ar  
    48   24   29 ar  
    49   25   26 ar  
    50   25   50 1   
    51   26   27 ar  
    52   26   51 1   
    53   27   28 ar  
    54   27   52 1   
    55   28   29 ar  
    56   28   53 1   
    57   30   39 1   
@<TRIPOS>SUBSTRUCTURE
     1 L20         1 TEMP              0 ****  ****    0 ROOT
