@<TRIPOS>MOLECULE
L20
   54    58     1     0     0
SMALL
bcc


@<TRIPOS>ATOM
      1 C1         -0.2320    1.5010   -0.6260 c3        1 L20     -0.104400
      2 C2          1.1610    1.1360   -0.3130 cc        1 L20      0.351900
      3 N3          1.6910    1.0670    0.9340 nd        1 L20     -0.495100
      4 N4          2.9750    0.7040    0.8330 na        1 L20     -0.012100
      5 C6          3.3710    0.5470   -0.4990 ca        1 L20     -0.034200
      6 C7          4.5900    0.1960   -1.1020 ca        1 L20     -0.134000
      7 C8          4.6180    0.1140   -2.4820 ca        1 L20     -0.084000
      8 C9          3.4700    0.3620   -3.2760 cp        1 L20     -0.099000
      9 C10         2.2560    0.7090   -2.6820 ca        1 L20     -0.038000
     10 C11         2.1930    0.8090   -1.2960 ca        1 L20     -0.218900
     11 C12         3.5690    0.2550   -4.7250 cp        1 L20     -0.102300
     12 C13         4.7130    0.7360   -5.4140 ca        1 L20      0.410200
     13 N14         4.8690    0.6700   -6.7470 nb        1 L20     -0.634000
     14 C15         3.8850    0.1110   -7.4730 ca        1 L20      0.395200
     15 C16         2.7100   -0.3900   -6.8740 ca        1 L20     -0.049200
     16 O17         1.6950   -0.8500   -7.7080 os        1 L20     -0.382900
     17 C18         1.4300   -2.2500   -7.5830 c3        1 L20      0.102400
     18 C19         0.0020   -2.4650   -8.1140 c3        1 L20      0.112500
     19 N21        -0.1250   -1.9060   -9.5080 n4        1 L20     -0.840600
     20 C25        -0.3670   -3.9590   -8.0650 c3        1 L20     -0.002200
     21 C26        -0.6020   -4.3810   -6.6830 cc        1 L20     -0.221400
     22 C27        -1.8360   -4.4150   -6.0190 cd        1 L20     -0.061100
     23 N28        -1.6730   -4.9110   -4.7350 na        1 L20     -0.165400
     24 C30        -0.3220   -5.2330   -4.5490 ca        1 L20     -0.049200
     25 C31         0.3460   -5.7750   -3.4390 ca        1 L20     -0.121000
     26 C32         1.7090   -5.9940   -3.5550 ca        1 L20     -0.103000
     27 C33         2.4080   -5.6890   -4.7390 ca        1 L20     -0.125000
     28 C34         1.7620   -5.1500   -5.8390 ca        1 L20     -0.115000
     29 C35         0.3870   -4.9080   -5.7650 ca        1 L20     -0.087800
     30 C36         2.5430   -0.3230   -5.4850 ca        1 L20     -0.112000
     31 H1C1       -0.9520    0.9380    0.0190 hc        1 L20      0.054033
     32 H1C2       -0.3930    2.5960   -0.4570 hc        1 L20      0.054033
     33 H1C3       -0.4500    1.2680   -1.6970 hc        1 L20      0.054033
     34 H4          3.5560    0.6910    1.6390 hn        1 L20      0.334700
     35 H7          5.4870   -0.0040   -0.5000 ha        1 L20      0.150000
     36 H8          5.5600   -0.1620   -2.9840 ha        1 L20      0.139000
     37 H10         1.3650    0.9140   -3.2930 ha        1 L20      0.135000
     38 H13         5.5440    1.2080   -4.8560 h4        1 L20      0.045100
     39 H36         1.6360   -0.7140   -5.0030 ha        1 L20      0.150000
     40 H15         4.0320    0.0780   -8.5660 h4        1 L20      0.032100
     41 H181        2.1870   -2.8200   -8.1840 h1        1 L20      0.090200
     42 H182        1.4640   -2.5910   -6.5120 h1        1 L20      0.090200
     43 H19        -0.7180   -1.8710   -7.4730 hx        1 L20      0.120700
     44 H211        0.1870   -0.9260   -9.4990 hn        1 L20      0.460467
     45 H212       -1.0960   -1.9590   -9.8220 hn        1 L20      0.460467
     46 H251        0.4700   -4.5640   -8.5100 hc        1 L20      0.067200
     47 H252       -1.2920   -4.1410   -8.6770 hc        1 L20      0.067200
     48 H27        -2.8250   -4.1240   -6.3840 h4        1 L20      0.171000
     49 H28        -2.3940   -5.0780   -4.0810 hn        1 L20      0.316700
     50 H31        -0.1950   -6.0210   -2.5150 ha        1 L20      0.150000
     51 H32         2.2630   -6.4210   -2.7040 ha        1 L20      0.150000
     52 H33         3.4900   -5.8900   -4.7840 ha        1 L20      0.145000
     53 H34         2.3130   -4.9270   -6.7630 ha        1 L20      0.123000
     54 H213        0.4680   -2.4360  -10.1520 hn        1 L20      0.460467
@<TRIPOS>BOND
     1    1    2 1   
     2    1   31 1   
     3    1   32 1   
     4    1   33 1   
     5    2    3 2   
     6    2   10 1   
     7    3    4 1   
     8    4    5 1   
     9    4   34 1   
    10    5    6 ar  
    11    5   10 ar  
    12    6    7 ar  
    13    6   35 1   
    14    7    8 ar  
    15    7   36 1   
    16    8    9 ar  
    17    8   11 1   
    18    9   10 ar  
    19    9   37 1   
    20   11   12 ar  
    21   11   30 ar  
    22   12   13 ar  
    23   12   38 1   
    24   13   14 ar  
    25   14   15 ar  
    26   14   40 1   
    27   15   16 1   
    28   15   30 ar  
    29   16   17 1   
    30   17   18 1   
    31   17   41 1   
    32   17   42 1   
    33   18   19 1   
    34   18   20 1   
    35   18   43 1   
    36   19   44 1   
    37   19   45 1   
    38   19   54 1   
    39   20   21 1   
    40   20   46 1   
    41   20   47 1   
    42   21   22 2   
    43   21   29 1   
    44   22   23 1   
    45   22   48 1   
    46   23   24 1   
    47   23   49 1   
    48   24   25 ar  
    49   24   29 ar  
    50   25   26 ar  
    51   25   50 1   
    52   26   27 ar  
    53   26   51 1   
    54   27   28 ar  
    55   27   52 1   
    56   28   29 ar  
    57   28   53 1   
    58   30   39 1   
@<TRIPOS>SUBSTRUCTURE
     1 L20         1 TEMP              0 ****  ****    0 ROOT
