@<TRIPOS>MOLECULE
L20
   54    58     1     0     0
SMALL
bcc


@<TRIPOS>ATOM
      1 C1         -0.1920    1.5300   -0.6330 c3        1 L20     -0.104400
      2 C2          1.2060    1.1710   -0.3350 cc        1 L20      0.351900
      3 N3          1.7530    1.1150    0.9050 nd        1 L20     -0.495100
      4 N4          3.0370    0.7540    0.7900 na        1 L20     -0.012100
      5 C6          3.4150    0.5850   -0.5450 ca        1 L20     -0.034200
      6 C7          4.6260    0.2310   -1.1610 ca        1 L20     -0.134000
      7 C8          4.6360    0.1360   -2.5410 ca        1 L20     -0.084000
      8 C9          3.4770    0.3750   -3.3210 cp        1 L20     -0.099000
      9 C10         2.2700    0.7250   -2.7140 ca        1 L20     -0.038000
     10 C11         2.2250    0.8370   -1.3290 ca        1 L20     -0.218900
     11 C12         3.5570    0.2550   -4.7710 cp        1 L20     -0.102300
     12 C13         4.6900    0.7320   -5.4790 ca        1 L20      0.410200
     13 N14         4.8280    0.6550   -6.8140 nb        1 L20     -0.634000
     14 C15         3.8360    0.0870   -7.5220 ca        1 L20      0.395200
     15 C16         2.6700   -0.4110   -6.9020 ca        1 L20     -0.049200
     16 O17         1.6450   -0.8800   -7.7180 os        1 L20     -0.382900
     17 C18         1.3850   -2.2810   -7.5770 c3        1 L20      0.102400
     18 C19        -0.0500   -2.5030   -8.0840 c3        1 L20      0.112500
     19 N21        -0.2000   -1.9560   -9.4810 nz        1 L20     -0.840600
     20 C25        -0.4150   -3.9970   -8.0170 c3        1 L20     -0.002200
     21 C26        -0.6270   -4.4090   -6.6280 cc        1 L20     -0.221400
     22 C27        -1.8510   -4.4400   -5.9450 cd        1 L20     -0.061100
     23 N28        -1.6670   -4.9240   -4.6600 na        1 L20     -0.165400
     24 C30        -0.3120   -5.2420   -4.4920 ca        1 L20     -0.049200
     25 C31         0.3740   -5.7740   -3.3890 ca        1 L20     -0.121000
     26 C32         1.7360   -5.9910   -3.5240 ca        1 L20     -0.103000
     27 C33         2.4160   -5.6940   -4.7210 ca        1 L20     -0.125000
     28 C34         1.7510   -5.1660   -5.8160 ca        1 L20     -0.115000
     29 C35         0.3770   -4.9260   -5.7220 ca        1 L20     -0.087800
     30 C36         2.5220   -0.3320   -5.5120 ca        1 L20     -0.112000
     31 H1C1       -0.4230    1.2890   -1.7000 hc        1 L20      0.054033
     32 H1C2       -0.9020    0.9700    0.0260 hc        1 L20      0.054033
     33 H1C3       -0.3540    2.6260   -0.4690 hc        1 L20      0.054033
     34 H4          3.6280    0.7490    1.5880 hn        1 L20      0.334700
     35 H7          5.5310    0.0390   -0.5700 ha        1 L20      0.150000
     36 H8          5.5710   -0.1410   -3.0530 ha        1 L20      0.139000
     37 H10         1.3710    0.9220   -3.3160 ha        1 L20      0.135000
     38 H13         5.5270    1.2110   -4.9370 h4        1 L20      0.045100
     39 H36         1.6220   -0.7210   -5.0140 ha        1 L20      0.150000
     40 H15         3.9690    0.0440   -8.6160 h4        1 L20      0.032100
     41 H181        1.4360   -2.6120   -6.5040 h1        1 L20      0.090200
     42 H182        2.1340   -2.8540   -8.1850 h1        1 L20      0.090200
     43 H19        -0.7620   -1.9060   -7.4380 hx        1 L20      0.120700
     44 H211        0.3840   -2.4900  -10.1300 hn        1 L20      0.460467
     45 H212        0.1100   -0.9760   -9.4850 hn        1 L20      0.460467
     46 H251       -1.3490   -4.1870   -8.6140 hc        1 L20      0.067200
     47 H252        0.4170   -4.6040   -8.4700 hc        1 L20      0.067200
     48 H27        -2.8460   -4.1530   -6.2970 h4        1 L20      0.171000
     49 H28        -2.3770   -5.0870   -3.9930 hn        1 L20      0.316700
     50 H31        -0.1510   -6.0130   -2.4540 ha        1 L20      0.150000
     51 H32         2.3040   -6.4100   -2.6780 ha        1 L20      0.150000
     52 H33         3.4970   -5.8940   -4.7810 ha        1 L20      0.145000
     53 H34         2.2880   -4.9490   -6.7500 ha        1 L20      0.123000
     54 H213       -1.1750   -2.0140   -9.7800 hn        1 L20      0.460467
@<TRIPOS>BOND
     1    1    2 1   
     2    1   31 1   
     3    1   32 1   
     4    1   33 1   
     5    2    3 2   
     6    2   10 1   
     7    3    4 1   
     8    4    5 1   
     9    4   34 1   
    10    5    6 ar  
    11    5   10 ar  
    12    6    7 ar  
    13    6   35 1   
    14    7    8 ar  
    15    7   36 1   
    16    8    9 ar  
    17    8   11 1   
    18    9   10 ar  
    19    9   37 1   
    20   11   12 ar  
    21   11   30 ar  
    22   12   13 ar  
    23   12   38 1   
    24   13   14 ar  
    25   14   15 ar  
    26   14   40 1   
    27   15   16 1   
    28   15   30 ar  
    29   16   17 1   
    30   17   18 1   
    31   17   41 1   
    32   17   42 1   
    33   18   19 1   
    34   18   20 1   
    35   18   43 1   
    36   19   44 1   
    37   19   45 1   
    38   19   54 1   
    39   20   21 1   
    40   20   46 1   
    41   20   47 1   
    42   21   22 2   
    43   21   29 1   
    44   22   23 1   
    45   22   48 1   
    46   23   24 1   
    47   23   49 1   
    48   24   25 ar  
    49   24   29 ar  
    50   25   26 ar  
    51   25   50 1   
    52   26   27 ar  
    53   26   51 1   
    54   27   28 ar  
    55   27   52 1   
    56   28   29 ar  
    57   28   53 1   
    58   30   39 1   
@<TRIPOS>SUBSTRUCTURE
     1 L20         1 TEMP              0 ****  ****    0 ROOT
