@<TRIPOS>MOLECULE
L20
   54    58     1     0     0
SMALL
bcc


@<TRIPOS>ATOM
      1 C1         -0.2430    1.5030   -0.6350 c3        1 L20     -0.104400
      2 C2          1.1520    1.1440   -0.3200 cc        1 L20      0.351900
      3 N3          1.6820    1.0800    0.9270 nd        1 L20     -0.495100
      4 N4          2.9670    0.7210    0.8270 na        1 L20     -0.012100
      5 C6          3.3640    0.5620   -0.5040 ca        1 L20     -0.034200
      6 C7          4.5840    0.2140   -1.1060 ca        1 L20     -0.134000
      7 C8          4.6130    0.1280   -2.4860 ca        1 L20     -0.084000
      8 C9          3.4650    0.3700   -3.2810 cp        1 L20     -0.099000
      9 C10         2.2490    0.7150   -2.6880 ca        1 L20     -0.038000
     10 C11         2.1850    0.8180   -1.3030 ca        1 L20     -0.218900
     11 C12         3.5640    0.2600   -4.7300 cp        1 L20     -0.102300
     12 C13         4.7060    0.7420   -5.4190 ca        1 L20      0.410200
     13 N14         4.8640    0.6740   -6.7520 nb        1 L20     -0.634000
     14 C15         3.8810    0.1100   -7.4780 ca        1 L20      0.394200
     15 C16         2.7070   -0.3940   -6.8770 ca        1 L20     -0.049200
     16 O17         1.6940   -0.8580   -7.7100 os        1 L20     -0.382900
     17 C18         1.4320   -2.2590   -7.5800 c3        1 L20      0.102400
     18 C19         0.0080   -2.4800   -8.1190 c3        1 L20      0.112500
     19 N21        -0.1110   -1.9290   -9.5180 n4        1 L20     -0.840600
     20 C25        -0.3570   -3.9740   -8.0650 c3        1 L20     -0.002200
     21 C26        -0.6020   -4.3890   -6.6820 cc        1 L20     -0.221400
     22 C27        -1.8410   -4.4230   -6.0280 cd        1 L20     -0.061100
     23 N28        -1.6870   -4.9110   -4.7390 na        1 L20     -0.165400
     24 C30        -0.3360   -5.2280   -4.5420 ca        1 L20     -0.049200
     25 C31         0.3250   -5.7620   -3.4230 ca        1 L20     -0.121000
     26 C32         1.6900   -5.9780   -3.5270 ca        1 L20     -0.103000
     27 C33         2.3970   -5.6780   -4.7080 ca        1 L20     -0.125000
     28 C34         1.7570   -5.1470   -5.8170 ca        1 L20     -0.115000
     29 C35         0.3810   -4.9080   -5.7540 ca        1 L20     -0.087800
     30 C36         2.5400   -0.3220   -5.4890 ca        1 L20     -0.112000
     31 H1C1       -0.4060    2.5990   -0.4720 hc        1 L20      0.054033
     32 H1C2       -0.9610    0.9420    0.0140 hc        1 L20      0.054033
     33 H1C3       -0.4600    1.2650   -1.7050 hc        1 L20      0.054033
     34 H4          3.5480    0.7110    1.6330 hn        1 L20      0.334700
     35 H7          5.4810    0.0180   -0.5030 ha        1 L20      0.150000
     36 H8          5.5560   -0.1450   -2.9870 ha        1 L20      0.139000
     37 H10         1.3580    0.9160   -3.3000 ha        1 L20      0.135000
     38 H13         5.5360    1.2180   -4.8620 h4        1 L20      0.045100
     39 H36         1.6340   -0.7150   -5.0050 ha        1 L20      0.150000
     40 H15         4.0290    0.0730   -8.5700 h4        1 L20      0.032100
     41 H181        2.1940   -2.8300   -8.1730 h1        1 L20      0.090200
     42 H182        1.4600   -2.5940   -6.5070 h1        1 L20      0.090200
     43 H19        -0.7180   -1.8840   -7.4870 hx        1 L20      0.120700
     44 H211        0.2000   -0.9480   -9.5110 hn        1 L20      0.460467
     45 H212        0.4870   -2.4610  -10.1540 hn        1 L20      0.460467
     46 H251       -1.2780   -4.1620   -8.6830 hc        1 L20      0.067200
     47 H252        0.4840   -4.5800   -8.5000 hc        1 L20      0.067200
     48 H27        -2.8280   -4.1360   -6.4020 h4        1 L20      0.171000
     49 H28        -2.4120   -5.0760   -4.0900 hn        1 L20      0.316700
     50 H31        -0.2220   -6.0040   -2.5020 ha        1 L20      0.150000
     51 H32         2.2380   -6.3990   -2.6700 ha        1 L20      0.150000
     52 H33         3.4790   -5.8770   -4.7440 ha        1 L20      0.145000
     53 H34         2.3150   -4.9280   -6.7380 ha        1 L20      0.123000
     54 H213       -1.0790   -1.9850   -9.8370 hn        1 L20      0.460467
@<TRIPOS>BOND
     1    1    2 1   
     2    1   31 1   
     3    1   32 1   
     4    1   33 1   
     5    2    3 2   
     6    2   10 1   
     7    3    4 1   
     8    4    5 1   
     9    4   34 1   
    10    5    6 ar  
    11    5   10 ar  
    12    6    7 ar  
    13    6   35 1   
    14    7    8 ar  
    15    7   36 1   
    16    8    9 ar  
    17    8   11 1   
    18    9   10 ar  
    19    9   37 1   
    20   11   12 ar  
    21   11   30 ar  
    22   12   13 ar  
    23   12   38 1   
    24   13   14 ar  
    25   14   15 ar  
    26   14   40 1   
    27   15   16 1   
    28   15   30 ar  
    29   16   17 1   
    30   17   18 1   
    31   17   41 1   
    32   17   42 1   
    33   18   19 1   
    34   18   20 1   
    35   18   43 1   
    36   19   44 1   
    37   19   45 1   
    38   19   54 1   
    39   20   21 1   
    40   20   46 1   
    41   20   47 1   
    42   21   22 2   
    43   21   29 1   
    44   22   23 1   
    45   22   48 1   
    46   23   24 1   
    47   23   49 1   
    48   24   25 ar  
    49   24   29 ar  
    50   25   26 ar  
    51   25   50 1   
    52   26   27 ar  
    53   26   51 1   
    54   27   28 ar  
    55   27   52 1   
    56   28   29 ar  
    57   28   53 1   
    58   30   39 1   
@<TRIPOS>SUBSTRUCTURE
     1 L20         1 TEMP              0 ****  ****    0 ROOT
