@<TRIPOS>MOLECULE
L21
   28    28     1     0     0
SMALL
bcc


@<TRIPOS>ATOM
      1 C14         0.0220   -0.5110    0.4940 c3        1 L21     -0.088100
      2 C13         1.4540   -0.2200    0.0840 c3        1 L21     -0.032500
      3 C15         2.0560    0.8150    0.9660 c2        1 L21     -0.221200
      4 C12         1.5010    0.2270   -1.3660 c3        1 L21     -0.088100
      5 C6          2.9600   -3.4050    4.4080 ce        1 L21      0.679700
      6 C5          3.3380   -2.1430    4.7780 cf        1 L21     -0.157700
      7 N9          3.9780   -1.7860    5.9950 nh        1 L21     -0.304600
      8 C4          3.2280   -0.7840    4.0620 cf        1 L21      0.531600
      9 N7          3.7750    0.1740    4.8480 nf        1 L21     -0.732700
     10 C8          4.2340   -0.4280    6.0280 c1        1 L21      0.281400
     11 C80         2.5890    0.6180    2.1880 c2        1 L21     -0.064100
     12 N3          2.6590   -0.6240    2.8340 nh        1 L21     -0.306300
     13 C2          1.8260   -3.8890    2.1440 c1        1 L21      0.482800
     14 N1          2.3460   -3.6490    3.1820 n1        1 L21     -1.157500
     15 H141        2.0470   -1.1780    0.1630 hc        1 L21      0.043700
     16 H142       -0.4150   -1.2950   -0.1700 hc        1 L21      0.037200
     17 H143       -0.0170   -0.8750    1.5490 hc        1 L21      0.037200
     18 H15        -0.6030    0.4100    0.4150 hc        1 L21      0.037200
     19 H121        2.5530    0.4390   -1.6730 hc        1 L21      0.037200
     20 H122        0.8940    1.1520   -1.5120 hc        1 L21      0.037200
     21 H123        1.0910   -0.5750   -2.0260 hc        1 L21      0.037200
     22 H801        2.0530    1.8420    0.5670 ha        1 L21      0.145000
     23 H802        3.0180    1.4650    2.7620 h4        1 L21      0.183000
     24 H101        2.3500   -4.9410    5.5780 hn        1 L21      0.382800
     25 H102        3.8330   -5.1640    4.9010 hn        1 L21      0.382800
     26 H8          4.1970   -2.4460    6.6960 hn        1 L21      0.319700
     27 H2          2.2610   -1.4060    2.3660 hn        1 L21      0.294700
     28 N10         3.2040   -4.4940    5.3020 nh        1 L21     -0.798600
@<TRIPOS>BOND
     1    1    2 1   
     2    1   16 1   
     3    1   17 1   
     4    1   18 1   
     5    2    3 1   
     6    2    4 1   
     7    2   15 1   
     8    3   11 2   
     9    3   22 1   
    10    4   19 1   
    11    4   20 1   
    12    4   21 1   
    13    5    6 2   
    14    5   14 1   
    15    5   28 1   
    16    6    7 1   
    17    6    8 1   
    18    7   10 2   
    19    7   26 1   
    20    8    9 1   
    21    8   12 2   
    22    9   10 2   
    23   11   12 1   
    24   11   23 1   
    25   12   27 1   
    26   13   14 3   
    27   24   28 1   
    28   25   28 1   
@<TRIPOS>SUBSTRUCTURE
     1 L21         1 TEMP              0 ****  ****    0 ROOT
