@<TRIPOS>MOLECULE
L21
   28    27     1     0     0
SMALL
bcc


@<TRIPOS>ATOM
      1 C14         0.1570   -0.0940   -0.1380 c3        1 L21     -0.070900
      2 C13         1.5780   -0.0940   -0.5650 c2        1 L21     -0.106400
      3 C15         2.3680    1.0770   -0.1080 c3        1 L21     -0.070900
      4 C12         2.1090   -1.0720   -1.3040 c2        1 L21     -0.243000
      5 C6          2.8490   -3.4720    4.5850 ce        1 L21      0.637900
      6 C5          3.1470   -2.1790    4.9620 ce        1 L21     -0.312700
      7 N9          4.2090   -1.7800    5.8390 nu        1 L21     -0.282600
      8 C4          2.5180   -0.8530    4.5950 cf        1 L21      0.297600
      9 N7          3.1820    0.1460    5.1930 nf        1 L21     -0.586000
     10 C8          4.2410   -0.4150    5.9540 c1        1 L21      0.269400
     11 C80         0.9680    0.3890    3.1700 c1        1 L21     -0.057500
     12 N3          1.3890   -0.7030    3.7540 nu        1 L21     -0.424800
     13 C2          1.0380   -3.9630    2.8210 c1        1 L21      0.552800
     14 N1          1.8600   -3.7270    3.6450 n1        1 L21     -0.918400
     15 H141        0.0920    0.0000    0.9790 hc        1 L21      0.045367
     16 H142       -0.3770    0.7780   -0.5920 hc        1 L21      0.045367
     17 H143       -0.3660   -1.0300   -0.4510 hc        1 L21      0.045367
     18 H15         1.9800    2.0100   -0.5890 hc        1 L21      0.045367
     19 H121        3.4500    0.9700   -0.3640 hc        1 L21      0.045367
     20 H122        3.1610   -1.0690   -1.6160 ha        1 L21      0.108500
     21 H123        1.5240   -1.9360   -1.6430 ha        1 L21      0.108500
     22 H801        2.2710    1.1930    1.0020 hc        1 L21      0.045367
     23 H802        1.5370    1.3290    3.3070 ha        1 L21      0.030500
     24 H101        3.2930   -5.4730    4.8010 hn        1 L21      0.269700
     25 H102        3.8730   -4.4860    6.0220 hn        1 L21      0.269700
     26 H8          4.8820   -2.4070    6.1930 hn        1 L21      0.303700
     27 H2          0.8420   -1.5290    3.6260 hn        1 L21      0.452800
     28 N10         3.5820   -4.5610    5.0740 nv        1 L21     -0.499100
@<TRIPOS>BOND
     1    1    2 1   
     2    1   15 1   
     3    1   16 1   
     4    1   17 1   
     5    2    3 1   
     6    2    4 2   
     7    3   18 1   
     8    3   19 1   
     9    3   22 1   
    10    4   20 1   
    11    4   21 1   
    12    5    6 1   
    13    5   14 1   
    14    5   28 2   
    15    6    7 1   
    16    6    8 2   
    17    7   10 2   
    18    7   26 1   
    19    8    9 1   
    20    8   12 1   
    21    9   10 2   
    22   11   12 3   
    23   11   23 1   
    24   12   27 1   
    25   13   14 3   
    26   24   28 1   
    27   25   28 1   
@<TRIPOS>SUBSTRUCTURE
     1 L21         1 TEMP              0 ****  ****    0 ROOT
