@<TRIPOS>MOLECULE
L21
   28    24     1     0     0
SMALL
bcc


@<TRIPOS>ATOM
      1 C14        -2.2870    0.6000   -2.8250 c3        1 L21     -0.193000
      2 C13        -0.7510    0.3460   -2.8410 c2        1 L21     -0.068000
      3 C15        -0.0620    0.1400   -1.6330 c1        1 L21     -0.230000
      4 C12         0.0070    0.3200   -4.1700 c3        1 L21     -0.193000
      5 N10         1.3880   -2.0830    4.1370 n3        1 L21     -0.341000
      6 C6          1.0470   -1.2670    3.0550 c2        1 L21      0.255000
      7 C5          1.1670    0.0860    2.7720 c1        1 L21     -0.248000
      8 N9          1.7390    1.1200    3.4580 n1        1 L21     -0.185000
      9 C4          0.6590    0.5780    1.6320 c1        1 L21     -0.001000
     10 N7          0.9080    1.9040    1.6020 n1        1 L21     -0.185000
     11 C8          1.5780    2.2320    2.7370 c1        1 L21     -0.106000
     12 C80        -0.8270    0.1680   -0.3070 c2        1 L21     -0.001000
     13 N3          0.0250   -0.2530    0.7550 n3        1 L21     -0.138000
     14 C2         -0.0910   -1.5750    1.0350 c2        1 L21      0.085000
     15 N1          0.4260   -2.0760    2.1940 n2        1 L21     -0.254000
     16 H141       -2.5000    1.2400   -2.1380 hc        1 L21      0.089000
     17 H142       -2.7530   -0.2400   -2.6430 hc        1 L21      0.089000
     18 H143       -2.5740    0.9520   -3.7050 hc        1 L21      0.089000
     19 H15         0.8770   -0.0140   -1.6410 ha        1 L21      0.136000
     20 H121        0.6120    1.0700   -4.2110 hc        1 L21      0.089000
     21 H122       -0.6350    0.3760   -4.9140 hc        1 L21      0.089000
     22 H123        0.5270   -0.5330   -4.2400 hc        1 L21      0.089000
     23 H801       -1.1370    1.0740   -0.1340 h4        1 L21      0.124000
     24 H802       -1.5990   -0.4340   -0.3650 h4        1 L21      0.124000
     25 H101        0.7730   -2.6320    4.4990 hn        1 L21      0.250000
     26 H102        2.2000   -2.0170    4.5070 hn        1 L21      0.250000
     27 H8          1.8440    3.1070    2.9930 DU        1 L21      0.188000
     28 H2         -0.5610   -2.1870    0.3880 h5        1 L21      0.197000
@<TRIPOS>BOND
     1    1    2 1   
     2    1   16 1   
     3    1   17 1   
     4    1   18 1   
     5    2    3 1   
     6    2    4 1   
     7    3   19 1   
     8    4   20 1   
     9    4   21 1   
    10    4   22 1   
    11    5    6 1   
    12    5   25 1   
    13    5   26 1   
    14    6    7 1   
    15    6   15 1   
    16    8   11 1   
    17    9   13 1   
    18   10   11 1   
    19   12   13 1   
    20   12   23 1   
    21   12   24 1   
    22   13   14 1   
    23   14   15 1   
    24   14   28 1   
@<TRIPOS>SUBSTRUCTURE
     1 L21         1 TEMP              0 ****  ****    0 ROOT
