@<TRIPOS>MOLECULE
L21
   28    29     1     0     0
SMALL
bcc


@<TRIPOS>ATOM
      1 C14        -4.2120    0.0580   -1.0950 c3        1 L21     -0.070900
      2 C13        -3.7220    0.1350    0.3020 c2        1 L21     -0.076400
      3 C15        -2.4560   -0.1350    0.6580 c2        1 L21     -0.234200
      4 C12        -4.7350    0.5280    1.3150 c3        1 L21     -0.070900
      5 C6          2.4560    1.1570    0.3760 cc        1 L21      0.776200
      6 C5          2.3870   -0.1500   -0.1630 cd        1 L21     -0.173900
      7 N9          3.3540   -1.0660   -0.5670 nd        1 L21     -0.589100
      8 C4          1.0550   -0.7750   -0.3920 cd        1 L21     -0.025300
      9 N7          1.2310   -2.0240   -0.9190 nc        1 L21     -0.427300
     10 C8          2.6310   -2.1350   -0.9970 cc        1 L21      0.530200
     11 C80        -1.4130   -0.6050   -0.3010 c3        1 L21      0.062500
     12 N3         -0.0890   -0.0550   -0.0650 na        1 L21     -0.182900
     13 C2          0.1070    1.2110    0.4460 cd        1 L21      0.573400
     14 N1          1.2630    1.8250    0.6750 nc        1 L21     -0.780000
     15 H141       -4.0630   -0.9730   -1.5060 hc        1 L21      0.049700
     16 H142       -5.3010    0.3040   -1.1560 hc        1 L21      0.049700
     17 H143       -3.6550    0.7770   -1.7480 hc        1 L21      0.049700
     18 H15        -2.1480   -0.0760    1.7150 ha        1 L21      0.136000
     19 H121       -5.5680   -0.2190    1.3280 hc        1 L21      0.049700
     20 H122       -4.2970    0.5870    2.3410 hc        1 L21      0.049700
     21 H123       -5.1660    1.5270    1.0550 hc        1 L21      0.049700
     22 H801       -1.3430   -1.7320   -0.2230 h1        1 L21      0.084700
     23 H802       -1.7020   -0.3510   -1.3650 h1        1 L21      0.084700
     24 H101        4.4860    1.2750    0.3840 hn        1 L21      0.454800
     25 H102        3.7050    2.6810    0.9790 hn        1 L21      0.454800
     26 H8          3.0940   -3.0480   -1.3890 h5        1 L21      0.058800
     27 H2         -0.8130    1.7850    0.6980 h5        1 L21      0.060100
     28 N10         3.6550    1.7660    0.6050 nh        1 L21     -0.943500
@<TRIPOS>BOND
     1    1    2 1   
     2    1   15 1   
     3    1   16 1   
     4    1   17 1   
     5    2    3 2   
     6    2    4 1   
     7    3   11 1   
     8    3   18 1   
     9    4   19 1   
    10    4   20 1   
    11    4   21 1   
    12    5    6 2   
    13    5   14 1   
    14    5   28 1   
    15    6    7 1   
    16    6    8 1   
    17    7   10 2   
    18    8    9 2   
    19    8   12 1   
    20    9   10 1   
    21   10   26 1   
    22   11   12 1   
    23   11   22 1   
    24   11   23 1   
    25   12   13 1   
    26   13   14 2   
    27   13   27 1   
    28   24   28 1   
    29   25   28 1   
@<TRIPOS>SUBSTRUCTURE
     1 L21         1 TEMP              0 ****  ****    0 ROOT
