@<TRIPOS>MOLECULE
L21
   29    27     1     0     0
SMALL
bcc


@<TRIPOS>ATOM
      1 C14         0.5250   -1.4980   -0.1820 c2        1 L21     -0.256100
      2 C13         1.3800   -0.8320   -0.8980 c1        1 L21     -0.046800
      3 C15         2.0150    1.7760    2.7340 c3        1 L21     -0.124100
      4 C12         2.2130   -0.1770   -1.6480 c2        1 L21     -0.256100
      5 C6          2.3330   -3.5040    4.5030 c3        1 L21      0.538700
      6 C5          3.4020   -2.3370    4.4430 ce        1 L21      0.274000
      7 N9          4.4290   -2.3390    5.1830 n2        1 L21     -0.664100
      8 C4          3.0390   -1.2540    3.4160 ce        1 L21      0.617300
      9 N7          3.9130   -1.0630    2.3900 n1        1 L21     -0.983400
     10 C8          4.6940   -0.9460    1.4830 c1        1 L21      0.747800
     11 C80         1.3630    0.4110    2.6240 c3        1 L21     -0.029700
     12 N3          1.8940   -0.5910    3.5430 nh        1 L21     -0.234100
     13 C2          1.2710   -3.9740    2.1730 c1        1 L21      0.554800
     14 N1          1.7770   -3.6810    3.2060 n1        1 L21     -0.921300
     15 H141        1.4540    0.0170    1.5630 h1        1 L21      0.109700
     16 H142       -0.5110   -1.1540   -0.0420 ha        1 L21      0.140750
     17 H143        0.7630   -2.4730    0.2750 ha        1 L21      0.140750
     18 H15         1.4970    2.4610    2.0150 hc        1 L21      0.073367
     19 H121        1.9090    2.2030    3.7610 hc        1 L21      0.073367
     20 H122        2.2840   -0.3600   -2.7330 ha        1 L21      0.140750
     21 H123        2.8900    0.5970   -1.2610 ha        1 L21      0.140750
     22 H801        3.0980    1.7430    2.4670 hc        1 L21      0.073367
     23 H802        0.2610    0.5040    2.8600 h1        1 L21      0.109700
     24 H101        1.5100   -3.0950    5.1820 h2        1 L21      0.090700
     25 H102        3.5380   -5.1810    4.5980 hn        1 L21      0.409800
     26 H8          5.0870   -1.5890    5.1550 hn        1 L21      0.447400
     27 H2          1.3260   -0.8010    4.3480 hn        1 L21      0.334700
     28 H103        3.0480   -4.5930    6.0680 hn        1 L21      0.409800
     29 N10         2.8140   -4.7180    5.1050 n3        1 L21     -0.913800
@<TRIPOS>BOND
     1    1    2 2   
     2    1   16 1   
     3    1   17 1   
     4    2    4 2   
     5    3   11 1   
     6    3   18 1   
     7    3   19 1   
     8    3   22 1   
     9    4   20 1   
    10    4   21 1   
    11    5    6 1   
    12    5   14 1   
    13    5   24 1   
    14    5   29 1   
    15    6    7 2   
    16    6    8 1   
    17    7   26 1   
    18    8    9 1   
    19    8   12 2   
    20    9   10 3   
    21   11   12 1   
    22   11   15 1   
    23   11   23 1   
    24   12   27 1   
    25   13   14 3   
    26   25   29 1   
    27   28   29 1   
@<TRIPOS>SUBSTRUCTURE
     1 L21         1 TEMP              0 ****  ****    0 ROOT
