@<TRIPOS>MOLECULE
L22
   22    23     1     0     0
SMALL
bcc


@<TRIPOS>ATOM
      1 N13         0.0010    0.2660    0.1410 n4        1 L22     -0.773300
      2 C10         1.4330    0.0380    0.0640 cc        1 L22      0.295300
      3 S9          2.4340   -0.3560    1.3930 ss        1 L22      0.284700
      4 C5          3.7470   -0.4100    0.4300 cc        1 L22     -0.218400
      5 N6          2.0880    0.1290   -1.1300 nd        1 L22     -0.561000
      6 C2          3.4210   -0.1290   -0.9180 cd        1 L22      0.281300
      7 C1          4.3900   -0.1030   -2.0280 ca        1 L22      0.432300
      8 C4          3.9570   -0.2610   -3.3640 ca        1 L22     -0.264600
      9 C8          4.9390   -0.2230   -4.3780 ca        1 L22      0.477200
     10 N11         6.2460   -0.0460   -4.1150 nb        1 L22     -0.637000
     11 C7          6.5620    0.0950   -2.7840 ca        1 L22      0.706900
     12 N3          5.7070    0.0760   -1.7160 nb        1 L22     -0.669000
     13 N12         8.0100    0.2920   -2.4770 n4        1 L22     -0.815300
     14 H131       -0.4990   -0.4360   -0.4270 hn        1 L22      0.484133
     15 H132       -0.2270    1.2050   -0.2260 hn        1 L22      0.484133
     16 H5          4.7650   -0.6360    0.7740 h4        1 L22      0.236000
     17 H4          2.8960   -0.4080   -3.6220 ha        1 L22      0.208000
     18 H8          4.6780   -0.3390   -5.4540 h4        1 L22      0.095100
     19 H121        8.3590   -0.5220   -1.9530 hn        1 L22      0.489800
     20 H122        8.1300    1.1430   -1.9120 hn        1 L22      0.489800
     21 H133       -0.3090    0.1990    1.1170 hn        1 L22      0.484133
     22 H123        8.5440    0.3860   -3.3560 hn        1 L22      0.489800
@<TRIPOS>BOND
     1    1    2 1   
     2    1   14 1   
     3    1   15 1   
     4    1   21 1   
     5    2    3 1   
     6    2    5 2   
     7    3    4 1   
     8    4    6 2   
     9    4   16 1   
    10    5    6 1   
    11    6    7 1   
    12    7    8 ar  
    13    7   12 ar  
    14    8    9 ar  
    15    8   17 1   
    16    9   10 ar  
    17    9   18 1   
    18   10   11 ar  
    19   11   12 ar  
    20   11   13 1   
    21   13   19 1   
    22   13   20 1   
    23   13   22 1   
@<TRIPOS>SUBSTRUCTURE
     1 L22         1 TEMP              0 ****  ****    0 ROOT
