@<TRIPOS>MOLECULE
L22
   20    17     1     0     0
SMALL
bcc


@<TRIPOS>ATOM
      1 N13        -3.8010   -1.5840    1.9370 n3        1 L22     -0.280000
      2 C10        -2.6420   -0.8420    1.6690 c2        1 L22     -0.181000
      3 S9         -2.1570    0.4180    2.4600 ss        1 L22      0.493000
      4 C5         -0.8560    0.8760    1.8290 c1        1 L22     -0.423000
      5 N6         -1.6900   -1.1100    0.6390 n2        1 L22     -0.146000
      6 C2         -0.5500   -0.0340    0.7230 c2        1 L22     -0.041000
      7 C1          0.5950    0.0460   -0.1380 c1        1 L22      0.124000
      8 C4          1.7090   -0.6460    0.1590 c1        1 L22     -0.255000
      9 C8          2.8250   -0.5400   -0.6490 c1        1 L22     -0.009000
     10 N11         2.7960    0.2470   -1.7200 n1        1 L22     -0.219000
     11 C7          1.6640    0.9480   -2.0200 c1        1 L22      0.141000
     12 N3          0.5670    0.8420   -1.2230 n1        1 L22     -0.227000
     13 N12         1.6130    1.7340   -3.1730 n3        1 L22     -0.320000
     14 H131       -3.9330   -2.4400    1.5220 hn        1 L22      0.188000
     15 H132       -4.4250   -1.2540    2.4970 hn        1 L22      0.188000
     16 H5         -0.3040    1.6600    2.1170 DU        1 L22      0.199000
     17 H4          1.7300   -1.2190    0.9390 ha        1 L22      0.170000
     18 H8          3.6290   -1.0390   -0.4350 ha        1 L22      0.163000
     19 H121        2.3710    1.8050   -3.7310 hn        1 L22      0.218000
     20 H122        0.8600    2.1310   -3.4010 hn        1 L22      0.218000
@<TRIPOS>BOND
     1    1    2 1   
     2    1   14 1   
     3    1   15 1   
     4    2    3 1   
     5    2    5 1   
     6    3    4 1   
     7    4    6 1   
     8    5    6 1   
     9    6    7 1   
    10    7    8 1   
    11    8   17 1   
    12    9   10 1   
    13    9   18 1   
    14   11   12 1   
    15   11   13 1   
    16   13   19 1   
    17   13   20 1   
@<TRIPOS>SUBSTRUCTURE
     1 L22         1 TEMP              0 ****  ****    0 ROOT
