@<TRIPOS>MOLECULE
L22
   20    21     1     0     0
SMALL
bcc


@<TRIPOS>ATOM
      1 N13         0.0090   -0.2320    0.1740 nv        1 L22     -0.882500
      2 C10         1.3940   -0.1170    0.0160 cc        1 L22      0.589300
      3 S9          2.3890    0.2970    1.3950 ss        1 L22     -0.091300
      4 C5          3.7400    0.3610    0.4250 cc        1 L22     -0.218400
      5 N6          2.0780   -0.1880   -1.1410 nd        1 L22     -0.672000
      6 C2          3.4210    0.1000   -0.9040 cd        1 L22      0.287300
      7 C1          4.3980    0.1080   -2.0060 ca        1 L22      0.452300
      8 C4          3.9700    0.3590   -3.3280 ca        1 L22     -0.385600
      9 C8          4.9600    0.3470   -4.3270 ca        1 L22      0.456200
     10 N11         6.2580    0.1250   -4.0850 nb        1 L22     -0.745000
     11 C7          6.6000   -0.0880   -2.7500 ca        1 L22      0.859900
     12 N3          5.6980   -0.1250   -1.6970 nb        1 L22     -0.753000
     13 N12         7.9620   -0.2090   -2.4390 nv        1 L22     -0.922500
     14 H131       -0.4890   -0.3090   -0.6920 hn        1 L22      0.392800
     15 H132       -0.2330   -0.9770    0.7980 hn        1 L22      0.392800
     16 H5          4.7440    0.5740    0.7930 h4        1 L22      0.199000
     17 H4          2.9180    0.5460   -3.5700 ha        1 L22      0.170000
     18 H8          4.6970    0.5210   -5.3870 h4        1 L22      0.026100
     19 H121        8.1760   -0.6280   -1.5640 hn        1 L22      0.422800
     20 H122        8.5600   -0.4550   -3.1940 hn        1 L22      0.422800
@<TRIPOS>BOND
     1    1    2 1   
     2    1   14 1   
     3    1   15 1   
     4    2    3 1   
     5    2    5 2   
     6    3    4 1   
     7    4    6 2   
     8    4   16 1   
     9    5    6 1   
    10    6    7 1   
    11    7    8 ar  
    12    7   12 ar  
    13    8    9 ar  
    14    8   17 1   
    15    9   10 ar  
    16    9   18 1   
    17   10   11 ar  
    18   11   12 ar  
    19   11   13 1   
    20   13   19 1   
    21   13   20 1   
@<TRIPOS>SUBSTRUCTURE
     1 L22         1 TEMP              0 ****  ****    0 ROOT
