@<TRIPOS>MOLECULE
L22
   20    21     1     0     0
SMALL
bcc


@<TRIPOS>ATOM
      1 N13         3.9950   -1.2260    0.1630 nh        1 L22     -0.882500
      2 C10         2.8010   -0.5090    0.0370 cc        1 L22      0.589300
      3 S9          2.8470    1.1580   -0.4940 ss        1 L22     -0.091300
      4 C5          1.1840    1.2190   -0.5080 cc        1 L22     -0.218400
      5 N6          1.5540   -0.9950    0.1820 nd        1 L22     -0.672000
      6 C2          0.6300   -0.0040   -0.1450 cd        1 L22      0.287300
      7 C1         -0.8180   -0.2730   -0.0880 ca        1 L22      0.452300
      8 C4         -1.2970   -1.5930   -0.2350 ca        1 L22     -0.385600
      9 C8         -2.6910   -1.7710   -0.1660 ca        1 L22      0.456200
     10 N11        -3.5610   -0.7690    0.0170 nb        1 L22     -0.745000
     11 C7         -3.0060    0.5050    0.1260 ca        1 L22      0.859900
     12 N3         -1.6470    0.7830    0.1010 nb        1 L22     -0.753000
     13 N12        -3.8870    1.5930    0.2020 nh        1 L22     -0.922500
     14 H131        4.5920   -0.8320    0.8640 hn        1 L22      0.392800
     15 H132        3.8590   -2.2080    0.3120 hn        1 L22      0.392800
     16 H5          0.6090    2.1100   -0.7640 h4        1 L22      0.199000
     17 H4         -0.6210   -2.4410   -0.3870 ha        1 L22      0.170000
     18 H8         -3.1390   -2.7780   -0.2580 h4        1 L22      0.026100
     19 H121       -4.8140    1.3830    0.4930 hn        1 L22      0.422800
     20 H122       -3.5060    2.4420    0.5530 hn        1 L22      0.422800
@<TRIPOS>BOND
     1    1    2 1   
     2    1   14 1   
     3    1   15 1   
     4    2    3 1   
     5    2    5 2   
     6    3    4 1   
     7    4    6 2   
     8    4   16 1   
     9    5    6 1   
    10    6    7 1   
    11    7    8 ar  
    12    7   12 ar  
    13    8    9 ar  
    14    8   17 1   
    15    9   10 ar  
    16    9   18 1   
    17   10   11 ar  
    18   11   12 ar  
    19   11   13 1   
    20   13   19 1   
    21   13   20 1   
@<TRIPOS>SUBSTRUCTURE
     1 L22         1 TEMP              0 ****  ****    0 ROOT
