@<TRIPOS>MOLECULE
L22
   20    21     1     0     0
SMALL
bcc


@<TRIPOS>ATOM
      1 N13         0.0490   -0.3910    0.2360 nh        1 L22     -0.882500
      2 C10         1.4000   -0.0900    0.0310 cc        1 L22      0.587300
      3 S9          2.4120    0.3080    1.4030 ss        1 L22     -0.089300
      4 C5          3.7520    0.3750    0.4190 cc        1 L22     -0.217400
      5 N6          2.0750   -0.1720   -1.1310 nd        1 L22     -0.672000
      6 C2          3.4260    0.0820   -0.9030 cd        1 L22      0.286300
      7 C1          4.3990    0.0500   -2.0080 ca        1 L22      0.453300
      8 C4          3.9580    0.1470   -3.3460 ca        1 L22     -0.385600
      9 C8          4.9480    0.0990   -4.3450 ca        1 L22      0.455200
     10 N11         6.2570   -0.0190   -4.0900 nb        1 L22     -0.745000
     11 C7          6.6110   -0.0810   -2.7420 ca        1 L22      0.859900
     12 N3          5.7110   -0.0720   -1.6870 nb        1 L22     -0.754000
     13 N12         7.9770   -0.0890   -2.4280 nh        1 L22     -0.921500
     14 H131       -0.4570    0.3990    0.5880 hn        1 L22      0.391800
     15 H132       -0.4010   -0.7780   -0.5710 hn        1 L22      0.391800
     16 H5          4.7550    0.6150    0.7730 h4        1 L22      0.199000
     17 H4          2.8980    0.2440   -3.6030 ha        1 L22      0.170000
     18 H8          4.6760    0.1540   -5.4150 h4        1 L22      0.026100
     19 H121        8.5900   -0.3710   -3.1590 hn        1 L22      0.422300
     20 H122        8.2150   -0.4100   -1.5180 hn        1 L22      0.422300
@<TRIPOS>BOND
     1    1    2 1   
     2    1   14 1   
     3    1   15 1   
     4    2    3 1   
     5    2    5 2   
     6    3    4 1   
     7    4    6 2   
     8    4   16 1   
     9    5    6 1   
    10    6    7 1   
    11    7    8 ar  
    12    7   12 ar  
    13    8    9 ar  
    14    8   17 1   
    15    9   10 ar  
    16    9   18 1   
    17   10   11 ar  
    18   11   12 ar  
    19   11   13 1   
    20   13   19 1   
    21   13   20 1   
@<TRIPOS>SUBSTRUCTURE
     1 L22         1 TEMP              0 ****  ****    0 ROOT
