@<TRIPOS>MOLECULE
L23
   35    37     1     0     0
SMALL
bcc


@<TRIPOS>ATOM
      1 CL21       -2.8580    1.3200    2.0750 cl        1 L23     -0.076900
      2 C17        -3.0120   -0.0830    1.1270 ca        1 L23      0.040400
      3 C20        -3.6600   -1.1870    1.6920 ca        1 L23     -0.125000
      4 C22        -3.8070   -2.3570    0.9510 ca        1 L23     -0.101000
      5 C18        -3.3070   -2.4310   -0.3460 ca        1 L23     -0.125000
      6 C16        -2.6560   -1.3260   -0.9050 ca        1 L23      0.040400
      7 CL19       -2.0510   -1.4810   -2.4880 cl        1 L23     -0.076900
      8 C15        -2.5050   -0.1310   -0.1820 ca        1 L23     -0.103300
      9 C11        -1.8470    1.0740   -0.7980 c3        1 L23      0.081600
     10 N7         -0.4670    1.2450   -0.4430 na        1 L23     -0.205900
     11 C3          0.5370    0.2890   -0.5470 cc        1 L23     -0.170600
     12 C8          0.1410    2.4310    0.0460 cc        1 L23      0.405800
     13 C12        -0.6070    3.6920    0.2810 c3        1 L23     -0.124400
     14 N4          1.4660    2.2420    0.2460 nd        1 L23     -0.645000
     15 C1          1.7300    0.9120   -0.1170 cd        1 L23      0.211300
     16 C2          3.0490    0.2920   -0.0490 ca        1 L23      0.472300
     17 C6          4.1390    0.9950    0.5150 ca        1 L23     -0.390600
     18 C10         5.3780    0.3360    0.5330 ca        1 L23      0.454200
     19 N13         5.5700   -0.9040    0.0600 nb        1 L23     -0.752000
     20 C9          4.4410   -1.5380   -0.4540 ca        1 L23      0.855900
     21 N5          3.1820   -0.9660   -0.5440 nb        1 L23     -0.765000
     22 N14         4.5720   -2.8800   -0.8510 nh        1 L23     -0.919500
     23 H20        -4.0500   -1.1310    2.7210 ha        1 L23      0.156000
     24 H22        -4.3150   -3.2270    1.3940 ha        1 L23      0.148000
     25 H18        -3.4180   -3.3590   -0.9290 ha        1 L23      0.156000
     26 H111       -1.9180    1.0040   -1.9250 h1        1 L23      0.078700
     27 H112       -2.4090    2.0020   -0.4810 h1        1 L23      0.078700
     28 H3          0.3560   -0.7260   -0.9030 h4        1 L23      0.197000
     29 H121       -1.4090    3.5280    1.0440 hc        1 L23      0.058700
     30 H122        0.0860    4.4860    0.6560 hc        1 L23      0.058700
     31 H123       -1.0760    4.0460   -0.6700 hc        1 L23      0.058700
     32 H6          4.0250    2.0090    0.9150 ha        1 L23      0.171000
     33 H10         6.2780    0.8290    0.9450 h4        1 L23      0.023100
     34 H141        5.4990   -3.1780   -1.0550 hn        1 L23      0.416800
     35 H142        3.8710   -3.2170   -1.4700 hn        1 L23      0.416800
@<TRIPOS>BOND
     1    1    2 1   
     2    2    3 ar  
     3    2    8 ar  
     4    3    4 ar  
     5    3   23 1   
     6    4    5 ar  
     7    4   24 1   
     8    5    6 ar  
     9    5   25 1   
    10    6    7 1   
    11    6    8 ar  
    12    8    9 1   
    13    9   10 1   
    14    9   26 1   
    15    9   27 1   
    16   10   11 1   
    17   10   12 1   
    18   11   15 2   
    19   11   28 1   
    20   12   13 1   
    21   12   14 2   
    22   13   29 1   
    23   13   30 1   
    24   13   31 1   
    25   14   15 1   
    26   15   16 1   
    27   16   17 ar  
    28   16   21 ar  
    29   17   18 ar  
    30   17   32 1   
    31   18   19 ar  
    32   18   33 1   
    33   19   20 ar  
    34   20   21 ar  
    35   20   22 1   
    36   22   34 1   
    37   22   35 1   
@<TRIPOS>SUBSTRUCTURE
     1 L23         1 TEMP              0 ****  ****    0 ROOT
