@<TRIPOS>MOLECULE
L23
   36    38     1     0     0
SMALL
bcc


@<TRIPOS>ATOM
      1 CL21        0.0290   -0.8220   -0.9570 cl        1 L23     -0.075900
      2 C17         1.6260   -0.6210   -0.4130 ca        1 L23      0.037400
      3 C20         1.9290   -1.0140    0.8960 ca        1 L23     -0.120500
      4 C22         3.2250   -0.8610    1.3810 ca        1 L23     -0.092000
      5 C18         4.2160   -0.3080    0.5730 ca        1 L23     -0.120500
      6 C16         3.9060    0.0890   -0.7320 ca        1 L23      0.037400
      7 CL19        5.1480    0.7790   -1.6710 cl        1 L23     -0.075900
      8 C15         2.6120   -0.0780   -1.2530 ca        1 L23     -0.120300
      9 C11         2.3010    0.2590   -2.6830 c3        1 L23      0.072600
     10 N7          1.6980    1.5520   -2.8750 na        1 L23     -0.186900
     11 C3          2.1670    2.7580   -2.3890 cc        1 L23     -0.126600
     12 C8          0.5240    1.8330   -3.6350 cc        1 L23      0.442800
     13 C12        -0.2640    0.7820   -4.3290 c3        1 L23     -0.137400
     14 N4          0.2600    3.1560   -3.6310 nd        1 L23     -0.641000
     15 C1          1.2730    3.7550   -2.8570 cd        1 L23      0.150300
     16 C2          1.3410    5.1770   -2.6160 ca        1 L23      0.504300
     17 C6          0.3430    6.0490   -3.1460 ca        1 L23     -0.285600
     18 C10         0.4570    7.4190   -2.8830 ca        1 L23      0.449200
     19 N13         1.4690    7.9440   -2.1510 nb        1 L23     -0.683000
     20 C9          2.3700    7.0260   -1.6900 ca        1 L23      0.691900
     21 N5          2.3770    5.6690   -1.8720 nb        1 L23     -0.707000
     22 N14         3.5020    7.5730   -0.8790 n4        1 L23     -0.815300
     23 H20         1.1450   -1.4480    1.5380 ha        1 L23      0.164000
     24 H22         3.4690   -1.1800    2.4070 ha        1 L23      0.158000
     25 H18         5.2410   -0.1880    0.9590 ha        1 L23      0.164000
     26 H111        1.5950   -0.5190   -3.1030 h1        1 L23      0.093200
     27 H112        3.2510    0.2200   -3.2980 h1        1 L23      0.093200
     28 H3          3.0640    2.8380   -1.7720 h4        1 L23      0.198000
     29 H121        0.3770    0.2520   -5.0780 hc        1 L23      0.073700
     30 H122       -0.6500    0.0390   -3.5860 hc        1 L23      0.073700
     31 H123       -1.1330    1.2410   -4.8620 hc        1 L23      0.073700
     32 H6         -0.4910    5.6510   -3.7450 ha        1 L23      0.212000
     33 H10        -0.2800    8.1550   -3.2620 h4        1 L23      0.070100
     34 H141        3.4820    7.1470    0.0540 hn        1 L23      0.476800
     35 H142        4.3880    7.3410   -1.3420 hn        1 L23      0.476800
     36 H143        3.4100    8.5940   -0.7970 hn        1 L23      0.476800
@<TRIPOS>BOND
     1    1    2 1   
     2    2    3 ar  
     3    2    8 ar  
     4    3    4 ar  
     5    3   23 1   
     6    4    5 ar  
     7    4   24 1   
     8    5    6 ar  
     9    5   25 1   
    10    6    7 1   
    11    6    8 ar  
    12    8    9 1   
    13    9   10 1   
    14    9   26 1   
    15    9   27 1   
    16   10   11 1   
    17   10   12 1   
    18   11   15 2   
    19   11   28 1   
    20   12   13 1   
    21   12   14 2   
    22   13   29 1   
    23   13   30 1   
    24   13   31 1   
    25   14   15 1   
    26   15   16 1   
    27   16   17 ar  
    28   16   21 ar  
    29   17   18 ar  
    30   17   32 1   
    31   18   19 ar  
    32   18   33 1   
    33   19   20 ar  
    34   20   21 ar  
    35   20   22 1   
    36   22   34 1   
    37   22   35 1   
    38   22   36 1   
@<TRIPOS>SUBSTRUCTURE
     1 L23         1 TEMP              0 ****  ****    0 ROOT
