@<TRIPOS>MOLECULE
L23
   35    37     1     0     0
SMALL
bcc


@<TRIPOS>ATOM
      1 CL21        0.0310   -0.8140   -0.9900 cl        1 L23     -0.076900
      2 C17         1.6200   -0.5860   -0.4280 ca        1 L23      0.040400
      3 C20         1.9010   -0.9330    0.8980 ca        1 L23     -0.125000
      4 C22         3.1880   -0.7610    1.4000 ca        1 L23     -0.101000
      5 C18         4.1920   -0.2410    0.5870 ca        1 L23     -0.125000
      6 C16         3.9050    0.1080   -0.7370 ca        1 L23      0.040400
      7 CL19        5.1680    0.7540   -1.6770 cl        1 L23     -0.076900
      8 C15         2.6170   -0.0660   -1.2690 ca        1 L23     -0.103300
      9 C11         2.3170    0.2660   -2.7060 c3        1 L23      0.081600
     10 N7          1.7060    1.5490   -2.9060 na        1 L23     -0.205900
     11 C3          2.1700    2.7680   -2.4240 cc        1 L23     -0.170600
     12 C8          0.5360    1.8210   -3.6630 cc        1 L23      0.405800
     13 C12        -0.2480    0.7680   -4.3560 c3        1 L23     -0.124400
     14 N4          0.2650    3.1460   -3.6630 nd        1 L23     -0.645000
     15 C1          1.2720    3.7520   -2.8940 cd        1 L23      0.211300
     16 C2          1.3520    5.1860   -2.6340 ca        1 L23      0.472300
     17 C6          0.3190    6.0480   -3.0690 ca        1 L23     -0.390600
     18 C10         0.4760    7.4160   -2.7930 ca        1 L23      0.454200
     19 N13         1.5300    7.9290   -2.1430 nb        1 L23     -0.752000
     20 C9          2.4900    7.0100   -1.7250 ca        1 L23      0.855900
     21 N5          2.4440    5.6470   -1.9720 nb        1 L23     -0.765000
     22 N14         3.5510    7.4900   -0.9380 nh        1 L23     -0.919500
     23 H20         1.1050   -1.3380    1.5430 ha        1 L23      0.156000
     24 H22         3.4120   -1.0330    2.4430 ha        1 L23      0.148000
     25 H18         5.2090   -0.1010    0.9870 ha        1 L23      0.156000
     26 H111        3.2760    0.2310   -3.3060 h1        1 L23      0.078700
     27 H112        1.6260   -0.5230   -3.1280 h1        1 L23      0.078700
     28 H3          3.0640    2.8610   -1.8070 h4        1 L23      0.197000
     29 H121        0.3930    0.2370   -5.1020 hc        1 L23      0.058700
     30 H122       -0.6360    0.0260   -3.6140 hc        1 L23      0.058700
     31 H123       -1.1170    1.2260   -4.8920 hc        1 L23      0.058700
     32 H6         -0.5600    5.6700   -3.6020 ha        1 L23      0.171000
     33 H10        -0.2850    8.1510   -3.1160 h4        1 L23      0.023100
     34 H141        4.3570    6.9090   -0.9000 hn        1 L23      0.416800
     35 H142        3.7330    8.4650   -1.0130 hn        1 L23      0.416800
@<TRIPOS>BOND
     1    1    2 1   
     2    2    3 ar  
     3    2    8 ar  
     4    3    4 ar  
     5    3   23 1   
     6    4    5 ar  
     7    4   24 1   
     8    5    6 ar  
     9    5   25 1   
    10    6    7 1   
    11    6    8 ar  
    12    8    9 1   
    13    9   10 1   
    14    9   26 1   
    15    9   27 1   
    16   10   11 1   
    17   10   12 1   
    18   11   15 2   
    19   11   28 1   
    20   12   13 1   
    21   12   14 2   
    22   13   29 1   
    23   13   30 1   
    24   13   31 1   
    25   14   15 1   
    26   15   16 1   
    27   16   17 ar  
    28   16   21 ar  
    29   17   18 ar  
    30   17   32 1   
    31   18   19 ar  
    32   18   33 1   
    33   19   20 ar  
    34   20   21 ar  
    35   20   22 1   
    36   22   34 1   
    37   22   35 1   
@<TRIPOS>SUBSTRUCTURE
     1 L23         1 TEMP              0 ****  ****    0 ROOT
