@<TRIPOS>MOLECULE
L23
   35    37     1     0     0
SMALL
bcc


@<TRIPOS>ATOM
      1 Cl21        0.0300   -0.7790   -0.8890 cl        1 L23     -0.076400
      2 C17         1.6370   -0.5580   -0.3780 ca        1 L23      0.039900
      3 C20         1.9540   -0.8900    0.9430 ca        1 L23     -0.125500
      4 C22         3.2580   -0.7230    1.4030 ca        1 L23     -0.101000
      5 C18         4.2420   -0.2240    0.5530 ca        1 L23     -0.125500
      6 C16         3.9180    0.1090   -0.7660 ca        1 L23      0.039900
      7 Cl19        5.1580    0.7300   -1.7520 cl        1 L23     -0.076400
      8 C15         2.6130   -0.0600   -1.2570 ca        1 L23     -0.102300
      9 C11         2.2740    0.2510   -2.6890 c3        1 L23      0.081600
     10 N7          1.6710    1.5370   -2.8930 na        1 L23     -0.205900
     11 C3          2.1660    2.7590   -2.4520 cc        1 L23     -0.170600
     12 C8          0.4830    1.8100   -3.6220 cc        1 L23      0.405800
     13 C12        -0.3360    0.7540   -4.2680 c3        1 L23     -0.124400
     14 N4          0.2310    3.1390   -3.6440 nd        1 L23     -0.645000
     15 C1          1.2690    3.7460   -2.9190 cd        1 L23      0.211300
     16 C2          1.3810    5.1850   -2.7010 ca        1 L23      0.472300
     17 C6          0.4520    6.0700   -3.2950 ca        1 L23     -0.390600
     18 C10         0.6180    7.4380   -3.0250 ca        1 L23      0.454200
     19 N13         1.6000    7.9330   -2.2570 nb        1 L23     -0.752000
     20 C9          2.4880    6.9970   -1.7320 ca        1 L23      0.855900
     21 N5          2.3950    5.6260   -1.9130 nb        1 L23     -0.765000
     22 N14         3.5980    7.4820   -1.0210 nv        1 L23     -0.919500
     23 H20         1.1750   -1.2780    1.6180 ha        1 L23      0.156000
     24 H22         3.5110   -0.9830    2.4430 ha        1 L23      0.148000
     25 H18         5.2720   -0.0890    0.9200 ha        1 L23      0.156000
     26 H111        1.5620   -0.5370   -3.0780 h1        1 L23      0.079200
     27 H112        3.2140    0.1940   -3.3170 h1        1 L23      0.079200
     28 H3          3.0800    2.8540   -1.8650 h4        1 L23      0.197000
     29 H121       -0.7100    0.0310   -3.4990 hc        1 L23      0.058367
     30 H122       -1.2160    1.2120   -4.7850 hc        1 L23      0.058367
     31 H123        0.2740    0.1990   -5.0230 hc        1 L23      0.058367
     32 H6         -0.3630    5.7080   -3.9300 ha        1 L23      0.171000
     33 H10        -0.0790    8.1880   -3.4430 h4        1 L23      0.023100
     34 H141        3.5050    8.4030   -0.6550 hn        1 L23      0.417300
     35 H142        4.0450    6.8290   -0.4190 hn        1 L23      0.417300
@<TRIPOS>BOND
     1    1    2 1   
     2    2    3 ar  
     3    2    8 ar  
     4    3    4 ar  
     5    3   23 1   
     6    4    5 ar  
     7    4   24 1   
     8    5    6 ar  
     9    5   25 1   
    10    6    7 1   
    11    6    8 ar  
    12    8    9 1   
    13    9   10 1   
    14    9   26 1   
    15    9   27 1   
    16   10   11 1   
    17   10   12 1   
    18   11   15 2   
    19   11   28 1   
    20   12   13 1   
    21   12   14 2   
    22   13   29 1   
    23   13   30 1   
    24   13   31 1   
    25   14   15 1   
    26   15   16 1   
    27   16   17 ar  
    28   16   21 ar  
    29   17   18 ar  
    30   17   32 1   
    31   18   19 ar  
    32   18   33 1   
    33   19   20 ar  
    34   20   21 ar  
    35   20   22 1   
    36   22   34 1   
    37   22   35 1   
@<TRIPOS>SUBSTRUCTURE
     1 L23         1 TEMP              0 ****  ****    0 ROOT
