@<TRIPOS>MOLECULE
L23
   35    30     1     0     0
SMALL
bcc


@<TRIPOS>ATOM
      1 CL21       -0.6760    2.9590    0.7400 cl        1 L23      0.004000
      2 C17        -2.1340    2.0800    1.1100 c2        1 L23     -0.035000
      3 C20        -3.3700    2.6100    0.7650 c2        1 L23     -0.125000
      4 C22        -4.5350    1.9250    1.0900 c1        1 L23     -0.102000
      5 C18        -4.4630    0.7120    1.7590 c1        1 L23     -0.126000
      6 C16        -3.2250    0.1820    2.1040 c1        1 L23     -0.045000
      7 CL19       -3.1350   -1.3360    2.9560 cl        1 L23      0.000000
      8 C15        -2.0610    0.8660    1.7790 c2        1 L23     -0.095000
      9 C11        -0.6970    0.3170    2.2280 c3        1 L23      0.015000
     10 N7          0.2030    0.2740    1.0950 n3        1 L23     -0.156000
     11 C3          0.2370   -0.6820    0.1560 c1        1 L23     -0.120000
     12 C8          1.2580    1.1060    0.8830 c1        1 L23     -0.044000
     13 C12         1.6630    2.2720    1.7660 c2        1 L23     -0.149000
     14 N4          1.9450    0.6500   -0.2020 n2        1 L23     -0.089000
     15 C1          1.3250   -0.4460   -0.6530 c2        1 L23     -0.102000
     16 C2          1.7360   -1.2390   -1.7450 c1        1 L23      0.146000
     17 C6          1.3390   -0.9140   -3.0100 c1        1 L23     -0.149500
     18 C10         1.8060   -1.6290   -4.0770 c1        1 L23     -0.149500
     19 N13         2.6550   -2.6520   -3.8800 n1        1 L23     -0.229000
     20 C9          3.0520   -2.9770   -2.6170 c1        1 L23      0.141000
     21 N5          2.5860   -2.2630   -1.5500 n1        1 L23     -0.196000
     22 N14         4.0040   -4.0150   -2.4160 n3        1 L23     -0.321000
     23 H20        -3.4210    3.4650    0.2940 ha        1 L23      0.157000
     24 H22        -5.4040    2.2970    0.8480 ha        1 L23      0.148000
     25 H18        -5.2820    0.2300    1.9870 ha        1 L23      0.156000
     26 H111       -0.3230    0.8990    2.9200 h1        1 L23      0.118500
     27 H112       -0.8120   -0.5870    2.5890 h1        1 L23      0.118500
     28 H3         -0.4000   -1.4190    0.0620 DU        1 L23      0.185000
     29 H121        1.6440    3.1000    1.2430 ha        1 L23      0.098333
     30 H122        1.0400    2.3450    2.5140 ha        1 L23      0.098333
     31 H123        2.5710    2.1230    2.1100 ha        1 L23      0.098333
     32 H6          0.7220   -0.1700   -3.1530 ha        1 L23      0.153500
     33 H10         1.5220   -1.3960   -4.9860 ha        1 L23      0.153500
     34 H141        4.2750   -4.2280   -1.5720 hn        1 L23      0.219000
     35 H142        4.3550   -4.4600   -3.1360 hn        1 L23      0.219000
@<TRIPOS>BOND
     1    1    2 1   
     2    2    3 1   
     3    2    8 1   
     4    3    4 1   
     5    3   23 1   
     6    4   24 1   
     7    5    6 1   
     8    5   25 1   
     9    6    8 1   
    10    8    9 1   
    11    9   10 1   
    12    9   26 1   
    13    9   27 1   
    14   10   11 1   
    15   10   12 1   
    16   11   15 1   
    17   12   14 1   
    18   13   29 1   
    19   13   30 1   
    20   13   31 1   
    21   14   15 1   
    22   15   16 1   
    23   16   21 1   
    24   17   18 1   
    25   17   32 1   
    26   18   33 1   
    27   19   20 1   
    28   20   22 1   
    29   22   34 1   
    30   22   35 1   
@<TRIPOS>SUBSTRUCTURE
     1 L23         1 TEMP              0 ****  ****    0 ROOT
