@<TRIPOS>MOLECULE
L24
   57    59     1     0     0
SMALL
bcc


@<TRIPOS>ATOM
      1 N2A         2.5430   -2.7470   -0.5930 nh        1 L24     -0.929500
      2 N1          4.2660   -1.1520   -0.9400 nb        1 L24     -0.834000
      3 C2          3.2860   -1.6640   -0.1100 ca        1 L24      0.927900
      4 N3          3.0090   -1.2310    1.1790 nb        1 L24     -0.857000
      5 C4          3.8160   -0.2440    1.6450 ca        1 L24      0.709600
      6 O4A         3.6060    0.2360    2.9150 oh        1 L24     -0.615300
      7 C5          4.8700    0.3430    0.9120 ca        1 L24     -0.436900
      8 C6          5.0690   -0.1740   -0.4100 ca        1 L24      0.739200
      9 N7          6.1330    0.2920   -1.1710 nh        1 L24     -0.861900
     10 C8          6.8440    1.4710   -0.7550 c3        1 L24      0.217800
     11 C9          7.0360    1.5560    0.7660 c3        1 L24     -0.077700
     12 C10         5.6880    1.4430    1.4650 c3        1 L24      0.006900
     13 C11         7.7420    2.8580    1.1060 c3        1 L24     -0.070400
     14 C12         8.2840    2.8800    2.5240 c3        1 L24     -0.044100
     15 C1B         9.4470    1.9680    2.7060 ca        1 L24     -0.048300
     16 C2B        10.7340    2.3820    2.3400 ca        1 L24     -0.136500
     17 C3B        11.8250    1.5360    2.5160 ca        1 L24     -0.084500
     18 C4B        11.6390    0.2560    3.0550 ca        1 L24     -0.151600
     19 C5B        10.3590   -0.1600    3.4320 ca        1 L24     -0.084500
     20 C6B         9.2710    0.6930    3.2580 ca        1 L24     -0.136500
     21 C7B        12.8430   -0.6020    3.2260 c         1 L24      0.678700
     22 O7B        13.9660   -0.1230    3.4880 o         1 L24     -0.603100
     23 N          12.6810   -1.9710    3.0890 n         1 L24     -0.577900
     24 CA         13.8000   -2.8760    3.1050 c3        1 L24      0.071700
     25 CB         13.9780   -3.6280    4.4390 c3        1 L24     -0.091400
     26 CG         14.6540   -2.7390    5.4620 c3        1 L24     -0.183400
     27 CD         14.5050   -3.2990    6.8440 c         1 L24      0.625100
     28 OE1        13.2790   -3.2570    7.4510 oh        1 L24     -0.583100
     29 OE2        15.3810   -3.8110    7.5390 o         1 L24     -0.482000
     30 C          13.7190   -3.9300    2.0060 c         1 L24      0.616100
     31 O          12.4770   -4.4320    1.7600 oh        1 L24     -0.612100
     32 OXT        14.6530   -4.3870    1.3460 o         1 L24     -0.527000
     33 HN21       12.5270   -5.0990    1.0540 ho        1 L24      0.453000
     34 HN22        1.6860   -2.9420   -0.1300 hn        1 L24      0.427800
     35 HO4         2.8670   -0.2460    3.3250 ho        1 L24      0.443000
     36 HN7         6.1590    0.0670   -2.1400 hn        1 L24      0.442800
     37 H81         7.8540    1.4460   -1.2560 h1        1 L24      0.041200
     38 H82         6.3060    2.4010   -1.1030 h1        1 L24      0.041200
     39 H9          7.6860    0.6970    1.0990 hc        1 L24      0.069700
     40 H101        5.8480    1.2740    2.5650 hc        1 L24      0.051700
     41 H102        5.1240    2.4100    1.3610 hc        1 L24      0.051700
     42 H111        8.5900    3.0180    0.3880 hc        1 L24      0.047200
     43 H112        7.0280    3.7150    0.9810 hc        1 L24      0.047200
     44 H121        7.4660    2.6030    3.2420 hc        1 L24      0.057700
     45 H122        8.6010    3.9300    2.7690 hc        1 L24      0.057700
     46 H2B        10.8830    3.3860    1.9140 ha        1 L24      0.142500
     47 H3B        12.8410    1.8660    2.2450 ha        1 L24      0.146000
     48 H5B        10.1930   -1.1510    3.8820 ha        1 L24      0.146000
     49 H6B         8.2630    0.3620    3.5550 ha        1 L24      0.142500
     50 HN         11.7950   -2.3460    2.8430 hn        1 L24      0.331500
     51 HA         14.7490   -2.2800    2.9080 h1        1 L24      0.122700
     52 HB1        14.6140   -4.5350    4.2560 hc        1 L24      0.067700
     53 HB2        12.9850   -3.9850    4.8200 hc        1 L24      0.067700
     54 HG1        15.7490   -2.6490    5.2260 hc        1 L24      0.093700
     55 HG2        14.2220   -1.7000    5.4330 hc        1 L24      0.093700
     56 H2A3        2.5620   -2.9000   -1.5740 hn        1 L24      0.427800
     57 H2         12.6400   -2.8270    6.8660 ho        1 L24      0.423000
@<TRIPOS>BOND
     1    1    3 1   
     2    1   34 1   
     3    1   56 1   
     4    2    3 ar  
     5    2    8 ar  
     6    3    4 ar  
     7    4    5 ar  
     8    5    6 1   
     9    5    7 ar  
    10    6   35 1   
    11    7    8 ar  
    12    7   12 1   
    13    8    9 1   
    14    9   10 1   
    15    9   36 1   
    16   10   11 1   
    17   10   37 1   
    18   10   38 1   
    19   11   12 1   
    20   11   13 1   
    21   11   39 1   
    22   12   40 1   
    23   12   41 1   
    24   13   14 1   
    25   13   42 1   
    26   13   43 1   
    27   14   15 1   
    28   14   44 1   
    29   14   45 1   
    30   15   16 ar  
    31   15   20 ar  
    32   16   17 ar  
    33   16   46 1   
    34   17   18 ar  
    35   17   47 1   
    36   18   19 ar  
    37   18   21 1   
    38   19   20 ar  
    39   19   48 1   
    40   20   49 1   
    41   21   22 2   
    42   21   23 1   
    43   23   24 1   
    44   23   50 1   
    45   24   25 1   
    46   24   30 1   
    47   24   51 1   
    48   25   26 1   
    49   25   52 1   
    50   25   53 1   
    51   26   27 1   
    52   26   54 1   
    53   26   55 1   
    54   27   28 1   
    55   27   29 2   
    56   28   57 1   
    57   30   31 1   
    58   30   32 2   
    59   31   33 1   
@<TRIPOS>SUBSTRUCTURE
     1 L24         1 TEMP              0 ****  ****    0 ROOT
