@<TRIPOS>MOLECULE
L24
   55    57     1     0     0
SMALL
bcc


@<TRIPOS>ATOM
      1 N2A        -0.9230    0.9430   10.0790 nh        1 L24     -0.917500
      2 N1         -1.4370    0.7290    7.7650 nb        1 L24     -0.836000
      3 C2         -0.4760    0.7380    8.7560 ca        1 L24      0.905900
      4 N3          0.8780    0.5130    8.5760 nb        1 L24     -0.862000
      5 C4          1.2520    0.2220    7.3010 ca        1 L24      0.698600
      6 O4A         2.5820   -0.0160    7.0450 oh        1 L24     -0.609300
      7 C5          0.3720    0.1540    6.2030 ca        1 L24     -0.412900
      8 C6         -1.0110    0.4070    6.4980 ca        1 L24      0.736200
      9 N7         -1.9550    0.2870    5.4930 nh        1 L24     -0.858900
     10 C8         -1.5320    0.1860    4.1190 c3        1 L24      0.210800
     11 C9         -0.2630   -0.6570    3.9340 c3        1 L24     -0.072700
     12 C10         0.8460   -0.1240    4.8300 c3        1 L24     -0.002100
     13 C11         0.1720   -0.6360    2.4780 c3        1 L24     -0.077400
     14 C12        -0.6640   -1.5660    1.6180 c3        1 L24     -0.026100
     15 C1B        -0.3010   -1.4480    0.1790 ca        1 L24     -0.104300
     16 C2B         0.8890   -2.0100   -0.2970 ca        1 L24     -0.145000
     17 C3B         1.2300   -1.9010   -1.6430 ca        1 L24     -0.094500
     18 C4B         0.3870   -1.2210   -2.5280 ca        1 L24     -0.104600
     19 C5B        -0.8070   -0.6660   -2.0600 ca        1 L24     -0.094500
     20 C6B        -1.1480   -0.7810   -0.7120 ca        1 L24     -0.145000
     21 C7B         0.7740   -1.1330   -3.9820 c         1 L24      0.650700
     22 O7B         1.1950   -2.1670   -4.5560 o         1 L24     -0.659100
     23 N           0.5840    0.0750   -4.5780 n         1 L24     -0.482900
     24 CA          0.9940    0.4120   -5.9310 c3        1 L24     -0.040300
     25 CB         -0.1840    0.9390   -6.7680 c3        1 L24     -0.056400
     26 CG         -1.1970   -0.1270   -7.1140 c3        1 L24     -0.182400
     27 CD         -2.5100    0.4570   -7.6510 c         1 L24      0.904600
     28 OE1        -2.8700    0.1560   -8.8300 o         1 L24     -0.874300
     29 OE2        -3.2200    1.1840   -6.8920 o         1 L24     -0.874300
     30 C           2.1240    1.5000   -5.9130 c         1 L24      0.904600
     31 O           2.9380    1.5010   -6.8760 o         1 L24     -0.851800
     32 OXT         2.1790    2.3090   -4.9400 o         1 L24     -0.851800
     33 HN21       -1.8080    1.3900   10.1590 hn        1 L24      0.409800
     34 HN22       -0.2300    1.2800   10.7080 hn        1 L24      0.409800
     35 HO4         3.0840    0.0470    7.8740 ho        1 L24      0.435000
     36 HN7        -2.8760    0.6230    5.6600 hn        1 L24      0.439800
     37 H81        -1.3500    1.2160    3.6920 h1        1 L24      0.050200
     38 H82        -2.3790   -0.2840    3.5430 h1        1 L24      0.050200
     39 H9         -0.4880   -1.7190    4.2340 hc        1 L24      0.060700
     40 H101        1.2640    0.8220    4.3870 hc        1 L24      0.058200
     41 H102        1.6880   -0.8670    4.8650 hc        1 L24      0.058200
     42 H111        0.1090    0.4090    2.0750 hc        1 L24      0.055200
     43 H112        1.2480   -0.9490    2.4110 hc        1 L24      0.055200
     44 H121       -0.5090   -2.6250    1.9590 hc        1 L24      0.035700
     45 H122       -1.7530   -1.3300    1.7560 hc        1 L24      0.035700
     46 H2B         1.5560   -2.5400    0.3970 ha        1 L24      0.115000
     47 H3B         2.1570   -2.3520   -2.0290 ha        1 L24      0.157000
     48 H5B        -1.4840   -0.1420   -2.7560 ha        1 L24      0.157000
     49 H6B        -2.0900   -0.3440   -0.3520 ha        1 L24      0.115000
     50 HN          0.4440    0.8740   -3.9960 hn        1 L24      0.318500
     51 HA          1.4070   -0.5150   -6.4200 h1        1 L24      0.069700
     52 HB1        -0.6970    1.7770   -6.2280 hc        1 L24      0.050200
     53 HB2         0.2570    1.3630   -7.7080 hc        1 L24      0.050200
     54 HG1        -0.7670   -0.8250   -7.8770 hc        1 L24      0.018700
     55 HG2        -1.4490   -0.7310   -6.2050 hc        1 L24      0.018700
@<TRIPOS>BOND
     1    1    3 1   
     2    1   33 1   
     3    1   34 1   
     4    2    3 ar  
     5    2    8 ar  
     6    3    4 ar  
     7    4    5 ar  
     8    5    6 1   
     9    5    7 ar  
    10    6   35 1   
    11    7    8 ar  
    12    7   12 1   
    13    8    9 1   
    14    9   10 1   
    15    9   36 1   
    16   10   11 1   
    17   10   37 1   
    18   10   38 1   
    19   11   12 1   
    20   11   13 1   
    21   11   39 1   
    22   12   40 1   
    23   12   41 1   
    24   13   14 1   
    25   13   42 1   
    26   13   43 1   
    27   14   15 1   
    28   14   44 1   
    29   14   45 1   
    30   15   16 ar  
    31   15   20 ar  
    32   16   17 ar  
    33   16   46 1   
    34   17   18 ar  
    35   17   47 1   
    36   18   19 ar  
    37   18   21 1   
    38   19   20 ar  
    39   19   48 1   
    40   20   49 1   
    41   21   22 2   
    42   21   23 1   
    43   23   24 1   
    44   23   50 1   
    45   24   25 1   
    46   24   30 1   
    47   24   51 1   
    48   25   26 1   
    49   25   52 1   
    50   25   53 1   
    51   26   27 1   
    52   26   54 1   
    53   26   55 1   
    54   27   28 1   
    55   27   29 1   
    56   30   31 1   
    57   30   32 1   
@<TRIPOS>SUBSTRUCTURE
     1 L24         1 TEMP              0 ****  ****    0 ROOT
