@<TRIPOS>MOLECULE
L24
   55    52     1     0     0
SMALL
bcc


@<TRIPOS>ATOM
      1 N2A        -8.2190    1.2170   -4.6580 n3        1 L24     -0.311000
      2 N1         -6.5940    0.3720   -3.0610 n1        1 L24     -0.315000
      3 C2         -7.0800    1.4170   -3.8440 c1        1 L24      0.180000
      4 N3         -6.4940    2.7130   -3.7500 n1        1 L24     -0.343000
      5 C4         -5.4500    2.9380   -2.8880 c1        1 L24      0.192000
      6 O4A        -4.9170    4.2380   -2.7500 oh        1 L24     -0.242000
      7 C5         -4.9740    1.9280   -2.1250 c1        1 L24     -0.273000
      8 C6         -5.5830    0.5810   -2.2240 c1        1 L24      0.223000
      9 N7         -5.3820   -0.3990   -1.0160 n3        1 L24     -0.301000
     10 C8         -4.8100    0.1000    0.0990 c3        1 L24     -0.026000
     11 C9         -3.7330    1.0940   -0.0910 c3        1 L24     -0.114000
     12 C10        -4.0330    2.2040   -0.9210 c3        1 L24     -0.087000
     13 C11        -2.4440    0.3190   -0.7380 c3        1 L24     -0.144000
     14 C12        -1.9050   -0.6770    0.2590 c3        1 L24     -0.114000
     15 C1B        -0.3880   -0.5420    0.3450 c2        1 L24     -0.101000
     16 C2B         0.2270    0.6380   -0.0520 c2        1 L24     -0.164000
     17 C3B         1.5900    0.8040    0.1290 c1        1 L24     -0.098000
     18 C4B         2.3430   -0.2110    0.7060 c1        1 L24     -0.111000
     19 C5B         1.7300   -1.3880    1.1030 c1        1 L24     -0.093000
     20 C6B         0.3640   -1.5550    0.9220 c1        1 L24     -0.144000
     21 C7B         3.8230   -0.0100    0.9480 c2        1 L24      0.332000
     22 O7B         4.3530    1.0400    0.6350 o         1 L24     -0.415000
     23 N           4.5800   -1.0230    1.5930 n         1 L24     -0.295000
     24 CA          5.9950   -0.9390    1.6220 c3        1 L24     -0.064000
     25 CB          6.5230   -1.7370    2.7910 c3        1 L24     -0.154000
     26 CG          8.0050   -1.4690    2.9560 c3        1 L24     -0.219000
     27 CD          8.6470   -2.6240    3.6830 c2        1 L24      0.328000
     28 OE1         9.0740   -3.6170    3.0350 o         1 L24     -0.610000
     29 OE2         8.8070   -2.5710    4.9320 o         1 L24     -0.610000
     30 C           6.5600   -1.4970    0.3360 c2        1 L24      0.338000
     31 O           6.1900   -2.6270   -0.0760 o         1 L24     -0.586000
     32 OXT         7.4280   -0.8440   -0.3070 o         1 L24     -0.586000
     33 HN21       -8.5050    1.8810   -5.2120 hn        1 L24      0.198500
     34 HN22       -8.6970    0.4460   -4.5880 hn        1 L24      0.198500
     35 HO4        -5.4560    4.8270   -3.1560 ho        1 L24      0.229000
     36 HN7        -4.9150   -1.1360   -1.2950 hn        1 L24      0.242000
     37 H81        -5.5130    0.5170    0.6380 h1        1 L24      0.103500
     38 H82        -4.4400   -0.6510    0.6100 h1        1 L24      0.103500
     39 H9         -3.4760    1.4330    0.7860 hc        1 L24      0.134000
     40 H101       -4.4470    2.8930   -0.3660 hc        1 L24      0.093000
     41 H102       -3.1880    2.5590   -1.2700 hc        1 L24      0.093000
     42 H111       -1.7510    0.9680   -0.9570 hc        1 L24      0.075000
     43 H112       -2.7200   -0.1500   -1.5510 hc        1 L24      0.075000
     44 H121       -2.3000   -0.5040    1.1400 hc        1 L24      0.075500
     45 H122       -2.1360   -1.5840   -0.0290 hc        1 L24      0.075500
     46 H2B        -0.3090    1.3690   -0.4140 ha        1 L24      0.106000
     47 H3B         2.0230    1.6350   -0.1510 ha        1 L24      0.133000
     48 H5B         2.2600   -2.1050    1.5010 ha        1 L24      0.240000
     49 H6B        -0.0670   -2.3850    1.2020 ha        1 L24      0.126000
     50 HN          4.1580   -1.7030    2.0180 hn        1 L24      0.223000
     51 HA          6.2660   -0.0000    1.7180 h1        1 L24      0.106000
     52 HB1         6.0510   -1.4710    3.6070 hc        1 L24      0.086000
     53 HB2         6.3790   -2.6890    2.6270 hc        1 L24      0.086000
     54 HG1         8.1330   -0.6480    3.4720 hc        1 L24      0.062500
     55 HG2         8.4170   -1.3690    2.0780 hc        1 L24      0.062500
@<TRIPOS>BOND
     1    1    3 1   
     2    1   33 1   
     3    1   34 1   
     4    2    8 1   
     5    3    4 1   
     6    5    6 1   
     7    5    7 1   
     8    6   35 1   
     9    7   12 1   
    10    8    9 1   
    11    9   10 1   
    12    9   36 1   
    13   10   11 1   
    14   10   37 1   
    15   10   38 1   
    16   11   12 1   
    17   11   13 1   
    18   11   39 1   
    19   12   40 1   
    20   12   41 1   
    21   13   14 1   
    22   13   42 1   
    23   13   43 1   
    24   14   15 1   
    25   14   44 1   
    26   14   45 1   
    27   15   16 1   
    28   15   20 1   
    29   16   17 1   
    30   16   46 1   
    31   17   47 1   
    32   18   19 1   
    33   18   21 1   
    34   19   48 1   
    35   20   49 1   
    36   21   22 1   
    37   21   23 1   
    38   23   24 1   
    39   23   50 1   
    40   24   25 1   
    41   24   30 1   
    42   24   51 1   
    43   25   26 1   
    44   25   52 1   
    45   25   53 1   
    46   26   27 1   
    47   26   54 1   
    48   26   55 1   
    49   27   28 1   
    50   27   29 1   
    51   30   31 1   
    52   30   32 1   
@<TRIPOS>SUBSTRUCTURE
     1 L24         1 TEMP              0 ****  ****    0 ROOT
