@<TRIPOS>MOLECULE
L24
   56    58     1     0     0
SMALL
bcc


@<TRIPOS>ATOM
      1 N2A        -0.0110   -0.1090   -0.4370 nv        1 L24     -0.922500
      2 N1          1.9300   -0.3800    0.9080 nb        1 L24     -0.835000
      3 C2          1.3910   -0.1060   -0.3330 ca        1 L24      0.914900
      4 N3          2.1070    0.2240   -1.4730 nb        1 L24     -0.858000
      5 C4          3.4530    0.3140   -1.3060 ca        1 L24      0.704600
      6 O4A         4.2310    0.6380   -2.3910 oh        1 L24     -0.610300
      7 C5          4.1260    0.0880   -0.0880 ca        1 L24     -0.421900
      8 C6          3.2920   -0.2510    1.0290 ca        1 L24      0.735200
      9 N7          3.8630   -0.4110    2.2830 nu        1 L24     -0.859900
     10 C8          5.2930   -0.5310    2.4030 c3        1 L24      0.212800
     11 C9          6.0590    0.3980    1.4510 c3        1 L24     -0.072700
     12 C10         5.5990    0.1610    0.0190 c3        1 L24      0.000900
     13 C11         7.5560    0.1620    1.5720 c3        1 L24     -0.076400
     14 C12         8.1370    0.8140    2.8140 c3        1 L24     -0.035100
     15 C1B         9.5890    0.5160    2.9550 ca        1 L24     -0.077300
     16 C2B        10.5490    1.4760    2.6180 ca        1 L24     -0.142000
     17 C3B        11.9060    1.1930    2.7590 ca        1 L24     -0.087500
     18 C4B        12.3210   -0.0580    3.2330 ca        1 L24     -0.126600
     19 C5B        11.3630   -1.0170    3.5760 ca        1 L24     -0.087500
     20 C6B        10.0070   -0.7290    3.4380 ca        1 L24     -0.142000
     21 C7B        13.7930   -0.3020    3.3640 c         1 L24      0.642700
     22 O7B        14.5570    0.6580    3.6220 o         1 L24     -0.643100
     23 N          14.2420   -1.6000    3.2680 ns        1 L24     -0.517900
     24 CA         15.6370   -1.9090    3.0070 c3        1 L24     -0.070300
     25 CB         16.3970   -2.3850    4.2500 c3        1 L24     -0.077400
     26 CG         16.6360   -1.2830    5.2650 c3        1 L24     -0.188400
     27 CD         16.0930   -1.6050    6.6210 c         1 L24      0.637100
     28 OE1        16.6810   -1.5200    7.7030 o         1 L24     -0.540000
     29 OE2        14.7960   -2.0220    6.7510 oh        1 L24     -0.603100
     30 C          15.7870   -3.0360    1.9080 c         1 L24      0.914600
     31 O          14.7440   -3.6220    1.5080 o         1 L24     -0.820300
     32 OXT        16.9580   -3.2600    1.5110 o         1 L24     -0.820300
     33 HN21       -0.3750   -0.2180   -1.3560 hn        1 L24      0.417300
     34 HN22       -0.4950   -0.6060    0.2760 hn        1 L24      0.417300
     35 HO4         3.6610    0.7840   -3.1650 ho        1 L24      0.439000
     36 HN7         3.3150   -0.8210    3.0050 hn        1 L24      0.439800
     37 H81         5.5600   -0.2760    3.4680 h1        1 L24      0.044200
     38 H82         5.6160   -1.5960    2.2090 h1        1 L24      0.044200
     39 H9          5.8330    1.4660    1.7290 hc        1 L24      0.063700
     40 H101        5.9840    0.9860   -0.6390 hc        1 L24      0.057200
     41 H102        6.0440   -0.7980   -0.3650 hc        1 L24      0.057200
     42 H111        8.0650    0.5840    0.6650 hc        1 L24      0.054700
     43 H112        7.7710   -0.9390    1.5900 hc        1 L24      0.054700
     44 H121        7.9760    1.9240    2.7610 hc        1 L24      0.043700
     45 H122        7.5930    0.4430    3.7240 hc        1 L24      0.043700
     46 H2B        10.2330    2.4600    2.2420 ha        1 L24      0.126500
     47 H3B        12.6670    1.9490    2.5080 ha        1 L24      0.150500
     48 H5B        11.6660   -2.0030    3.9620 ha        1 L24      0.150500
     49 H6B         9.2580   -1.4880    3.7080 ha        1 L24      0.126500
     50 HN         14.3850   -2.0720    5.8750 ho        1 L24      0.442000
     51 HA         16.1540   -0.9880    2.6100 h1        1 L24      0.065700
     52 HB1        17.3850   -2.7720    3.8780 hc        1 L24      0.064200
     53 HB2        15.8610   -3.2510    4.7190 hc        1 L24      0.064200
     54 HG1        16.1560   -0.3220    4.9230 hc        1 L24      0.088200
     55 HG2        17.7360   -1.0880    5.3690 hc        1 L24      0.088200
     56 H2         13.6230   -2.2660    2.8390 hn        1 L24      0.328500
@<TRIPOS>BOND
     1    1    3 1   
     2    1   33 1   
     3    1   34 1   
     4    2    3 ar  
     5    2    8 ar  
     6    3    4 ar  
     7    4    5 ar  
     8    5    6 1   
     9    5    7 ar  
    10    6   35 1   
    11    7    8 ar  
    12    7   12 1   
    13    8    9 1   
    14    9   10 1   
    15    9   36 1   
    16   10   11 1   
    17   10   37 1   
    18   10   38 1   
    19   11   12 1   
    20   11   13 1   
    21   11   39 1   
    22   12   40 1   
    23   12   41 1   
    24   13   14 1   
    25   13   42 1   
    26   13   43 1   
    27   14   15 1   
    28   14   44 1   
    29   14   45 1   
    30   15   16 ar  
    31   15   20 ar  
    32   16   17 ar  
    33   16   46 1   
    34   17   18 ar  
    35   17   47 1   
    36   18   19 ar  
    37   18   21 1   
    38   19   20 ar  
    39   19   48 1   
    40   20   49 1   
    41   21   22 2   
    42   21   23 1   
    43   23   24 1   
    44   23   56 1   
    45   24   25 1   
    46   24   30 1   
    47   24   51 1   
    48   25   26 1   
    49   25   52 1   
    50   25   53 1   
    51   26   27 1   
    52   26   54 1   
    53   26   55 1   
    54   27   28 2   
    55   27   29 1   
    56   29   50 1   
    57   30   31 1   
    58   30   32 1   
@<TRIPOS>SUBSTRUCTURE
     1 L24         1 TEMP              0 ****  ****    0 ROOT
