@<TRIPOS>MOLECULE
L24
   56    58     1     0     0
SMALL
bcc


@<TRIPOS>ATOM
      1 N2A        -0.0190    0.0680   -0.6950 nh        1 L24     -0.922500
      2 N1          1.8840   -0.4660    0.6260 nb        1 L24     -0.835000
      3 C2          1.3770    0.0880   -0.5330 ca        1 L24      0.915900
      4 N3          2.1190    0.7080   -1.5270 nb        1 L24     -0.859000
      5 C4          3.4530    0.7950   -1.2840 ca        1 L24      0.704600
      6 O4A         4.2550    1.3980   -2.2240 oh        1 L24     -0.611300
      7 C5          4.0930    0.2970   -0.1300 ca        1 L24     -0.421900
      8 C6          3.2350   -0.3290    0.8330 ca        1 L24      0.736200
      9 N7          3.7680   -0.7760    2.0330 nh        1 L24     -0.859900
     10 C8          5.1970   -0.8770    2.1830 c3        1 L24      0.212800
     11 C9          5.9570    0.2810    1.5200 c3        1 L24     -0.073700
     12 C10         5.5560    0.3880    0.0550 c3        1 L24      0.001900
     13 C11         7.4570    0.0690    1.6450 c3        1 L24     -0.076400
     14 C12         7.9680    0.4090    3.0330 c3        1 L24     -0.035100
     15 C1B         9.4250    0.1310    3.1610 ca        1 L24     -0.079300
     16 C2B        10.3530    1.1780    3.1630 ca        1 L24     -0.142000
     17 C3B        11.7140    0.9100    3.2920 ca        1 L24     -0.090500
     18 C4B        12.1640   -0.4090    3.4120 ca        1 L24     -0.127600
     19 C5B        11.2400   -1.4580    3.4180 ca        1 L24     -0.090500
     20 C6B         9.8790   -1.1860    3.2930 ca        1 L24     -0.142000
     21 C7B        13.6390   -0.6450    3.5640 c         1 L24      0.659700
     22 O7B        14.3280    0.2000    4.1950 o         1 L24     -0.695100
     23 N          14.1590   -1.7390    2.9460 n         1 L24     -0.506900
     24 CA         15.5060   -2.2550    3.0640 c3        1 L24     -0.050300
     25 CB         16.1390   -2.1490    4.4550 c3        1 L24     -0.069400
     26 CG         17.0420   -0.9330    4.5650 c3        1 L24     -0.176400
     27 CD         17.1990   -0.4850    5.9840 c         1 L24      0.637100
     28 OE1        16.1190    0.0350    6.6390 oh        1 L24     -0.612100
     29 OE2        18.2250   -0.5020    6.6720 o         1 L24     -0.543000
     30 C          15.5620   -3.7710    2.5990 c         1 L24      0.917600
     31 O          14.4790   -4.3480    2.3060 o         1 L24     -0.818800
     32 OXT        16.7080   -4.2810    2.5440 o         1 L24     -0.818800
     33 HN21       -0.5080   -0.6010   -0.1450 hn        1 L24      0.417800
     34 HN22       -0.3470    0.1770   -1.6270 hn        1 L24      0.417800
     35 HO4         3.7060    1.7130   -2.9620 ho        1 L24      0.439000
     36 HN7         3.2120   -1.3650    2.6110 hn        1 L24      0.439800
     37 H81         5.5690   -1.8510    1.7500 h1        1 L24      0.044700
     38 H82         5.4160   -0.8820    3.2890 h1        1 L24      0.044700
     39 H9          5.6780    1.2400    2.0400 hc        1 L24      0.063700
     40 H101        6.0530   -0.4340   -0.5310 hc        1 L24      0.056200
     41 H102        5.9310    1.3600   -0.3650 hc        1 L24      0.056200
     42 H111        7.7160   -0.9950    1.4010 hc        1 L24      0.053700
     43 H112        7.9800    0.7170    0.8930 hc        1 L24      0.053700
     44 H121        7.7620    1.4920    3.2500 hc        1 L24      0.043700
     45 H122        7.4090   -0.1930    3.7990 hc        1 L24      0.043700
     46 H2B        10.0080    2.2170    3.0670 ha        1 L24      0.126500
     47 H3B        12.4490    1.7310    3.3120 ha        1 L24      0.154500
     48 H5B        11.5740   -2.5030    3.5290 ha        1 L24      0.154500
     49 H6B         9.1550   -2.0140    3.2980 ha        1 L24      0.126500
     50 HN         15.3560    0.0610    6.0380 ho        1 L24      0.458000
     51 HA         16.1490   -1.6830    2.3320 h1        1 L24      0.049700
     52 HB1        16.7510   -3.0760    4.6260 hc        1 L24      0.061200
     53 HB2        15.3480   -2.1090    5.2500 hc        1 L24      0.061200
     54 HG1        16.6010   -0.0770    3.9820 hc        1 L24      0.081700
     55 HG2        18.0510   -1.1690    4.1380 hc        1 L24      0.081700
     56 H2         13.5270   -2.4050    2.5360 hn        1 L24      0.339500
@<TRIPOS>BOND
     1    1    3 1   
     2    1   33 1   
     3    1   34 1   
     4    2    3 ar  
     5    2    8 ar  
     6    3    4 ar  
     7    4    5 ar  
     8    5    6 1   
     9    5    7 ar  
    10    6   35 1   
    11    7    8 ar  
    12    7   12 1   
    13    8    9 1   
    14    9   10 1   
    15    9   36 1   
    16   10   11 1   
    17   10   37 1   
    18   10   38 1   
    19   11   12 1   
    20   11   13 1   
    21   11   39 1   
    22   12   40 1   
    23   12   41 1   
    24   13   14 1   
    25   13   42 1   
    26   13   43 1   
    27   14   15 1   
    28   14   44 1   
    29   14   45 1   
    30   15   16 ar  
    31   15   20 ar  
    32   16   17 ar  
    33   16   46 1   
    34   17   18 ar  
    35   17   47 1   
    36   18   19 ar  
    37   18   21 1   
    38   19   20 ar  
    39   19   48 1   
    40   20   49 1   
    41   21   22 2   
    42   21   23 1   
    43   23   24 1   
    44   23   56 1   
    45   24   25 1   
    46   24   30 1   
    47   24   51 1   
    48   25   26 1   
    49   25   52 1   
    50   25   53 1   
    51   26   27 1   
    52   26   54 1   
    53   26   55 1   
    54   27   28 1   
    55   27   29 2   
    56   28   50 1   
    57   30   31 1   
    58   30   32 1   
@<TRIPOS>SUBSTRUCTURE
     1 L24         1 TEMP              0 ****  ****    0 ROOT
