@<TRIPOS>MOLECULE
L27
   81    86     1     0     0
SMALL
bcc


@<TRIPOS>ATOM
      1 O01         5.1880    1.2040   -0.1050 os        1 L27     -0.437900
      2 C02         3.9350    0.6440   -0.2510 c         1 L27      0.725100
      3 O03         3.3840    0.6490   -1.3630 o         1 L27     -0.578000
      4 NP4         3.4170    0.1870    0.9550 n         1 L27     -0.517900
      5 C05         2.3430   -0.7920    0.9180 c3        1 L27      0.064700
      6 C06         0.9590   -0.1500    1.2200 c3        1 L27      0.131100
      7 O07         0.9120    0.4210    2.5180 oh        1 L27     -0.610800
      8 C08         0.5760    0.8620    0.1480 c3        1 L27     -0.126400
      9 C09        -0.9400    1.0880    0.0240 c3        1 L27      0.087200
     10 C10        -1.1450    2.2820   -0.9290 c3        1 L27     -0.012100
     11 C11        -2.5570    2.7180   -1.0900 ca        1 L27     -0.084300
     12 C12        -3.0520    3.8050   -0.3600 ca        1 L27     -0.121500
     13 C13        -4.3690    4.2270   -0.5360 ca        1 L27     -0.128000
     14 C14        -5.2040    3.5650   -1.4360 ca        1 L27     -0.130000
     15 C15        -4.7170    2.4790   -2.1650 ca        1 L27     -0.128000
     16 C16        -3.3970    2.0640   -1.9990 ca        1 L27     -0.121500
     17 C17        -1.6110   -0.1900   -0.5810 c         1 L27      0.586300
     18 O18        -1.3630   -0.6290   -1.7020 o         1 L27     -0.547100
     19 N29        -1.6270    1.2750    1.3240 nh        1 L27     -0.697000
     20 C30        -2.4720    0.1810    1.5270 c2        1 L27      0.125000
     21 C35        -2.5470   -0.6760    0.4510 ce        1 L27     -0.327400
     22 C36         2.5560   -1.9430    1.9190 c3        1 L27     -0.055100
     23 C37         3.8780   -2.6020    1.7580 ca        1 L27     -0.099300
     24 C38         4.9290   -2.3030    2.6330 ca        1 L27     -0.127000
     25 C39         6.1660   -2.9300    2.4870 ca        1 L27     -0.124000
     26 C40         6.3620   -3.8610    1.4670 ca        1 L27     -0.124000
     27 C41         5.3180   -4.1640    0.5930 ca        1 L27     -0.124000
     28 C42         4.0810   -3.5390    0.7370 ca        1 L27     -0.127000
     29 C44         5.7410    1.8580   -1.2600 c3        1 L27      0.130100
     30 C45         7.2670    1.7190   -1.1410 c3        1 L27      0.122400
     31 O46         7.8270    3.0150   -0.9350 os        1 L27     -0.421600
     32 C47         6.8230    4.0280   -1.0620 c3        1 L27      0.128400
     33 C48         5.4600    3.3630   -1.2050 c3        1 L27     -0.130400
     34 C49        -3.3180   -2.6020   -0.9870 c3        1 L27      0.096000
     35 C50        -3.4150   -1.8710    0.3670 c3        1 L27      0.038800
     36 C51        -4.8540   -1.5390    0.6370 ca        1 L27     -0.043300
     37 C52        -5.7130   -1.2580   -0.4390 ca        1 L27     -0.129600
     38 C53        -5.1760   -1.2440   -1.8290 c         1 L27      0.706100
     39 N54        -4.0140   -1.9610   -2.0670 n         1 L27     -0.545900
     40 C55        -5.3610   -1.5210    1.9390 ca        1 L27     -0.147000
     41 C56        -6.7060   -1.2270    2.1640 ca        1 L27     -0.106000
     42 C57        -7.5530   -0.9470    1.0930 ca        1 L27     -0.143000
     43 C58        -7.0580   -0.9590   -0.2100 ca        1 L27     -0.069000
     44 O59        -5.7420   -0.6340   -2.7590 o         1 L27     -0.647500
     45 H1          4.0820    0.0710    1.6920 hn        1 L27      0.319500
     46 H2          2.2770   -1.2300   -0.1250 h1        1 L27      0.086700
     47 H3          0.1990   -0.9840    1.2640 h1        1 L27      0.083700
     48 H4          1.5590    1.1370    2.5500 ho        1 L27      0.412000
     49 H5          1.0770    1.8410    0.3720 hc        1 L27      0.082700
     50 H6          0.9530    0.5130   -0.8530 hc        1 L27      0.082700
     51 H7         -0.5290    3.1430   -0.5550 hc        1 L27      0.062200
     52 H8         -0.7320    1.9670   -1.9270 hc        1 L27      0.062200
     53 H9         -2.4010    4.3230    0.3590 ha        1 L27      0.132500
     54 H10        -4.7500    5.0830    0.0400 ha        1 L27      0.140000
     55 H11        -6.2440    3.8950   -1.5690 ha        1 L27      0.129000
     56 H12        -5.3750    1.9310   -2.8600 ha        1 L27      0.140000
     57 H13        -3.0140    1.2070   -2.5750 ha        1 L27      0.132500
     58 H14        -1.0380    1.5370    2.0870 hn        1 L27      0.426800
     59 H15        -3.0380    0.1080    2.4660 h4        1 L27      0.168000
     60 H16         2.4370   -1.5450    2.9630 hc        1 L27      0.069200
     61 H17         1.7370   -2.6920    1.7500 hc        1 L27      0.069200
     62 H18         4.7770   -1.5770    3.4460 ha        1 L27      0.132500
     63 H19         6.9860   -2.6910    3.1790 ha        1 L27      0.136000
     64 H20         7.3380   -4.3560    1.3530 ha        1 L27      0.136000
     65 H21         5.4690   -4.8990   -0.2120 ha        1 L27      0.136000
     66 H22         3.2580   -3.7800    0.0480 ha        1 L27      0.132500
     67 H23         5.3440    1.3860   -2.1960 h1        1 L27      0.096700
     68 H24         7.5650    1.0900   -0.2630 h1        1 L27      0.063200
     69 H25         7.7030    1.3050   -2.0850 h1        1 L27      0.063200
     70 H26         7.0860    4.6440   -1.9600 h1        1 L27      0.050200
     71 H27         6.8950    4.6590   -0.1390 h1        1 L27      0.050200
     72 H28         4.9440    3.6980   -2.1380 hc        1 L27      0.068700
     73 H29         4.8010    3.6060   -0.3360 hc        1 L27      0.068700
     74 H30        -2.2340   -2.7240   -1.2670 h1        1 L27      0.057200
     75 H31        -3.7640   -3.6300   -0.8460 h1        1 L27      0.057200
     76 H32        -3.0650   -2.6060    1.1530 hc        1 L27      0.061700
     77 H33        -3.4830   -1.7270   -2.8760 hn        1 L27      0.327500
     78 H34        -4.6970   -1.7450    2.7880 ha        1 L27      0.129000
     79 H35        -7.0980   -1.2180    3.1920 ha        1 L27      0.133000
     80 H36        -8.6130   -0.7130    1.2750 ha        1 L27      0.137000
     81 H37        -7.7110   -0.7300   -1.0680 ha        1 L27      0.158000
@<TRIPOS>BOND
     1    1    2 1   
     2    1   29 1   
     3    2    3 2   
     4    2    4 1   
     5    4    5 1   
     6    4   45 1   
     7    5    6 1   
     8    5   22 1   
     9    5   46 1   
    10    6    7 1   
    11    6    8 1   
    12    6   47 1   
    13    7   48 1   
    14    8    9 1   
    15    8   49 1   
    16    8   50 1   
    17    9   10 1   
    18    9   17 1   
    19    9   19 1   
    20   10   11 1   
    21   10   51 1   
    22   10   52 1   
    23   11   12 ar  
    24   11   16 ar  
    25   12   13 ar  
    26   12   53 1   
    27   13   14 ar  
    28   13   54 1   
    29   14   15 ar  
    30   14   55 1   
    31   15   16 ar  
    32   15   56 1   
    33   16   57 1   
    34   17   18 2   
    35   17   21 1   
    36   19   20 1   
    37   19   58 1   
    38   20   21 2   
    39   20   59 1   
    40   21   35 1   
    41   22   23 1   
    42   22   60 1   
    43   22   61 1   
    44   23   24 ar  
    45   23   28 ar  
    46   24   25 ar  
    47   24   62 1   
    48   25   26 ar  
    49   25   63 1   
    50   26   27 ar  
    51   26   64 1   
    52   27   28 ar  
    53   27   65 1   
    54   28   66 1   
    55   29   30 1   
    56   29   33 1   
    57   29   67 1   
    58   30   31 1   
    59   30   68 1   
    60   30   69 1   
    61   31   32 1   
    62   32   33 1   
    63   32   70 1   
    64   32   71 1   
    65   33   72 1   
    66   33   73 1   
    67   34   35 1   
    68   34   39 1   
    69   34   74 1   
    70   34   75 1   
    71   35   36 1   
    72   35   76 1   
    73   36   37 ar  
    74   36   40 ar  
    75   37   38 1   
    76   37   43 ar  
    77   38   39 1   
    78   38   44 2   
    79   39   77 1   
    80   40   41 ar  
    81   40   78 1   
    82   41   42 ar  
    83   41   79 1   
    84   42   43 ar  
    85   42   80 1   
    86   43   81 1   
@<TRIPOS>SUBSTRUCTURE
     1 L27         1 TEMP              0 ****  ****    0 ROOT
