@<TRIPOS>MOLECULE
L27
   82    87     1     0     0
SMALL
bcc


@<TRIPOS>ATOM
      1 O01         0.1160   -0.0990    0.5540 os        1 L27     -0.408900
      2 C02        -0.7600   -0.9520   -0.0130 c         1 L27      0.615100
      3 O03        -0.6130   -1.5140   -1.0900 o         1 L27     -0.431000
      4 NP4        -1.9410   -1.1270    0.8770 n4        1 L27     -0.633800
      5 C05        -2.8510   -2.2680    0.4760 c3        1 L27      0.135500
      6 C06        -4.0950   -1.7590   -0.3000 c3        1 L27      0.135100
      7 O07        -4.6140   -0.6690    0.4490 oh        1 L27     -0.642800
      8 C08        -3.7470   -1.3390   -1.7240 c3        1 L27     -0.114400
      9 C09        -4.8510   -1.6660   -2.7420 c3        1 L27      0.067200
     10 C10        -4.3440   -1.2210   -4.1320 c3        1 L27     -0.033100
     11 C11        -5.4250   -0.9390   -5.1130 ca        1 L27     -0.124300
     12 C12        -5.8850    0.3720   -5.2930 ca        1 L27     -0.129000
     13 C13        -6.8900    0.6420   -6.2200 ca        1 L27     -0.119000
     14 C14        -7.4520   -0.3940   -6.9670 ca        1 L27     -0.112000
     15 C15        -6.9970   -1.7010   -6.7940 ca        1 L27     -0.119000
     16 C16        -5.9790   -1.9710   -5.8800 ca        1 L27     -0.129000
     17 C17        -5.0960   -3.2130   -2.7430 c         1 L27      0.573300
     18 O18        -4.1970   -4.0430   -2.8500 o         1 L27     -0.531100
     19 N29        -6.1600   -1.0900   -2.3430 nh        1 L27     -0.720000
     20 C30        -7.1020   -2.1430   -2.3600 c2        1 L27      0.099000
     21 C35        -6.5450   -3.3860   -2.5230 ce        1 L27     -0.282400
     22 C36        -3.3100   -3.0490    1.7170 c3        1 L27     -0.057100
     23 C37        -2.1700   -3.4790    2.5700 ca        1 L27     -0.158300
     24 C38        -1.8920   -2.8030    3.7650 ca        1 L27     -0.133000
     25 C39        -0.8430   -3.2260    4.5810 ca        1 L27     -0.116000
     26 C40        -0.0680   -4.3250    4.2100 ca        1 L27     -0.102000
     27 C41        -0.3460   -5.0050    3.0230 ca        1 L27     -0.116000
     28 C42        -1.3940   -4.5850    2.2050 ca        1 L27     -0.133000
     29 C44         1.3360    0.2000   -0.2010 c3        1 L27      0.131100
     30 C45         2.3230    0.7260    0.8540 c3        1 L27      0.121400
     31 O46         2.3630    2.1440    0.7300 os        1 L27     -0.398600
     32 C47         1.9010    2.5320   -0.5720 c3        1 L27      0.121400
     33 C48         1.0950    1.3700   -1.1540 c3        1 L27     -0.137400
     34 C49        -6.7660   -5.6360   -3.6180 c3        1 L27      0.098000
     35 C50        -7.2450   -4.6900   -2.4940 c3        1 L27      0.044800
     36 C51        -8.7330   -4.5220   -2.5920 ca        1 L27     -0.066300
     37 C52        -9.3520   -4.5580   -3.8540 ca        1 L27     -0.131600
     38 C53        -8.5410   -4.7770   -5.0830 c         1 L27      0.710100
     39 N54        -7.2630   -5.2760   -4.9130 n         1 L27     -0.574900
     40 C55        -9.5160   -4.3430   -1.4500 ca        1 L27     -0.145000
     41 C56       -10.8990   -4.1960   -1.5630 ca        1 L27     -0.105000
     42 C57       -11.5080   -4.2220   -2.8170 ca        1 L27     -0.132000
     43 C58       -10.7360   -4.4030   -3.9650 ca        1 L27     -0.068000
     44 O59        -8.9570   -4.5100   -6.2280 o         1 L27     -0.640500
     45 H1         -2.4860   -0.2490    0.8730 hn        1 L27      0.487800
     46 H2         -2.2590   -2.9570   -0.2010 hx        1 L27      0.133700
     47 H3         -4.8390   -2.6080   -0.3100 h1        1 L27      0.092700
     48 H4         -5.4380   -0.3890    0.0270 ho        1 L27      0.462000
     49 H5         -2.8230   -1.8770   -2.0710 hc        1 L27      0.076200
     50 H6         -3.5420   -0.2360   -1.7400 hc        1 L27      0.076200
     51 H7         -3.7150   -0.2980   -4.0060 hc        1 L27      0.067200
     52 H8         -3.6740   -2.0360   -4.5200 hc        1 L27      0.067200
     53 H9         -5.4410    1.1950   -4.7140 ha        1 L27      0.130500
     54 H10        -7.2400    1.6760   -6.3630 ha        1 L27      0.151500
     55 H11        -8.2510   -0.1810   -7.6930 ha        1 L27      0.147000
     56 H12        -7.4520   -2.5280   -7.3660 ha        1 L27      0.151500
     57 H13        -5.6150   -3.0020   -5.7560 ha        1 L27      0.130500
     58 H14        -6.4260   -0.2870   -2.8820 hn        1 L27      0.423800
     59 H15        -8.1650   -1.9080   -2.2040 h4        1 L27      0.189000
     60 H16        -3.8660   -3.9530    1.3420 hc        1 L27      0.096200
     61 H17        -4.0380   -2.4250    2.3030 hc        1 L27      0.096200
     62 H18        -2.5260   -1.9620    4.0860 ha        1 L27      0.140000
     63 H19        -0.6370   -2.7000    5.5260 ha        1 L27      0.154000
     64 H20         0.7540   -4.6640    4.8600 ha        1 L27      0.156000
     65 H21         0.2560   -5.8820    2.7360 ha        1 L27      0.154000
     66 H22        -1.6230   -5.1370    1.2800 ha        1 L27      0.140000
     67 H23         1.6770   -0.7360   -0.7120 h1        1 L27      0.103700
     68 H24         3.3440    0.3090    0.6570 h1        1 L27      0.083200
     69 H25         2.0000    0.5090    1.9040 h1        1 L27      0.083200
     70 H26         2.7950    2.7710   -1.2030 h1        1 L27      0.072200
     71 H27         1.2850    3.4530   -0.4130 h1        1 L27      0.072200
     72 H28         1.4470    1.1150   -2.1840 hc        1 L27      0.078200
     73 H29         0.0080    1.6240   -1.2100 hc        1 L27      0.078200
     74 H30        -7.1130   -6.6780   -3.3500 h1        1 L27      0.059700
     75 H31        -5.6400   -5.6410   -3.6470 h1        1 L27      0.059700
     76 H32        -6.9940   -5.1990   -1.5170 hc        1 L27      0.070700
     77 H33        -6.7250   -5.5110   -5.7130 hn        1 L27      0.329500
     78 H34        -9.0430   -4.3300   -0.4570 ha        1 L27      0.132000
     79 H35       -11.5110   -4.0650   -0.6580 ha        1 L27      0.142000
     80 H36       -12.5990   -4.1050   -2.9040 ha        1 L27      0.149000
     81 H37       -11.2020   -4.4270   -4.9650 ha        1 L27      0.168000
     82 HP42       -1.5960   -1.2890    1.8400 hn        1 L27      0.487800
@<TRIPOS>BOND
     1    1    2 1   
     2    1   29 1   
     3    2    3 2   
     4    2    4 1   
     5    4    5 1   
     6    4   45 1   
     7    4   82 1   
     8    5    6 1   
     9    5   22 1   
    10    5   46 1   
    11    6    7 1   
    12    6    8 1   
    13    6   47 1   
    14    7   48 1   
    15    8    9 1   
    16    8   49 1   
    17    8   50 1   
    18    9   10 1   
    19    9   17 1   
    20    9   19 1   
    21   10   11 1   
    22   10   51 1   
    23   10   52 1   
    24   11   12 ar  
    25   11   16 ar  
    26   12   13 ar  
    27   12   53 1   
    28   13   14 ar  
    29   13   54 1   
    30   14   15 ar  
    31   14   55 1   
    32   15   16 ar  
    33   15   56 1   
    34   16   57 1   
    35   17   18 2   
    36   17   21 1   
    37   19   20 1   
    38   19   58 1   
    39   20   21 2   
    40   20   59 1   
    41   21   35 1   
    42   22   23 1   
    43   22   60 1   
    44   22   61 1   
    45   23   24 ar  
    46   23   28 ar  
    47   24   25 ar  
    48   24   62 1   
    49   25   26 ar  
    50   25   63 1   
    51   26   27 ar  
    52   26   64 1   
    53   27   28 ar  
    54   27   65 1   
    55   28   66 1   
    56   29   30 1   
    57   29   33 1   
    58   29   67 1   
    59   30   31 1   
    60   30   68 1   
    61   30   69 1   
    62   31   32 1   
    63   32   33 1   
    64   32   70 1   
    65   32   71 1   
    66   33   72 1   
    67   33   73 1   
    68   34   35 1   
    69   34   39 1   
    70   34   74 1   
    71   34   75 1   
    72   35   36 1   
    73   35   76 1   
    74   36   37 ar  
    75   36   40 ar  
    76   37   38 1   
    77   37   43 ar  
    78   38   39 1   
    79   38   44 2   
    80   39   77 1   
    81   40   41 ar  
    82   40   78 1   
    83   41   42 ar  
    84   41   79 1   
    85   42   43 ar  
    86   42   80 1   
    87   43   81 1   
@<TRIPOS>SUBSTRUCTURE
     1 L27         1 TEMP              0 ****  ****    0 ROOT
