@<TRIPOS>MOLECULE
L27
   82    87     1     0     0
SMALL
bcc


@<TRIPOS>ATOM
      1 O01        -0.6850   -0.1390   -0.6550 os        1 L27     -0.410900
      2 C02        -1.2300   -1.3670   -0.7640 c         1 L27      0.614100
      3 O03        -1.0810   -2.1310   -1.7080 o         1 L27     -0.424000
      4 NP4        -2.0500   -1.6760    0.4390 n4        1 L27     -0.634800
      5 C05        -3.2450   -2.5530    0.1450 c3        1 L27      0.102500
      6 C06        -4.4760   -1.7000   -0.2520 c3        1 L27      0.109100
      7 O07        -4.7420   -0.7510    0.7700 oh        1 L27     -0.615800
      8 C08        -4.2450   -0.9110   -1.5380 c3        1 L27     -0.114400
      9 C09        -5.5380   -0.6770   -2.3420 c3        1 L27      0.086200
     10 C10        -5.1960    0.2740   -3.5030 c3        1 L27     -0.006100
     11 C11        -6.3540    0.6270   -4.3670 ca        1 L27     -0.097300
     12 C12        -7.1370    1.7500   -4.0790 ca        1 L27     -0.115500
     13 C13        -8.1970    2.1000   -4.9150 ca        1 L27     -0.129000
     14 C14        -8.4790    1.3340   -6.0450 ca        1 L27     -0.117000
     15 C15        -7.7010    0.2130   -6.3380 ca        1 L27     -0.129000
     16 C16        -6.6420   -0.1400   -5.5030 ca        1 L27     -0.115500
     17 C17        -6.0160   -2.0650   -2.8980 c         1 L27      0.578300
     18 O18        -5.3830   -2.6990   -3.7340 o         1 L27     -0.504100
     19 N29        -6.6760   -0.2040   -1.5310 nh        1 L27     -0.708000
     20 C30        -7.6050   -1.2470   -1.4360 c2        1 L27      0.101000
     21 C35        -7.2930   -2.3420   -2.2090 ce        1 L27     -0.299400
     22 C36        -3.5840   -3.4180    1.3690 c3        1 L27     -0.070100
     23 C37        -2.4440   -4.2760    1.7840 ca        1 L27     -0.147300
     24 C38        -1.5470   -3.8450    2.7710 ca        1 L27     -0.134000
     25 C39        -0.4890   -4.6650    3.1600 ca        1 L27     -0.115500
     26 C40        -0.3250   -5.9210    2.5720 ca        1 L27     -0.104000
     27 C41        -1.2290   -6.3610    1.6040 ca        1 L27     -0.115500
     28 C42        -2.2900   -5.5440    1.2120 ca        1 L27     -0.134000
     29 C44         0.2680    0.2520   -1.7000 c3        1 L27      0.132100
     30 C45         1.6210   -0.4350   -1.4780 c3        1 L27      0.101400
     31 O46         2.4520    0.4800   -0.7680 os        1 L27     -0.400600
     32 C47         1.9740    1.8180   -0.9700 c3        1 L27      0.119400
     33 C48         0.5230    1.7400   -1.4470 c3        1 L27     -0.118400
     34 C49        -8.5370   -4.0630   -0.9040 c3        1 L27      0.086000
     35 C50        -8.0970   -3.5810   -2.3090 c3        1 L27      0.048800
     36 C51        -7.3620   -4.7100   -2.9680 ca        1 L27     -0.043300
     37 C52        -6.5370   -5.5360   -2.1810 ca        1 L27     -0.155600
     38 C53        -6.4280   -5.2920   -0.7220 c         1 L27      0.714100
     39 N54        -7.4250   -4.5350   -0.1210 n         1 L27     -0.573900
     40 C55        -7.4990   -4.9750   -4.3310 ca        1 L27     -0.112000
     41 C56        -6.8110   -6.0470   -4.9060 ca        1 L27     -0.088000
     42 C57        -5.9860   -6.8550   -4.1260 ca        1 L27     -0.133000
     43 C58        -5.8450   -6.6010   -2.7610 ca        1 L27     -0.069000
     44 O59        -5.4620   -5.6860   -0.0290 o         1 L27     -0.683500
     45 H1         -2.3820   -0.7950    0.8620 hn        1 L27      0.483800
     46 H2         -2.9660   -3.2310   -0.7200 hx        1 L27      0.145700
     47 H3         -5.3350   -2.4240   -0.3810 h1        1 L27      0.110700
     48 H4         -5.3120   -1.1730    1.4260 ho        1 L27      0.429000
     49 H5         -3.7850    0.0800   -1.2840 hc        1 L27      0.075700
     50 H6         -3.5400   -1.4780   -2.2050 hc        1 L27      0.075700
     51 H7         -4.7500    1.2130   -3.0770 hc        1 L27      0.058700
     52 H8         -4.4090   -0.2410   -4.1200 hc        1 L27      0.058700
     53 H9         -6.9180    2.3570   -3.1880 ha        1 L27      0.134500
     54 H10        -8.8080    2.9850   -4.6830 ha        1 L27      0.138000
     55 H11        -9.3120    1.6140   -6.7070 ha        1 L27      0.140000
     56 H12        -7.9200   -0.3920   -7.2300 ha        1 L27      0.138000
     57 H13        -6.0310   -1.0280   -5.7310 ha        1 L27      0.134500
     58 H14        -6.4520    0.3040   -0.7050 hn        1 L27      0.426800
     59 H15        -8.5030   -1.0960   -0.8220 h4        1 L27      0.173000
     60 H16        -4.4560   -4.0740    1.0710 hc        1 L27      0.099700
     61 H17        -3.9170   -2.7650    2.2200 hc        1 L27      0.099700
     62 H18        -1.7020   -2.8830    3.2820 ha        1 L27      0.146000
     63 H19         0.2080   -4.3290    3.9430 ha        1 L27      0.152000
     64 H20         0.5090   -6.5690    2.8840 ha        1 L27      0.153000
     65 H21        -1.1130   -7.3600    1.1550 ha        1 L27      0.152000
     66 H22        -3.0270   -5.9030    0.4710 ha        1 L27      0.146000
     67 H23        -0.1920    0.0180   -2.6920 h1        1 L27      0.102700
     68 H24         2.1000   -0.6750   -2.4640 h1        1 L27      0.076200
     69 H25         1.5480   -1.3560   -0.8480 h1        1 L27      0.076200
     70 H26         2.6320    2.3120   -1.7300 h1        1 L27      0.072700
     71 H27         2.0790    2.3300    0.0200 h1        1 L27      0.072700
     72 H28         0.3720    2.3190   -2.3910 hc        1 L27      0.087200
     73 H29        -0.1790    2.1420   -0.6740 hc        1 L27      0.087200
     74 H30        -9.0250   -3.2150   -0.3480 h1        1 L27      0.051200
     75 H31        -9.3060   -4.8780   -1.0380 h1        1 L27      0.051200
     76 H32        -9.0370   -3.3560   -2.8940 hc        1 L27      0.086700
     77 H33        -7.5520   -4.6170    0.8610 hn        1 L27      0.318500
     78 H34        -8.1420   -4.3350   -4.9540 ha        1 L27      0.145000
     79 H35        -6.9240   -6.2510   -5.9820 ha        1 L27      0.146000
     80 H36        -5.4440   -7.6970   -4.5840 ha        1 L27      0.147000
     81 H37        -5.1990   -7.2350   -2.1330 ha        1 L27      0.153000
     82 HP42       -1.4370   -2.1660    1.1150 hn        1 L27      0.483800
@<TRIPOS>BOND
     1    1    2 1   
     2    1   29 1   
     3    2    3 2   
     4    2    4 1   
     5    4    5 1   
     6    4   45 1   
     7    4   82 1   
     8    5    6 1   
     9    5   22 1   
    10    5   46 1   
    11    6    7 1   
    12    6    8 1   
    13    6   47 1   
    14    7   48 1   
    15    8    9 1   
    16    8   49 1   
    17    8   50 1   
    18    9   10 1   
    19    9   17 1   
    20    9   19 1   
    21   10   11 1   
    22   10   51 1   
    23   10   52 1   
    24   11   12 ar  
    25   11   16 ar  
    26   12   13 ar  
    27   12   53 1   
    28   13   14 ar  
    29   13   54 1   
    30   14   15 ar  
    31   14   55 1   
    32   15   16 ar  
    33   15   56 1   
    34   16   57 1   
    35   17   18 2   
    36   17   21 1   
    37   19   20 1   
    38   19   58 1   
    39   20   21 2   
    40   20   59 1   
    41   21   35 1   
    42   22   23 1   
    43   22   60 1   
    44   22   61 1   
    45   23   24 ar  
    46   23   28 ar  
    47   24   25 ar  
    48   24   62 1   
    49   25   26 ar  
    50   25   63 1   
    51   26   27 ar  
    52   26   64 1   
    53   27   28 ar  
    54   27   65 1   
    55   28   66 1   
    56   29   30 1   
    57   29   33 1   
    58   29   67 1   
    59   30   31 1   
    60   30   68 1   
    61   30   69 1   
    62   31   32 1   
    63   32   33 1   
    64   32   70 1   
    65   32   71 1   
    66   33   72 1   
    67   33   73 1   
    68   34   35 1   
    69   34   39 1   
    70   34   74 1   
    71   34   75 1   
    72   35   36 1   
    73   35   76 1   
    74   36   37 ar  
    75   36   40 ar  
    76   37   38 1   
    77   37   43 ar  
    78   38   39 1   
    79   38   44 2   
    80   39   77 1   
    81   40   41 ar  
    82   40   78 1   
    83   41   42 ar  
    84   41   79 1   
    85   42   43 ar  
    86   42   80 1   
    87   43   81 1   
@<TRIPOS>SUBSTRUCTURE
     1 L27         1 TEMP              0 ****  ****    0 ROOT
