@<TRIPOS>MOLECULE
L27
   82    87     1     0     0
SMALL
bcc


@<TRIPOS>ATOM
      1 O01        -0.6690   -0.1770   -0.6560 os        1 L27     -0.410900
      2 C02        -1.2190   -1.4030   -0.7720 c         1 L27      0.614100
      3 O03        -1.0770   -2.1600   -1.7220 o         1 L27     -0.424000
      4 NP4        -2.0350   -1.7180    0.4330 ny        1 L27     -0.634800
      5 C05        -3.2390   -2.5820    0.1370 c3        1 L27      0.102500
      6 C06        -4.4640   -1.7150   -0.2460 c3        1 L27      0.109100
      7 O07        -4.7170   -0.7740    0.7870 oh        1 L27     -0.615800
      8 C08        -4.2320   -0.9150   -1.5250 c3        1 L27     -0.114400
      9 C09        -5.5270   -0.6610   -2.3200 c3        1 L27      0.086200
     10 C10        -5.1820    0.2990   -3.4730 c3        1 L27     -0.006100
     11 C11        -6.3400    0.6710   -4.3280 ca        1 L27     -0.097300
     12 C12        -7.1130    1.7980   -4.0240 ca        1 L27     -0.115500
     13 C13        -8.1730    2.1660   -4.8510 ca        1 L27     -0.129000
     14 C14        -8.4670    1.4140   -5.9890 ca        1 L27     -0.117000
     15 C15        -7.7000    0.2900   -6.2960 ca        1 L27     -0.129000
     16 C16        -6.6410   -0.0820   -5.4700 ca        1 L27     -0.115500
     17 C17        -6.0200   -2.0390   -2.8880 c         1 L27      0.578300
     18 O18        -5.3960   -2.6690   -3.7340 o         1 L27     -0.504100
     19 N29        -6.6560   -0.1860   -1.4990 nu        1 L27     -0.708000
     20 C30        -7.5940   -1.2220   -1.4100 c2        1 L27      0.101000
     21 C35        -7.2950   -2.3120   -2.1970 ce        1 L27     -0.299400
     22 C36        -3.5790   -3.4560    1.3540 c3        1 L27     -0.070100
     23 C37        -2.4440   -4.3280    1.7550 ca        1 L27     -0.147300
     24 C38        -1.5380   -3.9140    2.7410 ca        1 L27     -0.134000
     25 C39        -0.4860   -4.7470    3.1160 ca        1 L27     -0.115500
     26 C40        -0.3360   -5.9990    2.5150 ca        1 L27     -0.104000
     27 C41        -1.2480   -6.4210    1.5480 ca        1 L27     -0.115500
     28 C42        -2.3040   -5.5920    1.1700 ca        1 L27     -0.134000
     29 C44         0.2800    0.2180   -1.7020 c3        1 L27      0.132100
     30 C45         1.6320   -0.4750   -1.4930 c3        1 L27      0.101400
     31 O46         2.4690    0.4320   -0.7800 os        1 L27     -0.400600
     32 C47         1.9950    1.7730   -0.9700 c3        1 L27      0.119400
     33 C48         0.5410    1.7030   -1.4390 c3        1 L27     -0.118400
     34 C49        -8.5490   -4.0350   -0.9030 c3        1 L27      0.086000
     35 C50        -8.1110   -3.5430   -2.3050 c3        1 L27      0.048800
     36 C51        -7.3880   -4.6710   -2.9780 ca        1 L27     -0.043300
     37 C52        -6.5680   -5.5120   -2.2030 ca        1 L27     -0.155600
     38 C53        -6.4500   -5.2840   -0.7410 c         1 L27      0.714100
     39 N54        -7.4380   -4.5240   -0.1290 ns        1 L27     -0.573900
     40 C55        -7.5330   -4.9220   -4.3430 ca        1 L27     -0.112000
     41 C56        -6.8570   -5.9940   -4.9310 ca        1 L27     -0.088000
     42 C57        -6.0350   -6.8170   -4.1620 ca        1 L27     -0.133000
     43 C58        -5.8870   -6.5780   -2.7960 ca        1 L27     -0.069000
     44 O59        -5.4850   -5.6920   -0.0570 o         1 L27     -0.683500
     45 H1         -2.3560   -0.8390    0.8680 hn        1 L27      0.483800
     46 H2         -2.9700   -3.2530   -0.7360 hx        1 L27      0.145700
     47 H3         -5.3300   -2.4290   -0.3780 h1        1 L27      0.110700
     48 H4         -5.2880   -1.1980    1.4420 ho        1 L27      0.429000
     49 H5         -3.7620    0.0700   -1.2620 hc        1 L27      0.075700
     50 H6         -3.5350   -1.4810   -2.2010 hc        1 L27      0.075700
     51 H7         -4.4030   -0.2160   -4.0990 hc        1 L27      0.058700
     52 H8         -4.7260    1.2300   -3.0390 hc        1 L27      0.058700
     53 H9         -6.8840    2.3940   -3.1280 ha        1 L27      0.134500
     54 H10        -8.7750    3.0540   -4.6080 ha        1 L27      0.138000
     55 H11        -9.3010    1.7080   -6.6440 ha        1 L27      0.140000
     56 H12        -7.9280   -0.3040   -7.1940 ha        1 L27      0.138000
     57 H13        -6.0390   -0.9730   -5.7100 ha        1 L27      0.134500
     58 H14        -6.4240    0.3110   -0.6690 hn        1 L27      0.426800
     59 H15        -8.4880   -1.0690   -0.7900 h4        1 L27      0.173000
     60 H16        -4.4580   -4.1010    1.0550 hc        1 L27      0.099700
     61 H17        -3.9020   -2.8090    2.2130 hc        1 L27      0.099700
     62 H18        -1.6820   -2.9560    3.2620 ha        1 L27      0.146000
     63 H19         0.2190   -4.4250    3.8980 ha        1 L27      0.152000
     64 H20         0.4940   -6.6570    2.8160 ha        1 L27      0.153000
     65 H21        -1.1450   -7.4170    1.0890 ha        1 L27      0.152000
     66 H22        -3.0490   -5.9370    0.4300 ha        1 L27      0.146000
     67 H23        -0.1860   -0.0070   -2.6950 h1        1 L27      0.102700
     68 H24         2.1040   -0.7090   -2.4830 h1        1 L27      0.076200
     69 H25         1.5580   -1.4010   -0.8690 h1        1 L27      0.076200
     70 H26         2.6500    2.2700   -1.7300 h1        1 L27      0.072700
     71 H27         2.1060    2.2770    0.0240 h1        1 L27      0.072700
     72 H28        -0.1550    2.1020   -0.6600 hc        1 L27      0.087200
     73 H29         0.3870    2.2900   -2.3780 hc        1 L27      0.087200
     74 H30        -9.0280   -3.1880   -0.3370 h1        1 L27      0.051200
     75 H31        -9.3260   -4.8420   -1.0420 h1        1 L27      0.051200
     76 H32        -9.0510   -3.3040   -2.8840 hc        1 L27      0.086700
     77 H33        -7.5620   -4.6150    0.8520 hn        1 L27      0.318500
     78 H34        -8.1730   -4.2710   -4.9570 ha        1 L27      0.145000
     79 H35        -6.9750   -6.1860   -6.0090 ha        1 L27      0.146000
     80 H36        -5.5030   -7.6580   -4.6310 ha        1 L27      0.147000
     81 H37        -5.2440   -7.2230   -2.1760 ha        1 L27      0.153000
     82 HP42       -1.4220   -2.2200    1.1000 hn        1 L27      0.483800
@<TRIPOS>BOND
     1    1    2 1   
     2    1   29 1   
     3    2    3 2   
     4    2    4 1   
     5    4    5 1   
     6    4   45 1   
     7    4   82 1   
     8    5    6 1   
     9    5   22 1   
    10    5   46 1   
    11    6    7 1   
    12    6    8 1   
    13    6   47 1   
    14    7   48 1   
    15    8    9 1   
    16    8   49 1   
    17    8   50 1   
    18    9   10 1   
    19    9   17 1   
    20    9   19 1   
    21   10   11 1   
    22   10   51 1   
    23   10   52 1   
    24   11   12 ar  
    25   11   16 ar  
    26   12   13 ar  
    27   12   53 1   
    28   13   14 ar  
    29   13   54 1   
    30   14   15 ar  
    31   14   55 1   
    32   15   16 ar  
    33   15   56 1   
    34   16   57 1   
    35   17   18 2   
    36   17   21 1   
    37   19   20 1   
    38   19   58 1   
    39   20   21 2   
    40   20   59 1   
    41   21   35 1   
    42   22   23 1   
    43   22   60 1   
    44   22   61 1   
    45   23   24 ar  
    46   23   28 ar  
    47   24   25 ar  
    48   24   62 1   
    49   25   26 ar  
    50   25   63 1   
    51   26   27 ar  
    52   26   64 1   
    53   27   28 ar  
    54   27   65 1   
    55   28   66 1   
    56   29   30 1   
    57   29   33 1   
    58   29   67 1   
    59   30   31 1   
    60   30   68 1   
    61   30   69 1   
    62   31   32 1   
    63   32   33 1   
    64   32   70 1   
    65   32   71 1   
    66   33   72 1   
    67   33   73 1   
    68   34   35 1   
    69   34   39 1   
    70   34   74 1   
    71   34   75 1   
    72   35   36 1   
    73   35   76 1   
    74   36   37 ar  
    75   36   40 ar  
    76   37   38 1   
    77   37   43 ar  
    78   38   39 1   
    79   38   44 2   
    80   39   77 1   
    81   40   41 ar  
    82   40   78 1   
    83   41   42 ar  
    84   41   79 1   
    85   42   43 ar  
    86   42   80 1   
    87   43   81 1   
@<TRIPOS>SUBSTRUCTURE
     1 L27         1 TEMP              0 ****  ****    0 ROOT
