@<TRIPOS>MOLECULE
L2A
   92    92     1     0     0
SMALL
bcc


@<TRIPOS>ATOM
      1 N1         -1.7710    3.0620   -1.1910 n         1 L2A     -0.535900
      2 C1         -0.3320    3.1390   -1.2050 c3        1 L2A      0.043700
      3 C2          0.2010    3.0780    0.2290 c         1 L2A      0.650100
      4 O1         -0.4530    2.5330    1.1020 o         1 L2A     -0.658100
      5 C3          0.0930    4.4230   -1.8390 c3        1 L2A     -0.216400
      6 C4          0.6180    4.1470   -3.2470 c         1 L2A      0.911600
      7 O2          1.7270    3.5640   -3.4020 o         1 L2A     -0.845800
      8 O3          0.0020    4.5990   -4.2460 o         1 L2A     -0.845800
      9 N2          1.7020    2.9450    0.2160 n         1 L2A     -0.536900
     10 C5          2.1220    2.1390    1.3180 c3        1 L2A      0.045700
     11 C6          1.6220    0.6810    1.1220 c         1 L2A      0.649100
     12 O4          0.8760    0.1840    1.9300 o         1 L2A     -0.659100
     13 C7          1.5540    2.7020    2.5950 c3        1 L2A     -0.105400
     14 C8          2.6440    3.4900    3.3370 c3        1 L2A     -0.074700
     15 C9          2.4880    4.9860    3.0380 c3        1 L2A     -0.086600
     16 C10         2.5070    3.2570    4.8370 c3        1 L2A     -0.086600
     17 N3          2.7270   -0.1570    0.4870 n         1 L2A     -0.535900
     18 C11         2.6810   -1.5020    1.0050 c3        1 L2A      0.030700
     19 C12         1.3730   -2.1680    0.5880 c         1 L2A      0.647100
     20 O5          0.6480   -1.6280   -0.2340 o         1 L2A     -0.655100
     21 C13         2.7710   -1.4630    2.5190 c3        1 L2A     -0.093400
     22 C14         3.8060   -2.5340    3.0130 c3        1 L2A     -0.071700
     23 C15         5.1860   -1.8660    3.2080 c3        1 L2A     -0.087600
     24 C16         3.3270   -3.1310    4.3570 c3        1 L2A     -0.087600
     25 HN1        -2.2360    3.3860   -0.4800 hn        1 L2A      0.334500
     26 H1          0.0260    2.3940   -1.7140 h1        1 L2A      0.124700
     27 H3         -0.6780    5.0350   -1.8900 hc        1 L2A      0.044200
     28 H3A         0.8040    4.8370   -1.2980 hc        1 L2A      0.044200
     29 HN2         2.2130    3.6370   -0.0580 hn        1 L2A      0.367500
     30 H5          3.1070    2.1430    1.3680 h1        1 L2A      0.084700
     31 H7          1.2390    1.9720    3.1590 hc        1 L2A      0.069200
     32 H7A         0.8100    3.2950    2.3860 hc        1 L2A      0.069200
     33 H8          3.5160    3.1910    3.0420 hc        1 L2A      0.066700
     34 H9          1.5540    5.2470    3.1620 hc        1 L2A      0.028867
     35 H9A         2.7570    5.1640    2.1120 hc        1 L2A      0.028867
     36 H9B         3.0590    5.5070    3.6530 hc        1 L2A      0.028867
     37 H10         2.7150    2.3150    5.0440 hc        1 L2A      0.028867
     38 H10A        1.5840    3.4590    5.1180 hc        1 L2A      0.028867
     39 H10B        3.1370    3.8500    5.3220 hc        1 L2A      0.028867
     40 HN3         3.5300    0.2260    0.2870 hn        1 L2A      0.356500
     41 H11         3.4410   -2.0190    0.6440 h1        1 L2A      0.082700
     42 H13         3.0600   -0.5790    2.8030 hc        1 L2A      0.049700
     43 H13A        1.8970   -1.6560    2.9020 hc        1 L2A      0.049700
     44 H14         3.8800   -3.2430    2.3520 hc        1 L2A      0.071700
     45 H15         5.8160   -2.5200    3.5870 hc        1 L2A      0.028533
     46 H15A        5.0970   -1.1080    3.8190 hc        1 L2A      0.028533
     47 H15B        5.5240   -1.5500    2.3380 hc        1 L2A      0.028533
     48 H16         3.2860   -2.4160    5.0400 hc        1 L2A      0.028533
     49 H16A        3.9570   -3.8260    4.6490 hc        1 L2A      0.028533
     50 H16B        2.4250   -3.5300    4.2400 hc        1 L2A      0.028533
     51 N          -4.5580    3.5700   -1.6100 n3        1 L2A     -0.900800
     52 CA         -4.0560    2.5000   -2.4220 c3        1 L2A      0.102200
     53 CB2        -4.5460    2.6670   -3.8230 c3        1 L2A     -0.118100
     54 CB1        -4.5480    1.1690   -1.8660 c3        1 L2A     -0.069400
     55 CG         -4.5410    0.0540   -3.0260 c3        1 L2A     -0.080400
     56 CD         -4.7780   -1.3700   -2.3850 c3        1 L2A     -0.049200
     57 C          -2.5180    2.5240   -2.4110 c         1 L2A      0.663100
     58 O          -1.8970    2.1600   -3.3930 o         1 L2A     -0.633100
     59 CE         -4.4190   -2.4720   -3.4130 c2        1 L2A     -0.182200
     60 N4          1.5480   -3.6540    0.5710 n         1 L2A     -0.528900
     61 C17         0.7540   -4.2400   -0.5140 c3        1 L2A     -0.009600
     62 C18         0.9850   -5.7500   -0.5560 c3        1 L2A     -0.087100
     63 C19        -0.7080   -3.9630   -0.2740 c3        1 L2A     -0.072400
     64 C20        -1.5520   -4.5000   -1.4860 c3        1 L2A     -0.069400
     65 C21        -2.9980   -3.8540   -1.4580 c3        1 L2A     -0.049200
     66 C22         1.1660   -3.6440   -1.8080 c         1 L2A      0.917600
     67 O6          2.0990   -4.1700   -2.4750 o         1 L2A     -0.834300
     68 C23        -3.5700   -3.7700   -2.9450 c2        1 L2A     -0.158200
     69 HN         -5.4070    3.3650   -1.3240 hn        1 L2A      0.345300
     70 HB2        -4.3310    3.5720   -4.1390 hc        1 L2A      0.041367
     71 HB2A       -4.1120    2.0090   -4.4010 hc        1 L2A      0.041367
     72 HB2B       -5.5230    2.5330   -3.8480 hc        1 L2A      0.041367
     73 HB1        -3.9600    0.8840   -1.1390 hc        1 L2A      0.049200
     74 HB1A       -5.4690    1.2780   -1.5200 hc        1 L2A      0.049200
     75 HG         -5.2560    0.2470   -3.6690 hc        1 L2A      0.047700
     76 HGA        -3.6760    0.0650   -3.4850 hc        1 L2A      0.047700
     77 HD         -5.7150   -1.4590   -2.1290 hc        1 L2A      0.053700
     78 HDA        -4.2170   -1.4680   -1.5970 hc        1 L2A      0.053700
     79 HE         -4.7740   -2.4210   -4.3360 ha        1 L2A      0.112000
     80 HN4         2.3620   -4.0280    0.8040 hn        1 L2A      0.338500
     81 H18         0.5470   -6.1690    0.2150 hc        1 L2A      0.033033
     82 H18A        0.6090   -6.1150   -1.3850 hc        1 L2A      0.033033
     83 H18B        1.9440   -5.9330   -0.5240 hc        1 L2A      0.033033
     84 H19        -0.8450   -2.9980   -0.1840 hc        1 L2A      0.039700
     85 H19A       -0.9930   -4.4100    0.5450 hc        1 L2A      0.039700
     86 H20        -1.1120   -4.2650   -2.3110 hc        1 L2A      0.060200
     87 H20A       -1.6290   -5.4720   -1.4240 hc        1 L2A      0.060200
     88 H21        -2.9470   -2.9590   -1.0790 hc        1 L2A      0.027200
     89 H21A       -3.5960   -4.4120   -0.9070 hc        1 L2A      0.027200
     90 H23        -3.3440   -4.4670   -3.5960 ha        1 L2A      0.113000
     91 HNA        -4.5790    4.3510   -2.1060 hn        1 L2A      0.345300
     92 OXT         0.5200   -2.6770   -2.2880 o         1 L2A     -0.834300
@<TRIPOS>BOND
     1    1    2 1   
     2    1   25 1   
     3    1   57 1   
     4    2    3 1   
     5    2    5 1   
     6    2   26 1   
     7    3    4 2   
     8    3    9 1   
     9    5    6 1   
    10    5   27 1   
    11    5   28 1   
    12    6    7 1   
    13    6    8 1   
    14    9   10 1   
    15    9   29 1   
    16   10   11 1   
    17   10   13 1   
    18   10   30 1   
    19   11   12 2   
    20   11   17 1   
    21   13   14 1   
    22   13   31 1   
    23   13   32 1   
    24   14   15 1   
    25   14   16 1   
    26   14   33 1   
    27   15   34 1   
    28   15   35 1   
    29   15   36 1   
    30   16   37 1   
    31   16   38 1   
    32   16   39 1   
    33   17   18 1   
    34   17   40 1   
    35   18   19 1   
    36   18   21 1   
    37   18   41 1   
    38   19   20 2   
    39   19   60 1   
    40   21   22 1   
    41   21   42 1   
    42   21   43 1   
    43   22   23 1   
    44   22   24 1   
    45   22   44 1   
    46   23   45 1   
    47   23   46 1   
    48   23   47 1   
    49   24   48 1   
    50   24   49 1   
    51   24   50 1   
    52   51   52 1   
    53   51   69 1   
    54   51   91 1   
    55   52   53 1   
    56   52   54 1   
    57   52   57 1   
    58   53   70 1   
    59   53   71 1   
    60   53   72 1   
    61   54   55 1   
    62   54   73 1   
    63   54   74 1   
    64   55   56 1   
    65   55   75 1   
    66   55   76 1   
    67   56   59 1   
    68   56   77 1   
    69   56   78 1   
    70   57   58 2   
    71   59   68 2   
    72   59   79 1   
    73   60   61 1   
    74   60   80 1   
    75   61   62 1   
    76   61   63 1   
    77   61   66 1   
    78   62   81 1   
    79   62   82 1   
    80   62   83 1   
    81   63   64 1   
    82   63   84 1   
    83   63   85 1   
    84   64   65 1   
    85   64   86 1   
    86   64   87 1   
    87   65   68 1   
    88   65   88 1   
    89   65   89 1   
    90   66   67 1   
    91   66   92 1   
    92   68   90 1   
@<TRIPOS>SUBSTRUCTURE
     1 L2A         1 TEMP              0 ****  ****    0 ROOT
