@<TRIPOS>MOLECULE
L2A
   92    92     1     0     0
SMALL
bcc


@<TRIPOS>ATOM
      1 N1          3.3630    0.0760    1.1860 n         1 L2A     -0.498900
      2 C1          3.1750    1.4240    1.6850 c3        1 L2A      0.045700
      3 C2          1.6950    1.8460    1.8080 c         1 L2A      0.662100
      4 O1          1.2750    2.2310    2.9230 o         1 L2A     -0.659100
      5 C3          3.9750    2.5050    0.9600 c3        1 L2A     -0.227400
      6 C4          5.4910    2.2960    1.1240 c         1 L2A      0.914600
      7 O2          5.9330    1.1280    1.3620 o         1 L2A     -0.858800
      8 O3          6.2380    3.3050    1.0010 o         1 L2A     -0.858800
      9 N2          0.8860    1.8350    0.6990 n         1 L2A     -0.550900
     10 C5         -0.4720    2.3130    0.7500 c3        1 L2A      0.050700
     11 C6         -1.3850    1.5660   -0.2630 c         1 L2A      0.639100
     12 O4         -0.9540    1.2410   -1.3860 o         1 L2A     -0.613100
     13 C7         -0.6320    3.8040    0.3790 c3        1 L2A     -0.090400
     14 C8          0.0240    4.7570    1.3650 c3        1 L2A     -0.066700
     15 C9          0.0590    6.1540    0.7750 c3        1 L2A     -0.089600
     16 C10        -0.6970    4.7640    2.6960 c3        1 L2A     -0.089600
     17 N3         -2.7200    1.4490    0.1210 n         1 L2A     -0.548900
     18 C11        -3.7860    1.1220   -0.7950 c3        1 L2A      0.012700
     19 C12        -4.1560   -0.3880   -0.8760 c         1 L2A      0.642100
     20 O5         -5.3650   -0.6600   -1.0360 o         1 L2A     -0.635100
     21 C13        -3.6520    1.6300   -2.2340 c3        1 L2A     -0.082400
     22 C14        -3.5460    3.1430   -2.3480 c3        1 L2A     -0.064700
     23 C15        -3.2070    3.5210   -3.7770 c3        1 L2A     -0.087600
     24 C16        -4.8220    3.8330   -1.9160 c3        1 L2A     -0.087600
     25 HN1         4.0780   -0.3760    1.7280 hn        1 L2A      0.303500
     26 H1          3.5470    1.4070    2.7600 h1        1 L2A      0.086700
     27 H3          3.7370    2.5060   -0.1340 hc        1 L2A      0.054700
     28 H3A         3.6990    3.5040    1.3800 hc        1 L2A      0.054700
     29 HN2         1.2360    1.5230   -0.1830 hn        1 L2A      0.360500
     30 H5         -0.8530    2.1620    1.8060 h1        1 L2A      0.099700
     31 H7         -0.2010    3.9720   -0.6440 hc        1 L2A      0.046200
     32 H7A        -1.7290    4.0340    0.3280 hc        1 L2A      0.046200
     33 H8          1.0860    4.4210    1.5470 hc        1 L2A      0.073700
     34 H9          0.5540    6.8590    1.4850 hc        1 L2A      0.029200
     35 H9A         0.6300    6.1580   -0.1840 hc        1 L2A      0.029200
     36 H9B        -0.9760    6.5210    0.5750 hc        1 L2A      0.029200
     37 H10        -1.7910    4.9390    2.5570 hc        1 L2A      0.029200
     38 H10A       -0.5460    3.7830    3.2130 hc        1 L2A      0.029200
     39 H10B       -0.2900    5.5710    3.3510 hc        1 L2A      0.029200
     40 HN3        -2.8610    1.0520    1.0400 hn        1 L2A      0.360500
     41 H11        -4.7080    1.6090   -0.3410 h1        1 L2A      0.071700
     42 H13        -2.7520    1.1610   -2.7150 hc        1 L2A      0.064700
     43 H13A       -4.5630    1.2800   -2.7890 hc        1 L2A      0.064700
     44 H14        -2.7040    3.4930   -1.6840 hc        1 L2A      0.061700
     45 H15        -3.1130    4.6290   -3.8740 hc        1 L2A      0.026867
     46 H15A       -2.2390    3.0530   -4.0800 hc        1 L2A      0.026867
     47 H15B       -4.0050    3.1710   -4.4750 hc        1 L2A      0.026867
     48 H16        -5.0140    3.6590   -0.8300 hc        1 L2A      0.026867
     49 H16A       -4.7440    4.9340   -2.0870 hc        1 L2A      0.026867
     50 H16B       -5.6950    3.4460   -2.4960 hc        1 L2A      0.026867
     51 N           5.6540   -1.4240   -0.0250 n3        1 L2A     -0.909800
     52 CA          4.3190   -1.4330   -0.6130 c3        1 L2A      0.117200
     53 CB2         4.4410   -1.3360   -2.1480 c3        1 L2A     -0.075100
     54 CB1         3.5500   -2.7390   -0.3160 c3        1 L2A     -0.071400
     55 CG          3.1610   -2.9610    1.1290 c3        1 L2A     -0.081400
     56 CD          2.7680   -4.4040    1.3980 c3        1 L2A     -0.038200
     57 C           3.4330   -0.2200   -0.1730 c         1 L2A      0.621100
     58 O           2.7790    0.4080   -1.0300 o         1 L2A     -0.620100
     59 CE          1.6440   -4.8600    0.5460 c2        1 L2A     -0.196200
     60 N4         -3.1340   -1.3250   -0.8830 n         1 L2A     -0.486900
     61 C17        -3.2300   -2.5370   -0.0450 c3        1 L2A     -0.034600
     62 C18        -4.4630   -3.3780   -0.3750 c3        1 L2A     -0.081100
     63 C19        -1.9500   -3.3730   -0.2880 c3        1 L2A     -0.060400
     64 C20        -2.0140   -4.7550    0.3240 c3        1 L2A     -0.084400
     65 C21        -0.7150   -5.5140    0.1300 c3        1 L2A     -0.045200
     66 C22        -3.2910   -2.1610    1.4940 c         1 L2A      0.911600
     67 O6         -3.0880   -0.9560    1.8240 o         1 L2A     -0.838800
     68 C23         0.3890   -5.0090    0.9810 c2        1 L2A     -0.148200
     69 HN          6.0640   -0.5080   -0.1190 hn        1 L2A      0.373800
     70 HB2         5.0170   -2.2050   -2.5430 hc        1 L2A      0.040033
     71 HB2A        3.4200   -1.3310   -2.5990 hc        1 L2A      0.040033
     72 HB2B        4.9570   -0.3890   -2.4360 hc        1 L2A      0.040033
     73 HB1         2.6160   -2.7300   -0.9390 hc        1 L2A      0.047200
     74 HB1A        4.1800   -3.5990   -0.6680 hc        1 L2A      0.047200
     75 HG          4.0090   -2.7010    1.8160 hc        1 L2A      0.053700
     76 HGA         2.2930   -2.3010    1.3930 hc        1 L2A      0.053700
     77 HD          3.6550   -5.0710    1.2160 hc        1 L2A      0.031200
     78 HDA         2.4980   -4.4990    2.4840 hc        1 L2A      0.031200
     79 HE          1.9110   -5.0660   -0.5030 ha        1 L2A      0.109000
     80 HN4        -2.2250   -0.9140   -0.7770 hn        1 L2A      0.288500
     81 H18        -4.5640   -4.1700    0.4070 hc        1 L2A      0.036367
     82 H18A       -5.3900   -2.7570   -0.3600 hc        1 L2A      0.036367
     83 H18B       -4.3630   -3.8540   -1.3790 hc        1 L2A      0.036367
     84 H19        -1.7700   -3.4750   -1.3920 hc        1 L2A      0.034700
     85 H19A       -1.0740   -2.8250    0.1510 hc        1 L2A      0.034700
     86 H20        -2.2650   -4.6620    1.4160 hc        1 L2A      0.062200
     87 H20A       -2.8350   -5.3460   -0.1620 hc        1 L2A      0.062200
     88 H21        -0.8880   -6.5950    0.3960 hc        1 L2A      0.025700
     89 H21A       -0.4210   -5.4850   -0.9540 hc        1 L2A      0.025700
     90 H23         0.1060   -4.7600    2.0180 ha        1 L2A      0.134000
     91 HNA         5.6120   -1.6410    0.9510 hn        1 L2A      0.373800
     92 OXT        -3.5420   -3.0850    2.3120 o         1 L2A     -0.838800
@<TRIPOS>BOND
     1    1    2 1   
     2    1   25 1   
     3    1   57 1   
     4    2    3 1   
     5    2    5 1   
     6    2   26 1   
     7    3    4 2   
     8    3    9 1   
     9    5    6 1   
    10    5   27 1   
    11    5   28 1   
    12    6    7 1   
    13    6    8 1   
    14    9   10 1   
    15    9   29 1   
    16   10   11 1   
    17   10   13 1   
    18   10   30 1   
    19   11   12 2   
    20   11   17 1   
    21   13   14 1   
    22   13   31 1   
    23   13   32 1   
    24   14   15 1   
    25   14   16 1   
    26   14   33 1   
    27   15   34 1   
    28   15   35 1   
    29   15   36 1   
    30   16   37 1   
    31   16   38 1   
    32   16   39 1   
    33   17   18 1   
    34   17   40 1   
    35   18   19 1   
    36   18   21 1   
    37   18   41 1   
    38   19   20 2   
    39   19   60 1   
    40   21   22 1   
    41   21   42 1   
    42   21   43 1   
    43   22   23 1   
    44   22   24 1   
    45   22   44 1   
    46   23   45 1   
    47   23   46 1   
    48   23   47 1   
    49   24   48 1   
    50   24   49 1   
    51   24   50 1   
    52   51   52 1   
    53   51   69 1   
    54   51   91 1   
    55   52   53 1   
    56   52   54 1   
    57   52   57 1   
    58   53   70 1   
    59   53   71 1   
    60   53   72 1   
    61   54   55 1   
    62   54   73 1   
    63   54   74 1   
    64   55   56 1   
    65   55   75 1   
    66   55   76 1   
    67   56   59 1   
    68   56   77 1   
    69   56   78 1   
    70   57   58 2   
    71   59   68 2   
    72   59   79 1   
    73   60   61 1   
    74   60   80 1   
    75   61   62 1   
    76   61   63 1   
    77   61   66 1   
    78   62   81 1   
    79   62   82 1   
    80   62   83 1   
    81   63   64 1   
    82   63   84 1   
    83   63   85 1   
    84   64   65 1   
    85   64   86 1   
    86   64   87 1   
    87   65   68 1   
    88   65   88 1   
    89   65   89 1   
    90   66   67 1   
    91   66   92 1   
    92   68   90 1   
@<TRIPOS>SUBSTRUCTURE
     1 L2A         1 TEMP              0 ****  ****    0 ROOT
