@<TRIPOS>MOLECULE
L2C
   75    74     1     0     0
SMALL
bcc


@<TRIPOS>ATOM
      1 O11         0.1830    0.6910   -0.2320 o         1 L2C     -0.538000
      2 C11         1.3480    0.3280   -0.0650 c         1 L2C      0.636100
      3 C12         2.1390    0.2350    1.2030 c3        1 L2C     -0.127400
      4 C13         1.2720   -0.2480    2.3470 c3        1 L2C     -0.079400
      5 C14         2.0370   -0.2090    3.6520 c3        1 L2C     -0.078400
      6 C15         1.1830   -0.7090    4.7980 c3        1 L2C     -0.079400
      7 C16         1.9420   -0.6670    6.1060 c3        1 L2C     -0.079400
      8 C17         1.0890   -1.1680    7.2520 c3        1 L2C     -0.079400
      9 C18         1.8470   -1.1270    8.5620 c3        1 L2C     -0.080400
     10 C19         1.0020   -1.6240    9.7060 c3        1 L2C     -0.093100
     11 O21        -0.5340   -3.5050   -2.9720 o         1 L2C     -0.537000
     12 C21         0.6950   -3.5210   -2.9030 c         1 L2C      0.631100
     13 C22         1.6350   -4.6830   -2.9760 c3        1 L2C     -0.126400
     14 C23         1.0560   -5.8940   -2.2760 c3        1 L2C     -0.079400
     15 C24         1.9450   -7.1030   -2.4710 c3        1 L2C     -0.078400
     16 C25         1.3820   -8.3140   -1.7570 c3        1 L2C     -0.079400
     17 C26         2.2660   -9.5260   -1.9540 c3        1 L2C     -0.079400
     18 C27         1.7030  -10.7370   -1.2400 c3        1 L2C     -0.079400
     19 C28         2.5870  -11.9500   -1.4370 c3        1 L2C     -0.078400
     20 C29         2.0250  -13.1600   -0.7230 c3        1 L2C     -0.079400
     21 C30         2.9080  -14.3740   -0.9190 c3        1 L2C     -0.079400
     22 C31         2.3460  -15.5850   -0.2060 c3        1 L2C     -0.080400
     23 C32         3.2230  -16.7960   -0.3990 c3        1 L2C     -0.092100
     24 C41         0.5290   -1.1510   -2.6860 c3        1 L2C      0.115400
     25 O41         1.3500   -2.3260   -2.7590 os        1 L2C     -0.443900
     26 C42         1.4490    0.0430   -2.4520 c3        1 L2C      0.108100
     27 O42         2.0830   -0.0360   -1.1640 os        1 L2C     -0.447900
     28 C43         2.6020    0.0890   -3.4600 c3        1 L2C      0.135400
     29 O43         3.3770    1.2570   -3.2970 oh        1 L2C     -0.595800
     30 H121        3.0130   -0.4520    1.0540 hc        1 L2C      0.079200
     31 H122        2.5400    1.2610    1.4230 hc        1 L2C      0.079200
     32 H131        0.9260   -1.2950    2.1410 hc        1 L2C      0.058700
     33 H132        0.3550    0.3960    2.4190 hc        1 L2C      0.058700
     34 H141        2.3720    0.8410    3.8630 hc        1 L2C      0.041200
     35 H142        2.9600   -0.8410    3.5680 hc        1 L2C      0.041200
     36 H151        0.2580   -0.0790    4.8800 hc        1 L2C      0.043200
     37 H152        0.8500   -1.7600    4.5890 hc        1 L2C      0.043200
     38 H161        2.2750    0.3840    6.3160 hc        1 L2C      0.039200
     39 H162        2.8680   -1.2960    6.0240 hc        1 L2C      0.039200
     40 H171        0.1640   -0.5390    7.3350 hc        1 L2C      0.040700
     41 H172        0.7570   -2.2190    7.0430 hc        1 L2C      0.040700
     42 H181        2.7730   -1.7550    8.4770 hc        1 L2C      0.038200
     43 H182        2.1800   -0.0750    8.7690 hc        1 L2C      0.038200
     44 H191        1.5790   -1.5860   10.6610 hc        1 L2C      0.033033
     45 H192        0.0860   -0.9950    9.8220 hc        1 L2C      0.033033
     46 H193        0.6810   -2.6790    9.5300 hc        1 L2C      0.033033
     47 H221        1.8080   -4.9060   -4.0630 hc        1 L2C      0.078200
     48 H222        2.6220   -4.4000   -2.5230 hc        1 L2C      0.078200
     49 H231        0.0290   -6.1030   -2.6780 hc        1 L2C      0.058200
     50 H232        0.9450   -5.6780   -1.1800 hc        1 L2C      0.058200
     51 H241        2.0450   -7.3250   -3.5660 hc        1 L2C      0.041200
     52 H242        2.9740   -6.8820   -2.0830 hc        1 L2C      0.041200
     53 H251        1.2840   -8.0930   -0.6620 hc        1 L2C      0.042700
     54 H252        0.3510   -8.5320   -2.1440 hc        1 L2C      0.042700
     55 H261        3.2960   -9.3080   -1.5690 hc        1 L2C      0.040200
     56 H262        2.3620   -9.7480   -3.0500 hc        1 L2C      0.040200
     57 H271        1.6060  -10.5160   -0.1450 hc        1 L2C      0.040200
     58 H272        0.6720  -10.9560   -1.6260 hc        1 L2C      0.040200
     59 H281        2.6840  -12.1710   -2.5330 hc        1 L2C      0.039700
     60 H282        3.6180  -11.7310   -1.0520 hc        1 L2C      0.039700
     61 H291        0.9940  -13.3790   -1.1080 hc        1 L2C      0.039700
     62 H292        1.9270  -12.9390    0.3730 hc        1 L2C      0.039700
     63 H301        3.0050  -14.5950   -2.0150 hc        1 L2C      0.039700
     64 H302        3.9380  -14.1550   -0.5340 hc        1 L2C      0.039700
     65 H311        2.2480  -15.3610    0.8890 hc        1 L2C      0.038700
     66 H312        1.3150  -15.8010   -0.5920 hc        1 L2C      0.038700
     67 H321        3.3120  -17.0490   -1.4830 hc        1 L2C      0.032700
     68 H322        4.2480  -16.6090    0.0020 hc        1 L2C      0.032700
     69 H323        2.7910  -17.6770    0.1350 hc        1 L2C      0.032700
     70 H411       -0.2010   -1.2590   -1.8410 h1        1 L2C      0.071700
     71 H412       -0.0250   -1.0340   -3.6530 h1        1 L2C      0.071700
     72 H42         0.8310    0.9830   -2.5030 h1        1 L2C      0.089700
     73 H431        2.1850    0.1530   -4.4990 h1        1 L2C      0.064700
     74 H432        3.2380   -0.8290   -3.3520 h1        1 L2C      0.064700
     75 HO43        3.7520    1.2240   -2.4080 ho        1 L2C      0.409000
@<TRIPOS>BOND
     1    1    2 2   
     2    2    3 1   
     3    2   27 1   
     4    3    4 1   
     5    3   30 1   
     6    3   31 1   
     7    4    5 1   
     8    4   32 1   
     9    4   33 1   
    10    5    6 1   
    11    5   34 1   
    12    5   35 1   
    13    6    7 1   
    14    6   36 1   
    15    6   37 1   
    16    7    8 1   
    17    7   38 1   
    18    7   39 1   
    19    8    9 1   
    20    8   40 1   
    21    8   41 1   
    22    9   10 1   
    23    9   42 1   
    24    9   43 1   
    25   10   44 1   
    26   10   45 1   
    27   10   46 1   
    28   11   12 2   
    29   12   13 1   
    30   12   25 1   
    31   13   14 1   
    32   13   47 1   
    33   13   48 1   
    34   14   15 1   
    35   14   49 1   
    36   14   50 1   
    37   15   16 1   
    38   15   51 1   
    39   15   52 1   
    40   16   17 1   
    41   16   53 1   
    42   16   54 1   
    43   17   18 1   
    44   17   55 1   
    45   17   56 1   
    46   18   19 1   
    47   18   57 1   
    48   18   58 1   
    49   19   20 1   
    50   19   59 1   
    51   19   60 1   
    52   20   21 1   
    53   20   61 1   
    54   20   62 1   
    55   21   22 1   
    56   21   63 1   
    57   21   64 1   
    58   22   23 1   
    59   22   65 1   
    60   22   66 1   
    61   23   67 1   
    62   23   68 1   
    63   23   69 1   
    64   24   25 1   
    65   24   26 1   
    66   24   70 1   
    67   24   71 1   
    68   26   27 1   
    69   26   28 1   
    70   26   72 1   
    71   28   29 1   
    72   28   73 1   
    73   28   74 1   
    74   29   75 1   
@<TRIPOS>SUBSTRUCTURE
     1 L2C         1 TEMP              0 ****  ****    0 ROOT
