@<TRIPOS>MOLECULE
L2C
   75    74     1     0     0
SMALL
bcc


@<TRIPOS>ATOM
      1 O11         0.1780    0.6770   -0.2180 o         1 L2C     -0.538000
      2 C11         1.3450    0.3190   -0.0500 c         1 L2C      0.636100
      3 C12         2.1360    0.2350    1.2180 c3        1 L2C     -0.127400
      4 C13         1.2670   -0.2270    2.3690 c3        1 L2C     -0.079400
      5 C14         2.0340   -0.1760    3.6730 c3        1 L2C     -0.078400
      6 C15         1.1770   -0.6540    4.8260 c3        1 L2C     -0.079400
      7 C16         1.9390   -0.6000    6.1330 c3        1 L2C     -0.079400
      8 C17         1.0830   -1.0790    7.2870 c3        1 L2C     -0.079400
      9 C18         1.8430   -1.0250    8.5950 c3        1 L2C     -0.080400
     10 C19         0.9950   -1.5000    9.7470 c3        1 L2C     -0.093100
     11 O21        -0.5260   -3.5350   -2.9500 o         1 L2C     -0.537000
     12 C21         0.7030   -3.5460   -2.8780 c         1 L2C      0.631100
     13 C22         1.6470   -4.7060   -2.9480 c3        1 L2C     -0.126400
     14 C23         1.0610   -5.9250   -2.2660 c3        1 L2C     -0.079400
     15 C24         1.9560   -7.1300   -2.4620 c3        1 L2C     -0.078400
     16 C25         1.3860   -8.3480   -1.7680 c3        1 L2C     -0.079400
     17 C26         2.2750   -9.5570   -1.9660 c3        1 L2C     -0.079400
     18 C27         1.7050  -10.7770   -1.2720 c3        1 L2C     -0.079400
     19 C28         2.5930  -11.9860   -1.4700 c3        1 L2C     -0.078400
     20 C29         2.0230  -13.2050   -0.7770 c3        1 L2C     -0.079400
     21 C30         2.9110  -14.4150   -0.9750 c3        1 L2C     -0.079400
     22 C31         2.3410  -15.6350   -0.2830 c3        1 L2C     -0.080400
     23 C32         3.2220  -16.8420   -0.4770 c3        1 L2C     -0.092100
     24 C41         0.5300   -1.1770   -2.6630 c3        1 L2C      0.116400
     25 O41         1.3540   -2.3490   -2.7320 os        1 L2C     -0.443900
     26 C42         1.4460    0.0200   -2.4360 c3        1 L2C      0.108100
     27 O42         2.0800   -0.0500   -1.1470 os        1 L2C     -0.447900
     28 C43         2.5990    0.0660   -3.4430 c3        1 L2C      0.135400
     29 O43         3.3690    1.2370   -3.2870 oh        1 L2C     -0.595800
     30 H121        3.0050   -0.4600    1.0760 hc        1 L2C      0.079200
     31 H122        2.5450    1.2610    1.4250 hc        1 L2C      0.079200
     32 H131        0.3540    0.4240    2.4340 hc        1 L2C      0.058700
     33 H132        0.9140   -1.2740    2.1780 hc        1 L2C      0.058700
     34 H141        2.9530   -0.8160    3.5970 hc        1 L2C      0.041200
     35 H142        2.3760    0.8740    3.8700 hc        1 L2C      0.041200
     36 H151        0.2570   -0.0170    4.9000 hc        1 L2C      0.043200
     37 H152        0.8370   -1.7060    4.6320 hc        1 L2C      0.043200
     38 H161        2.8600   -1.2360    6.0590 hc        1 L2C      0.039200
     39 H162        2.2790    0.4510    6.3280 hc        1 L2C      0.039200
     40 H171        0.7440   -2.1300    7.0930 hc        1 L2C      0.040700
     41 H172        0.1620   -0.4430    7.3610 hc        1 L2C      0.040700
     42 H181        2.7650   -1.6600    8.5190 hc        1 L2C      0.038200
     43 H182        2.1830    0.0280    8.7870 hc        1 L2C      0.038200
     44 H191        0.6670   -2.5550    9.5850 hc        1 L2C      0.033033
     45 H192        0.0830   -0.8640    9.8540 hc        1 L2C      0.033033
     46 H193        1.5730   -1.4520   10.7010 hc        1 L2C      0.033033
     47 H221        1.8350   -4.9190   -4.0350 hc        1 L2C      0.078200
     48 H222        2.6270   -4.4240   -2.4790 hc        1 L2C      0.078200
     49 H231        0.9360   -5.7190   -1.1710 hc        1 L2C      0.058200
     50 H232        0.0400   -6.1310   -2.6840 hc        1 L2C      0.058200
     51 H241        2.9790   -6.9110   -2.0570 hc        1 L2C      0.041200
     52 H242        2.0710   -7.3410   -3.5580 hc        1 L2C      0.041200
     53 H251        0.3610   -8.5650   -2.1700 hc        1 L2C      0.042700
     54 H252        1.2730   -8.1390   -0.6710 hc        1 L2C      0.042700
     55 H261        2.3870   -9.7670   -3.0620 hc        1 L2C      0.039700
     56 H262        3.3000   -9.3410   -1.5640 hc        1 L2C      0.039700
     57 H271        0.6790  -10.9930   -1.6740 hc        1 L2C      0.040200
     58 H272        1.5930  -10.5680   -0.1760 hc        1 L2C      0.040200
     59 H281        2.7050  -12.1950   -2.5670 hc        1 L2C      0.039700
     60 H282        3.6180  -11.7700   -1.0680 hc        1 L2C      0.039700
     61 H291        1.9100  -12.9970    0.3190 hc        1 L2C      0.039700
     62 H292        0.9980  -13.4210   -1.1790 hc        1 L2C      0.039700
     63 H301        3.9360  -14.2000   -0.5730 hc        1 L2C      0.039700
     64 H302        3.0230  -14.6240   -2.0720 hc        1 L2C      0.039700
     65 H311        1.3160  -15.8490   -0.6860 hc        1 L2C      0.038700
     66 H312        2.2280  -15.4240    0.8130 hc        1 L2C      0.038700
     67 H321        2.7850  -17.7300    0.0400 hc        1 L2C      0.032700
     68 H322        4.2420  -16.6580   -0.0600 hc        1 L2C      0.032700
     69 H323        3.3270  -17.0840   -1.5630 hc        1 L2C      0.032700
     70 H411       -0.1990   -1.2840   -1.8170 h1        1 L2C      0.071700
     71 H412       -0.0260   -1.0660   -3.6300 h1        1 L2C      0.071700
     72 H42         0.8250    0.9590   -2.4910 h1        1 L2C      0.089700
     73 H431        3.2370   -0.8500   -3.3310 h1        1 L2C      0.064700
     74 H432        2.1810    0.1220   -4.4830 h1        1 L2C      0.064700
     75 HO43        3.7450    1.2100   -2.3970 ho        1 L2C      0.409000
@<TRIPOS>BOND
     1    1    2 2   
     2    2    3 1   
     3    2   27 1   
     4    3    4 1   
     5    3   30 1   
     6    3   31 1   
     7    4    5 1   
     8    4   32 1   
     9    4   33 1   
    10    5    6 1   
    11    5   34 1   
    12    5   35 1   
    13    6    7 1   
    14    6   36 1   
    15    6   37 1   
    16    7    8 1   
    17    7   38 1   
    18    7   39 1   
    19    8    9 1   
    20    8   40 1   
    21    8   41 1   
    22    9   10 1   
    23    9   42 1   
    24    9   43 1   
    25   10   44 1   
    26   10   45 1   
    27   10   46 1   
    28   11   12 2   
    29   12   13 1   
    30   12   25 1   
    31   13   14 1   
    32   13   47 1   
    33   13   48 1   
    34   14   15 1   
    35   14   49 1   
    36   14   50 1   
    37   15   16 1   
    38   15   51 1   
    39   15   52 1   
    40   16   17 1   
    41   16   53 1   
    42   16   54 1   
    43   17   18 1   
    44   17   55 1   
    45   17   56 1   
    46   18   19 1   
    47   18   57 1   
    48   18   58 1   
    49   19   20 1   
    50   19   59 1   
    51   19   60 1   
    52   20   21 1   
    53   20   61 1   
    54   20   62 1   
    55   21   22 1   
    56   21   63 1   
    57   21   64 1   
    58   22   23 1   
    59   22   65 1   
    60   22   66 1   
    61   23   67 1   
    62   23   68 1   
    63   23   69 1   
    64   24   25 1   
    65   24   26 1   
    66   24   70 1   
    67   24   71 1   
    68   26   27 1   
    69   26   28 1   
    70   26   72 1   
    71   28   29 1   
    72   28   73 1   
    73   28   74 1   
    74   29   75 1   
@<TRIPOS>SUBSTRUCTURE
     1 L2C         1 TEMP              0 ****  ****    0 ROOT
