@<TRIPOS>MOLECULE
L2C
   75    74     1     0     0
SMALL
bcc


@<TRIPOS>ATOM
      1 O11        -1.7120   -3.4870   -9.2140 o         1 L2C     -0.538000
      2 C11        -1.4950   -2.2870   -9.0410 c         1 L2C      0.636100
      3 C12        -2.4020   -1.2320   -8.4870 c3        1 L2C     -0.127400
      4 C13        -3.2410   -1.7810   -7.3520 c3        1 L2C     -0.079400
      5 C14        -4.2510   -0.7530   -6.8870 c3        1 L2C     -0.078400
      6 C15        -5.0810   -1.2880   -5.7400 c3        1 L2C     -0.079400
      7 C16        -6.0960   -0.2660   -5.2750 c3        1 L2C     -0.079400
      8 C17        -6.9260   -0.8000   -4.1270 c3        1 L2C     -0.079400
      9 C18        -7.9420    0.2210   -3.6610 c3        1 L2C     -0.080400
     10 C19        -8.7700   -0.3060   -2.5180 c3        1 L2C     -0.093100
     11 O21         2.6710   -4.4230   -6.8570 o         1 L2C     -0.537000
     12 C21         2.7980   -3.2110   -7.0400 c         1 L2C      0.631100
     13 C22         3.5980   -2.2130   -6.2630 c3        1 L2C     -0.126400
     14 C23         3.5530   -2.5170   -4.7800 c3        1 L2C     -0.079400
     15 C24         4.4730   -1.5910   -4.0140 c3        1 L2C     -0.078400
     16 C25         4.4180   -1.8770   -2.5290 c3        1 L2C     -0.079400
     17 C26         5.3400   -0.9560   -1.7590 c3        1 L2C     -0.079400
     18 C27         5.2850   -1.2400   -0.2740 c3        1 L2C     -0.079400
     19 C28         6.2070   -0.3200    0.4960 c3        1 L2C     -0.078400
     20 C29         6.1520   -0.6040    1.9820 c3        1 L2C     -0.079400
     21 C30         7.0740    0.3160    2.7520 c3        1 L2C     -0.079400
     22 C31         7.0190    0.0340    4.2390 c3        1 L2C     -0.080400
     23 C32         7.9360    0.9480    5.0100 c3        1 L2C     -0.092100
     24 C41         1.3620   -3.5300   -8.9180 c3        1 L2C      0.115400
     25 O41         2.1510   -2.6470   -8.1080 os        1 L2C     -0.443900
     26 C42         0.6790   -2.6890   -9.9900 c3        1 L2C      0.108100
     27 O42        -0.2750   -1.7830   -9.4090 os        1 L2C     -0.447900
     28 C43         1.6710   -1.7940  -10.7410 c3        1 L2C      0.135400
     29 O43         1.0400   -1.1070  -11.7990 oh        1 L2C     -0.595800
     30 H121       -3.0610   -0.8830   -9.3270 hc        1 L2C      0.079200
     31 H122       -1.7930   -0.3550   -8.1390 hc        1 L2C      0.079200
     32 H131       -3.7680   -2.7120   -7.6930 hc        1 L2C      0.058700
     33 H132       -2.5750   -2.0710   -6.4980 hc        1 L2C      0.058700
     34 H141       -4.9250   -0.4740   -7.7400 hc        1 L2C      0.041200
     35 H142       -3.7190    0.1800   -6.5640 hc        1 L2C      0.041200
     36 H151       -5.6090   -2.2240   -6.0620 hc        1 L2C      0.043200
     37 H152       -4.4080   -1.5660   -4.8860 hc        1 L2C      0.043200
     38 H161       -5.5680    0.6700   -4.9540 hc        1 L2C      0.039200
     39 H162       -6.7690    0.0110   -6.1290 hc        1 L2C      0.039200
     40 H171       -6.2530   -1.0760   -3.2730 hc        1 L2C      0.040700
     41 H172       -7.4540   -1.7360   -4.4480 hc        1 L2C      0.040700
     42 H181       -8.6130    0.4970   -4.5170 hc        1 L2C      0.038200
     43 H182       -7.4120    1.1570   -3.3420 hc        1 L2C      0.038200
     44 H191       -8.1210   -0.5640   -1.6460 hc        1 L2C      0.033033
     45 H192       -9.3250   -1.2250   -2.8240 hc        1 L2C      0.033033
     46 H193       -9.5120    0.4620   -2.1900 hc        1 L2C      0.033033
     47 H221        4.6550   -2.2660   -6.6400 hc        1 L2C      0.078200
     48 H222        3.2120   -1.1800   -6.4660 hc        1 L2C      0.078200
     49 H231        2.5020   -2.4030   -4.4050 hc        1 L2C      0.058200
     50 H232        3.8510   -3.5860   -4.6080 hc        1 L2C      0.058200
     51 H241        4.1800   -0.5250   -4.2040 hc        1 L2C      0.041200
     52 H242        5.5260   -1.7160   -4.3820 hc        1 L2C      0.041200
     53 H251        3.3660   -1.7500   -2.1600 hc        1 L2C      0.042700
     54 H252        4.7070   -2.9440   -2.3400 hc        1 L2C      0.042700
     55 H261        5.0510    0.1110   -1.9490 hc        1 L2C      0.040200
     56 H262        6.3920   -1.0840   -2.1270 hc        1 L2C      0.040200
     57 H271        5.5740   -2.3080   -0.0840 hc        1 L2C      0.040200
     58 H272        4.2330   -1.1130    0.0950 hc        1 L2C      0.040200
     59 H281        7.2590   -0.4480    0.1280 hc        1 L2C      0.039700
     60 H282        5.9180    0.7470    0.3060 hc        1 L2C      0.039700
     61 H291        5.0990   -0.4760    2.3500 hc        1 L2C      0.039700
     62 H292        6.4410   -1.6710    2.1720 hc        1 L2C      0.039700
     63 H301        6.7850    1.3840    2.5630 hc        1 L2C      0.039700
     64 H302        8.1260    0.1890    2.3850 hc        1 L2C      0.039700
     65 H311        7.3070   -1.0350    4.4260 hc        1 L2C      0.038700
     66 H312        5.9660    0.1600    4.6040 hc        1 L2C      0.038700
     67 H321        8.9940    0.8180    4.6770 hc        1 L2C      0.032700
     68 H322        7.8800    0.7220    6.1020 hc        1 L2C      0.032700
     69 H323        7.6490    2.0160    4.8550 hc        1 L2C      0.032700
     70 H411        2.0370   -4.2920   -9.3890 h1        1 L2C      0.071700
     71 H412        0.6010   -4.0450   -8.2740 h1        1 L2C      0.071700
     72 H42         0.1450   -3.3820  -10.7000 h1        1 L2C      0.089700
     73 H431        2.4540   -2.4340  -11.2270 h1        1 L2C      0.064700
     74 H432        2.1480   -1.0730  -10.0260 h1        1 L2C      0.064700
     75 HO43        0.3610   -0.5440  -11.4050 ho        1 L2C      0.409000
@<TRIPOS>BOND
     1    1    2 2   
     2    2    3 1   
     3    2   27 1   
     4    3    4 1   
     5    3   30 1   
     6    3   31 1   
     7    4    5 1   
     8    4   32 1   
     9    4   33 1   
    10    5    6 1   
    11    5   34 1   
    12    5   35 1   
    13    6    7 1   
    14    6   36 1   
    15    6   37 1   
    16    7    8 1   
    17    7   38 1   
    18    7   39 1   
    19    8    9 1   
    20    8   40 1   
    21    8   41 1   
    22    9   10 1   
    23    9   42 1   
    24    9   43 1   
    25   10   44 1   
    26   10   45 1   
    27   10   46 1   
    28   11   12 2   
    29   12   13 1   
    30   12   25 1   
    31   13   14 1   
    32   13   47 1   
    33   13   48 1   
    34   14   15 1   
    35   14   49 1   
    36   14   50 1   
    37   15   16 1   
    38   15   51 1   
    39   15   52 1   
    40   16   17 1   
    41   16   53 1   
    42   16   54 1   
    43   17   18 1   
    44   17   55 1   
    45   17   56 1   
    46   18   19 1   
    47   18   57 1   
    48   18   58 1   
    49   19   20 1   
    50   19   59 1   
    51   19   60 1   
    52   20   21 1   
    53   20   61 1   
    54   20   62 1   
    55   21   22 1   
    56   21   63 1   
    57   21   64 1   
    58   22   23 1   
    59   22   65 1   
    60   22   66 1   
    61   23   67 1   
    62   23   68 1   
    63   23   69 1   
    64   24   25 1   
    65   24   26 1   
    66   24   70 1   
    67   24   71 1   
    68   26   27 1   
    69   26   28 1   
    70   26   72 1   
    71   28   29 1   
    72   28   73 1   
    73   28   74 1   
    74   29   75 1   
@<TRIPOS>SUBSTRUCTURE
     1 L2C         1 TEMP              0 ****  ****    0 ROOT
