@<TRIPOS>MOLECULE
L2C
   75    72     1     0     0
SMALL
bcc


@<TRIPOS>ATOM
      1 O11         1.8620   -1.3620    3.8200 o         1 L2C     -0.344000
      2 C11         0.7210   -1.7540    3.9840 c1        1 L2C      0.307000
      3 C12        -0.0540   -1.3670    5.2720 c2        1 L2C     -0.156000
      4 C13         0.0610    0.1580    5.5080 c3        1 L2C     -0.158000
      5 C14        -0.3800    0.4890    6.9490 c3        1 L2C     -0.157000
      6 C15        -0.1700    2.0040    7.2230 c3        1 L2C     -0.158000
      7 C16         0.0460    2.2270    8.7250 c3        1 L2C     -0.158000
      8 C17         0.8010    3.5320    8.9390 c3        1 L2C     -0.158000
      9 C18         1.2700    3.6200   10.3930 c3        1 L2C     -0.159000
     10 C19         2.4910    4.5480   10.4800 c3        1 L2C     -0.211000
     11 O21         0.3520   -4.5160   -1.6120 o         1 L2C     -0.362000
     12 C21         1.0840   -3.5570   -1.3860 c1        1 L2C      0.307000
     13 C22         1.8210   -2.8630   -2.5480 c2        1 L2C     -0.156000
     14 C23         0.8860   -2.7580   -3.7550 c3        1 L2C     -0.158000
     15 C24         1.5140   -1.8600   -4.8030 c3        1 L2C     -0.158000
     16 C25         0.6600   -1.8680   -6.0550 c3        1 L2C     -0.157000
     17 C26         0.7420   -0.4880   -6.7410 c3        1 L2C     -0.158000
     18 C27        -0.4070   -0.3510   -7.7570 c3        1 L2C     -0.158000
     19 C28        -0.7110    1.1510   -7.9980 c3        1 L2C     -0.158000
     20 C29        -2.0860    1.2960   -8.7470 c3        1 L2C     -0.158000
     21 C30        -2.6340    2.7460   -8.5530 c3        1 L2C     -0.158000
     22 C31        -4.0610    2.8350   -9.1160 c3        1 L2C     -0.159000
     23 C32        -4.6320    4.2100   -8.8370 c3        1 L2C     -0.210000
     24 C41         0.5060   -3.8050    0.9710 c3        1 L2C     -0.033000
     25 O41         1.3510   -3.1530   -0.0140 os        1 L2C     -0.271000
     26 C42         1.0160   -3.4840    2.3720 c3        1 L2C      0.009000
     27 O42         0.1120   -2.6260    3.0110 os        1 L2C     -0.282000
     28 C43         1.1480   -4.7730    3.1750 c3        1 L2C     -0.034000
     29 O43         2.5190   -4.9960    3.4960 oh        1 L2C     -0.329000
     30 H121       -0.9900   -1.6100    5.1720 ha        1 L2C      0.118500
     31 H122        0.3250   -1.8430    6.0360 ha        1 L2C      0.118500
     32 H131        0.9900    0.4390    5.3780 hc        1 L2C      0.097000
     33 H132       -0.5140    0.6290    4.8750 hc        1 L2C      0.097000
     34 H141       -1.3230    0.2660    7.0600 hc        1 L2C      0.080000
     35 H142        0.1510   -0.0290    7.5770 hc        1 L2C      0.080000
     36 H151        0.6150    2.3190    6.7300 hc        1 L2C      0.082000
     37 H152       -0.9640    2.5030    6.9280 hc        1 L2C      0.082000
     38 H161       -0.8230    2.2750    9.1770 hc        1 L2C      0.079000
     39 H162        0.5670    1.4820    9.0950 hc        1 L2C      0.079000
     40 H171        0.2100    4.2870    8.7410 hc        1 L2C      0.079500
     41 H172        1.5750    3.5600    8.3460 hc        1 L2C      0.079500
     42 H181        1.5120    2.7330   10.7100 hc        1 L2C      0.077500
     43 H182        0.5530    3.9760   10.9430 hc        1 L2C      0.077500
     44 H191        3.1520    4.2810    9.8100 hc        1 L2C      0.072000
     45 H192        2.8920    4.4830   11.3820 hc        1 L2C      0.072000
     46 H193        2.2120    5.4710   10.3130 hc        1 L2C      0.072000
     47 H221        2.6100   -3.3850   -2.7910 ha        1 L2C      0.121000
     48 H222        2.0980   -1.9600   -2.2680 ha        1 L2C      0.121000
     49 H231        0.7400   -3.6510   -4.1350 hc        1 L2C      0.096500
     50 H232        0.0270   -2.3780   -3.4720 hc        1 L2C      0.096500
     51 H241        2.4010   -2.1840   -5.0150 hc        1 L2C      0.081000
     52 H242        1.5740   -0.9560   -4.4590 hc        1 L2C      0.081000
     53 H251        0.9860   -2.5580   -6.6690 hc        1 L2C      0.081500
     54 H252       -0.2730   -2.0580   -5.8140 hc        1 L2C      0.081500
     55 H261        0.6680    0.2140   -6.0680 hc        1 L2C      0.079500
     56 H262        1.5960   -0.4060   -7.2030 hc        1 L2C      0.079500
     57 H271       -0.1470   -0.7710   -8.6020 hc        1 L2C      0.079500
     58 H272       -1.2060   -0.7920   -7.4060 hc        1 L2C      0.079500
     59 H281       -0.7570    1.6150   -7.1400 hc        1 L2C      0.079000
     60 H282        0.0020    1.5460   -8.5440 hc        1 L2C      0.079000
     61 H291       -1.9580    1.1200   -9.7030 hc        1 L2C      0.079000
     62 H292       -2.7270    0.6520   -8.3800 hc        1 L2C      0.079000
     63 H301       -2.6460    2.9640   -7.6020 hc        1 L2C      0.079000
     64 H302       -2.0580    3.3780   -9.0250 hc        1 L2C      0.079000
     65 H311       -4.0410    2.6800  -10.0860 hc        1 L2C      0.078000
     66 H312       -4.6180    2.1620   -8.6920 hc        1 L2C      0.078000
     67 H321       -5.5460    4.2640   -9.1960 hc        1 L2C      0.072000
     68 H322       -4.6510    4.3660   -7.8720 hc        1 L2C      0.072000
     69 H323       -4.0700    4.8920   -9.2680 hc        1 L2C      0.072000
     70 H411       -0.4120   -3.4830    0.8780 h1        1 L2C      0.116500
     71 H412        0.5270   -4.7670    0.8320 h1        1 L2C      0.116500
     72 H42         1.8890   -3.0490    2.3080 h1        1 L2C      0.150000
     73 H431        0.6300   -4.6980    3.9990 h1        1 L2C      0.090000
     74 H432        0.8100   -5.5260    2.6440 h1        1 L2C      0.090000
     75 HO43        2.5840   -5.6840    4.0810 ho        1 L2C      0.203000
@<TRIPOS>BOND
     1    1    2 1   
     2    2   27 1   
     3    3    4 1   
     4    3   30 1   
     5    3   31 1   
     6    4    5 1   
     7    4   32 1   
     8    4   33 1   
     9    5    6 1   
    10    5   34 1   
    11    5   35 1   
    12    6    7 1   
    13    6   36 1   
    14    6   37 1   
    15    7    8 1   
    16    7   38 1   
    17    7   39 1   
    18    8    9 1   
    19    8   40 1   
    20    8   41 1   
    21    9   10 1   
    22    9   42 1   
    23    9   43 1   
    24   10   44 1   
    25   10   45 1   
    26   10   46 1   
    27   11   12 1   
    28   12   25 1   
    29   13   14 1   
    30   13   47 1   
    31   13   48 1   
    32   14   15 1   
    33   14   49 1   
    34   14   50 1   
    35   15   16 1   
    36   15   51 1   
    37   15   52 1   
    38   16   17 1   
    39   16   53 1   
    40   16   54 1   
    41   17   18 1   
    42   17   55 1   
    43   17   56 1   
    44   18   19 1   
    45   18   57 1   
    46   18   58 1   
    47   19   20 1   
    48   19   59 1   
    49   19   60 1   
    50   20   21 1   
    51   20   61 1   
    52   20   62 1   
    53   21   22 1   
    54   21   63 1   
    55   21   64 1   
    56   22   23 1   
    57   22   65 1   
    58   22   66 1   
    59   23   67 1   
    60   23   68 1   
    61   23   69 1   
    62   24   25 1   
    63   24   26 1   
    64   24   70 1   
    65   24   71 1   
    66   26   27 1   
    67   26   28 1   
    68   26   72 1   
    69   28   29 1   
    70   28   73 1   
    71   28   74 1   
    72   29   75 1   
@<TRIPOS>SUBSTRUCTURE
     1 L2C         1 TEMP              0 ****  ****    0 ROOT
