@<TRIPOS>MOLECULE
L2E
   59    61     1     0     0
SMALL
bcc


@<TRIPOS>ATOM
      1 CAA        -0.3550   -0.5980   -0.4970 c3        1 L2E     -0.057400
      2 CAT         1.0850   -0.2770   -0.3590 c2        1 L2E     -0.127400
      3 CAB         1.4300    0.7370    0.6660 c3        1 L2E     -0.057400
      4 CAI         2.0200   -0.8720   -1.1180 c2        1 L2E     -0.175200
      5 CAO         3.4670   -0.5750   -1.0110 c3        1 L2E     -0.043200
      6 CAQ         4.3000   -1.4680   -1.9120 c3        1 L2E     -0.040200
      7 CAU         5.7530   -1.1390   -1.8210 c2        1 L2E     -0.113400
      8 CAC         6.1920    0.0730   -2.5560 c3        1 L2E     -0.064900
      9 CAJ         6.5920   -1.9200   -1.1240 c2        1 L2E     -0.169200
     10 CAP         8.0580   -1.7130   -1.0040 c3        1 L2E      0.020100
     11 CBC         8.4570   -1.3830    0.3930 ca        1 L2E     -0.179300
     12 CAZ         8.7340   -0.0520    0.7810 ca        1 L2E      0.266100
     13 OAH         8.6090    0.8700   -0.2170 oh        1 L2E     -0.496100
     14 CAY         8.5740   -2.3900    1.3650 ca        1 L2E      0.217100
     15 OAG         8.2990   -3.6730    0.9630 oh        1 L2E     -0.483100
     16 CAN         8.9690   -2.1110    2.6820 ca        1 L2E     -0.298000
     17 CBB         9.2310   -0.7860    3.0340 ca        1 L2E      0.236100
     18 OAS         9.5800   -0.5990    4.3530 os        1 L2E     -0.321900
     19 CBD         9.1080    0.2750    2.1070 ca        1 L2E     -0.361600
     20 CAV         9.3310    1.6460    2.5580 c         1 L2E      0.604700
     21 OAD         9.3100    2.6350    1.8070 o         1 L2E     -0.572100
     22 CAR         9.5560    1.8210    4.0340 c3        1 L2E     -0.207400
     23 CBE        10.2910    0.6290    4.6260 c3        1 L2E      0.200400
     24 CBA        10.4050    0.7400    6.1160 ca        1 L2E     -0.095300
     25 CAM        11.5920    1.2380    6.6630 ca        1 L2E     -0.122000
     26 CAX        11.7080    1.3710    8.0520 ca        1 L2E      0.110100
     27 OAF        12.8900    1.8740    8.5400 oh        1 L2E     -0.492100
     28 CAW        10.6320    0.9910    8.8850 ca        1 L2E      0.051100
     29 OAE        10.8290    1.1530   10.2410 oh        1 L2E     -0.514100
     30 CAK         9.4550    0.4850    8.3290 ca        1 L2E     -0.173000
     31 CAL         9.3450    0.3640    6.9460 ca        1 L2E     -0.099000
     32 H1         -0.9260    0.3190   -0.7890 hc        1 L2E      0.039533
     33 H2         -0.5320   -1.3840   -1.2710 hc        1 L2E      0.039533
     34 H3         -0.7620   -0.9650    0.4780 hc        1 L2E      0.039533
     35 H5          2.0450    0.2720    1.4780 hc        1 L2E      0.039533
     36 H6          2.0330    1.5630    0.2110 hc        1 L2E      0.039533
     37 H7          0.5130    1.1790    1.1260 hc        1 L2E      0.039533
     38 H8          1.7330   -1.6240   -1.8710 ha        1 L2E      0.121000
     39 H10         3.8010   -0.7020    0.0550 hc        1 L2E      0.051200
     40 H11         3.6480    0.5030   -1.2780 hc        1 L2E      0.051200
     41 H12         3.9620   -1.3440   -2.9770 hc        1 L2E      0.044700
     42 H13         4.1250   -2.5400   -1.6310 hc        1 L2E      0.044700
     43 H14         6.7340   -0.2200   -3.4900 hc        1 L2E      0.044700
     44 H15         5.3190    0.7080   -2.8440 hc        1 L2E      0.044700
     45 H16         6.8850    0.6890   -1.9280 hc        1 L2E      0.044700
     46 H17         6.2170   -2.8050   -0.5810 ha        1 L2E      0.124000
     47 H18         8.4120   -0.9040   -1.6990 hc        1 L2E      0.063700
     48 H19         8.5740   -2.6680   -1.3080 hc        1 L2E      0.063700
     49 H20         8.8310    1.7590    0.1060 ho        1 L2E      0.463000
     50 H21         8.4450   -4.2640    1.7180 ho        1 L2E      0.427000
     51 H22         9.0710   -2.9090    3.4290 ha        1 L2E      0.157000
     52 H25        10.1440    2.7570    4.2260 hc        1 L2E      0.093200
     53 H26         8.5530    1.9380    4.5270 hc        1 L2E      0.093200
     54 H27        11.3140    0.5340    4.1590 h1        1 L2E      0.067700
     55 H28        12.4390    1.5300    6.0250 ha        1 L2E      0.156000
     56 H29        12.8290    1.8950    9.5080 ho        1 L2E      0.439000
     57 H30        10.0340    0.8390   10.6950 ho        1 L2E      0.432000
     58 H31         8.6220    0.1850    8.9810 ha        1 L2E      0.140000
     59 H32         8.4250   -0.0430    6.4990 ha        1 L2E      0.150000
@<TRIPOS>BOND
     1    1    2 1   
     2    1   32 1   
     3    1   33 1   
     4    1   34 1   
     5    2    3 1   
     6    2    4 2   
     7    3   35 1   
     8    3   36 1   
     9    3   37 1   
    10    4    5 1   
    11    4   38 1   
    12    5    6 1   
    13    5   39 1   
    14    5   40 1   
    15    6    7 1   
    16    6   41 1   
    17    6   42 1   
    18    7    8 1   
    19    7    9 2   
    20    8   43 1   
    21    8   44 1   
    22    8   45 1   
    23    9   10 1   
    24    9   46 1   
    25   10   11 1   
    26   10   47 1   
    27   10   48 1   
    28   11   12 ar  
    29   11   14 ar  
    30   12   13 1   
    31   12   19 ar  
    32   13   49 1   
    33   14   15 1   
    34   14   16 ar  
    35   15   50 1   
    36   16   17 ar  
    37   16   51 1   
    38   17   18 1   
    39   17   19 ar  
    40   18   23 1   
    41   19   20 1   
    42   20   21 2   
    43   20   22 1   
    44   22   23 1   
    45   22   52 1   
    46   22   53 1   
    47   23   24 1   
    48   23   54 1   
    49   24   25 ar  
    50   24   31 ar  
    51   25   26 ar  
    52   25   55 1   
    53   26   27 1   
    54   26   28 ar  
    55   27   56 1   
    56   28   29 1   
    57   28   30 ar  
    58   29   57 1   
    59   30   31 ar  
    60   30   58 1   
    61   31   59 1   
@<TRIPOS>SUBSTRUCTURE
     1 L2E         1 TEMP              0 ****  ****    0 ROOT
