@<TRIPOS>MOLECULE
L2E
   59    61     1     0     0
SMALL
bcc


@<TRIPOS>ATOM
      1 CAA        -0.3440   -0.5670   -0.4410 c3        1 L2E     -0.057400
      2 CAT         1.0990   -0.2560   -0.3070 c2        1 L2E     -0.127400
      3 CAB         1.4580    0.7200    0.7510 c3        1 L2E     -0.057400
      4 CAI         2.0240   -0.8270   -1.0960 c2        1 L2E     -0.175200
      5 CAO         3.4730   -0.5380   -0.9940 c3        1 L2E     -0.043200
      6 CAQ         4.2950   -1.4130   -1.9230 c3        1 L2E     -0.040200
      7 CAU         5.7500   -1.0920   -1.8350 c2        1 L2E     -0.113400
      8 CAC         6.1890    0.1340   -2.5460 c3        1 L2E     -0.064900
      9 CAJ         6.5900   -1.8930   -1.1630 c2        1 L2E     -0.169200
     10 CAP         8.0580   -1.6960   -1.0500 c3        1 L2E      0.020100
     11 CBC         8.4690   -1.3990    0.3510 ca        1 L2E     -0.179300
     12 CAZ         8.7560   -0.0790    0.7660 ca        1 L2E      0.266100
     13 OAH         8.6290    0.8660   -0.2100 oh        1 L2E     -0.496100
     14 CAY         8.5880   -2.4290    1.2990 ca        1 L2E      0.217100
     15 OAG         8.3040   -3.7010    0.8700 oh        1 L2E     -0.483100
     16 CAN         8.9940   -2.1810    2.6190 ca        1 L2E     -0.298000
     17 CBB         9.2660   -0.8660    2.9980 ca        1 L2E      0.236100
     18 OAS         9.6260   -0.7100    4.3190 os        1 L2E     -0.321900
     19 CBD         9.1420    0.2160    2.0970 ca        1 L2E     -0.361600
     20 CAV         9.3760    1.5760    2.5760 c         1 L2E      0.604700
     21 OAD         9.3540    2.5810    1.8480 o         1 L2E     -0.572100
     22 CAR         9.6130    1.7170    4.0540 c3        1 L2E     -0.207400
     23 CBE        10.3450    0.5080    4.6140 c3        1 L2E      0.200400
     24 CBA        10.4700    0.5850    6.1060 ca        1 L2E     -0.095300
     25 CAM        11.6640    1.0650    6.6550 ca        1 L2E     -0.122000
     26 CAX        11.7900    1.1650    8.0450 ca        1 L2E      0.110100
     27 OAF        12.9780    1.6510    8.5360 oh        1 L2E     -0.492100
     28 CAW        10.7180    0.7730    8.8780 ca        1 L2E      0.051100
     29 OAE        10.9250    0.9030   10.2350 oh        1 L2E     -0.514100
     30 CAK         9.5340    0.2860    8.3190 ca        1 L2E     -0.173000
     31 CAL         9.4150    0.1960    6.9340 ca        1 L2E     -0.099000
     32 H1         -0.9140    0.3620   -0.6970 hc        1 L2E      0.039533
     33 H2         -0.7430   -0.9640    0.5260 hc        1 L2E      0.039533
     34 H3         -0.5310   -1.3260   -1.2390 hc        1 L2E      0.039533
     35 H5          0.5480    1.1580    1.2260 hc        1 L2E      0.039533
     36 H6          2.0670    0.2200    1.5460 hc        1 L2E      0.039533
     37 H7          2.0710    1.5520    0.3220 hc        1 L2E      0.039533
     38 H8          1.7260   -1.5500   -1.8720 ha        1 L2E      0.121000
     39 H10         3.6560    0.5450   -1.2370 hc        1 L2E      0.051200
     40 H11         3.8160   -0.6920    0.0660 hc        1 L2E      0.051200
     41 H12         3.9490   -1.2620   -2.9810 hc        1 L2E      0.044700
     42 H13         4.1170   -2.4910   -1.6660 hc        1 L2E      0.044700
     43 H14         6.8910    0.7320   -1.9090 hc        1 L2E      0.044700
     44 H15         6.7210   -0.1390   -3.4910 hc        1 L2E      0.044700
     45 H16         5.3160    0.7800   -2.8100 hc        1 L2E      0.044700
     46 H17         6.2150   -2.7890   -0.6390 ha        1 L2E      0.124000
     47 H18         8.4110   -0.8730   -1.7290 hc        1 L2E      0.063700
     48 H19         8.5670   -2.6460   -1.3790 hc        1 L2E      0.063700
     49 H20         8.8580    1.7470    0.1320 ho        1 L2E      0.463000
     50 H21         8.4520   -4.3090    1.6110 ho        1 L2E      0.427000
     51 H22         9.0980   -2.9960    3.3480 ha        1 L2E      0.157000
     52 H25        10.2060    2.6450    4.2620 hc        1 L2E      0.093200
     53 H26         8.6140    1.8270    4.5570 hc        1 L2E      0.093200
     54 H27        11.3640    0.4180    4.1380 h1        1 L2E      0.067700
     55 H28        12.5080    1.3650    6.0180 ha        1 L2E      0.156000
     56 H29        12.9240    1.6510    9.5050 ho        1 L2E      0.439000
     57 H30        10.1320    0.5830   10.6880 ho        1 L2E      0.432000
     58 H31         8.7040   -0.0240    8.9700 ha        1 L2E      0.140000
     59 H32         8.4890   -0.1970    6.4850 ha        1 L2E      0.150000
@<TRIPOS>BOND
     1    1    2 1   
     2    1   32 1   
     3    1   33 1   
     4    1   34 1   
     5    2    3 1   
     6    2    4 2   
     7    3   35 1   
     8    3   36 1   
     9    3   37 1   
    10    4    5 1   
    11    4   38 1   
    12    5    6 1   
    13    5   39 1   
    14    5   40 1   
    15    6    7 1   
    16    6   41 1   
    17    6   42 1   
    18    7    8 1   
    19    7    9 2   
    20    8   43 1   
    21    8   44 1   
    22    8   45 1   
    23    9   10 1   
    24    9   46 1   
    25   10   11 1   
    26   10   47 1   
    27   10   48 1   
    28   11   12 ar  
    29   11   14 ar  
    30   12   13 1   
    31   12   19 ar  
    32   13   49 1   
    33   14   15 1   
    34   14   16 ar  
    35   15   50 1   
    36   16   17 ar  
    37   16   51 1   
    38   17   18 1   
    39   17   19 ar  
    40   18   23 1   
    41   19   20 1   
    42   20   21 2   
    43   20   22 1   
    44   22   23 1   
    45   22   52 1   
    46   22   53 1   
    47   23   24 1   
    48   23   54 1   
    49   24   25 ar  
    50   24   31 ar  
    51   25   26 ar  
    52   25   55 1   
    53   26   27 1   
    54   26   28 ar  
    55   27   56 1   
    56   28   29 1   
    57   28   30 ar  
    58   29   57 1   
    59   30   31 ar  
    60   30   58 1   
    61   31   59 1   
@<TRIPOS>SUBSTRUCTURE
     1 L2E         1 TEMP              0 ****  ****    0 ROOT
