@<TRIPOS>MOLECULE
L2G
   85    91     1     0     0
SMALL
bcc


@<TRIPOS>ATOM
      1 C1          0.1370    0.0430   -0.0380 cc        1 L2G      0.423500
      2 C2          1.5820    0.1700   -0.0020 ca        1 L2G     -0.498500
      3 C3         -0.6970   -0.0850   -1.2250 ca        1 L2G     -0.100900
      4 N1         -0.3540    0.0630    1.2290 nd        1 L2G     -0.509100
      5 C4          1.9030    0.2590    1.4140 ca        1 L2G      0.476800
      6 C5          2.6720    0.2530   -0.9230 ca        1 L2G      0.768200
      7 C6         -1.7420    0.8210   -1.4440 ca        1 L2G     -0.143000
      8 C7         -0.4770   -1.1140   -2.1430 ca        1 L2G     -0.128000
      9 N2          0.6700    0.2030    2.0930 na        1 L2G      0.000200
     10 N3          3.1780    0.3940    1.8960 nb        1 L2G     -0.746000
     11 N4          3.9530    0.3940   -0.4370 nb        1 L2G     -0.803000
     12 N5          2.4530    0.1740   -2.2740 nv        1 L2G     -0.964500
     13 C8         -2.5380    0.7070   -2.5820 ca        1 L2G      0.065100
     14 C9         -1.2670   -1.2370   -3.2820 ca        1 L2G     -0.140000
     15 C10         0.5160    0.1570    3.5480 c3        1 L2G      0.079000
     16 C11         4.1040    0.4470    0.9130 ca        1 L2G      0.697900
     17 C12        -2.3150   -0.3310   -3.5410 ca        1 L2G      0.060600
     18 O1         -3.5590    1.6020   -2.8710 os        1 L2G     -0.350900
     19 C13        -0.4270    1.2520    4.0680 c3        1 L2G     -0.091900
     20 C14         0.0130   -1.2060    4.0480 c3        1 L2G     -0.091900
     21 N6         -3.1390   -0.4110   -4.6720 ns        1 L2G     -0.463100
     22 C15        -4.1140    2.2870   -1.7520 c3        1 L2G      0.116700
     23 C16        -0.4640    1.2320    5.5820 c3        1 L2G     -0.079900
     24 C17        -0.0230   -1.2200    5.5600 c3        1 L2G     -0.079900
     25 C18        -2.9120   -1.1630   -5.8170 c         1 L2G      0.702300
     26 C19        -0.9660   -0.1250    6.0980 c3        1 L2G      0.188500
     27 C20        -3.9310   -1.0500   -6.8910 cc        1 L2G     -0.145300
     28 O2         -1.9380   -1.9250   -5.9510 o         1 L2G     -0.578100
     29 N7         -1.0770   -0.2240    7.5600 n3        1 L2G     -0.736600
     30 N8         -4.5770    0.1440   -7.2830 na        1 L2G     -0.067400
     31 C21        -4.4070   -2.1270   -7.6390 cd        1 L2G     -0.097200
     32 C22        -2.0580   -1.2260    7.9550 c3        1 L2G      0.148800
     33 C23        -1.2700    1.0400    8.2490 c3        1 L2G      0.148800
     34 C24        -5.4410   -0.1770   -8.3380 ca        1 L2G     -0.026200
     35 C25        -4.1630    1.4660   -6.9410 c3        1 L2G      0.019600
     36 C26        -5.3780   -1.6030   -8.5690 ca        1 L2G     -0.113800
     37 C27        -2.1750   -1.3900    9.4860 c3        1 L2G      0.083000
     38 C28        -1.3850    0.8740    9.7840 c3        1 L2G      0.083000
     39 C29        -6.3000    0.6350   -9.1010 ca        1 L2G     -0.149000
     40 C30        -6.1830   -2.1820   -9.5520 ca        1 L2G     -0.070000
     41 N9         -2.3300   -0.1350   10.1900 n         1 L2G     -0.463800
     42 C31        -7.0770    0.0220  -10.0690 ca        1 L2G     -0.100000
     43 C32        -7.0230   -1.3670  -10.2940 ca        1 L2G     -0.160000
     44 C33        -3.5330    0.1660   10.8250 c         1 L2G      0.653100
     45 C34        -3.7210    1.5240   11.4550 c3        1 L2G     -0.170100
     46 O3         -4.4210   -0.7040   10.9290 o         1 L2G     -0.607100
     47 H6         -1.9280    1.6210   -0.7120 ha        1 L2G      0.152000
     48 H7          0.3200   -1.8530   -1.9590 ha        1 L2G      0.150000
     49 H5N1        1.5200    0.1690   -2.6050 hn        1 L2G      0.448300
     50 H5N2        3.1990    0.2950   -2.9130 hn        1 L2G      0.448300
     51 H9         -1.0650   -2.0650   -3.9830 ha        1 L2G      0.180000
     52 H10         1.5480    0.3390    3.9760 h1        1 L2G      0.091700
     53 H11         5.1570    0.5540    1.2570 h5        1 L2G      0.052100
     54 H131       -0.0720    2.2580    3.7230 hc        1 L2G      0.058950
     55 H132       -1.4590    1.0950    3.6580 hc        1 L2G      0.058950
     56 H141        0.6950   -2.0200    3.6890 hc        1 L2G      0.058950
     57 H142       -1.0090   -1.4100    3.6360 hc        1 L2G      0.058950
     58 HA         -3.9570    0.1600   -4.6380 hn        1 L2G      0.337500
     59 H151       -3.4130    3.0870   -1.4090 h1        1 L2G      0.047700
     60 H152       -4.3440    1.5810   -0.9180 h1        1 L2G      0.047700
     61 H153       -5.0530    2.7390   -2.1610 h1        1 L2G      0.047700
     62 H161       -1.1460    2.0550    5.9230 hc        1 L2G      0.052200
     63 H162        0.5600    1.4390    5.9900 hc        1 L2G      0.052200
     64 H171        1.0070   -1.0610    5.9720 hc        1 L2G      0.052200
     65 H172       -0.3700   -2.2300    5.9010 hc        1 L2G      0.052200
     66 H19        -1.9860   -0.2940    5.6260 h1        1 L2G      0.029700
     67 H21        -4.0990   -3.1650   -7.5380 ha        1 L2G      0.172000
     68 H221       -1.7310   -2.2170    7.5330 h1        1 L2G      0.038700
     69 H222       -3.0820   -0.9960    7.5380 h1        1 L2G      0.038700
     70 H231       -0.3680    1.6860    8.0580 h1        1 L2G      0.038700
     71 H232       -2.1830    1.5910    7.8790 h1        1 L2G      0.038700
     72 H251       -4.6940    1.8020   -6.0080 h1        1 L2G      0.055367
     73 H252       -4.4200    2.1740   -7.7740 h1        1 L2G      0.055367
     74 H253       -3.0540    1.5010   -6.7630 h1        1 L2G      0.055367
     75 H271       -3.0520   -2.0620    9.7020 h1        1 L2G      0.064200
     76 H272       -1.2380   -1.8830    9.8750 h1        1 L2G      0.064200
     77 H281       -0.3740    0.5750   10.1890 h1        1 L2G      0.064200
     78 H282       -1.6510    1.8770   10.2150 h1        1 L2G      0.064200
     79 H29        -6.3530    1.7180   -8.9320 ha        1 L2G      0.134000
     80 H30        -6.1430   -3.2670   -9.7280 ha        1 L2G      0.138000
     81 H31        -7.7580    0.6330  -10.6820 ha        1 L2G      0.132000
     82 H32        -7.6630   -1.8050  -11.0740 ha        1 L2G      0.133000
     83 H341       -2.8770    1.7670   12.1440 hc        1 L2G      0.065700
     84 H342       -3.7960    2.3100   10.6660 hc        1 L2G      0.065700
     85 H343       -4.6740    1.5110   12.0410 hc        1 L2G      0.065700
@<TRIPOS>BOND
     1    1    2 1   
     2    1    3 1   
     3    1    4 2   
     4    2    5 ar  
     5    2    6 ar  
     6    3    7 ar  
     7    3    8 ar  
     8    4    9 1   
     9    5    9 1   
    10    5   10 ar  
    11    6   11 ar  
    12    6   12 1   
    13    7   13 ar  
    14    7   47 1   
    15    8   14 ar  
    16    8   48 1   
    17    9   15 1   
    18   10   16 ar  
    19   11   16 ar  
    20   12   49 1   
    21   12   50 1   
    22   13   17 ar  
    23   13   18 1   
    24   14   17 ar  
    25   14   51 1   
    26   15   19 1   
    27   15   20 1   
    28   15   52 1   
    29   16   53 1   
    30   17   21 1   
    31   18   22 1   
    32   19   23 1   
    33   19   54 1   
    34   19   55 1   
    35   20   24 1   
    36   20   56 1   
    37   20   57 1   
    38   21   25 1   
    39   21   58 1   
    40   22   59 1   
    41   22   60 1   
    42   22   61 1   
    43   23   26 1   
    44   23   62 1   
    45   23   63 1   
    46   24   26 1   
    47   24   64 1   
    48   24   65 1   
    49   25   27 1   
    50   25   28 2   
    51   26   29 1   
    52   26   66 1   
    53   27   30 1   
    54   27   31 2   
    55   29   32 1   
    56   29   33 1   
    57   30   34 1   
    58   30   35 1   
    59   31   36 1   
    60   31   67 1   
    61   32   37 1   
    62   32   68 1   
    63   32   69 1   
    64   33   38 1   
    65   33   70 1   
    66   33   71 1   
    67   34   36 ar  
    68   34   39 ar  
    69   35   72 1   
    70   35   73 1   
    71   35   74 1   
    72   36   40 ar  
    73   37   41 1   
    74   37   75 1   
    75   37   76 1   
    76   38   41 1   
    77   38   77 1   
    78   38   78 1   
    79   39   42 ar  
    80   39   79 1   
    81   40   43 ar  
    82   40   80 1   
    83   41   44 1   
    84   42   43 ar  
    85   42   81 1   
    86   43   82 1   
    87   44   45 1   
    88   44   46 2   
    89   45   83 1   
    90   45   84 1   
    91   45   85 1   
@<TRIPOS>SUBSTRUCTURE
     1 L2G         1 TEMP              0 ****  ****    0 ROOT
