@<TRIPOS>MOLECULE
L2G
   85    91     1     0     0
SMALL
bcc


@<TRIPOS>ATOM
      1 C1          0.1380    0.0430   -0.0360 cc        1 L2G      0.423500
      2 C2          1.5840    0.1600   -0.0000 ca        1 L2G     -0.498500
      3 C3         -0.6960   -0.0830   -1.2240 ca        1 L2G     -0.100900
      4 N1         -0.3540    0.0710    1.2300 nd        1 L2G     -0.509100
      5 C4          1.9050    0.2520    1.4160 ca        1 L2G      0.476800
      6 C5          2.6760    0.2310   -0.9210 ca        1 L2G      0.768200
      7 C6         -1.7330    0.8300   -1.4470 ca        1 L2G     -0.143000
      8 C7         -0.4820   -1.1180   -2.1380 ca        1 L2G     -0.128000
      9 N2          0.6700    0.2080    2.0940 na        1 L2G      0.000200
     10 N3          3.1800    0.3800    1.8990 nb        1 L2G     -0.746000
     11 N4          3.9570    0.3650   -0.4340 nb        1 L2G     -0.803000
     12 N5          2.4570    0.1500   -2.2710 nh        1 L2G     -0.964500
     13 C8         -2.5300    0.7170   -2.5850 ca        1 L2G      0.065100
     14 C9         -1.2730   -1.2390   -3.2770 ca        1 L2G     -0.141000
     15 C10         0.5160    0.1620    3.5490 c3        1 L2G      0.079000
     16 C11         4.1080    0.4220    0.9160 ca        1 L2G      0.697900
     17 C12        -2.3140   -0.3270   -3.5400 ca        1 L2G      0.060600
     18 O1         -3.5440    1.6180   -2.8790 os        1 L2G     -0.350900
     19 C13        -0.4320    1.2540    4.0680 c3        1 L2G     -0.091900
     20 C14         0.0190   -1.2020    4.0490 c3        1 L2G     -0.091900
     21 N6         -3.1380   -0.4050   -4.6710 n         1 L2G     -0.463100
     22 C15        -4.0950    2.3120   -1.7630 c3        1 L2G      0.116700
     23 C16        -0.4700    1.2340    5.5820 c3        1 L2G     -0.079900
     24 C17        -0.0190   -1.2160    5.5620 c3        1 L2G     -0.079900
     25 C18        -2.9180   -1.1660   -5.8110 c         1 L2G      0.702300
     26 C19        -0.9670   -0.1240    6.0980 c3        1 L2G      0.187500
     27 C20        -3.9360   -1.0510   -6.8860 cc        1 L2G     -0.145300
     28 O2         -1.9510   -1.9390   -5.9410 o         1 L2G     -0.578100
     29 N7         -1.0780   -0.2230    7.5610 n3        1 L2G     -0.736600
     30 N8         -4.5700    0.1470   -7.2860 na        1 L2G     -0.067400
     31 C21        -4.4240   -2.1280   -7.6270 cd        1 L2G     -0.097200
     32 C22        -2.0540   -1.2310    7.9560 c3        1 L2G      0.148800
     33 C23        -1.2790    1.0400    8.2480 c3        1 L2G      0.148800
     34 C24        -5.4380   -0.1720   -8.3390 ca        1 L2G     -0.026200
     35 C25        -4.1420    1.4670   -6.9530 c3        1 L2G      0.019600
     36 C26        -5.3890   -1.6000   -8.5590 ca        1 L2G     -0.113800
     37 C27        -2.1710   -1.3940    9.4860 c3        1 L2G      0.083000
     38 C28        -1.3940    0.8750    9.7830 c3        1 L2G      0.083000
     39 C29        -6.2880    0.6440   -9.1070 ca        1 L2G     -0.149000
     40 C30        -6.2010   -2.1770   -9.5390 ca        1 L2G     -0.070000
     41 N9         -2.3350   -0.1400   10.1890 n         1 L2G     -0.463800
     42 C31        -7.0730    0.0320  -10.0700 ca        1 L2G     -0.100000
     43 C32        -7.0330   -1.3590  -10.2850 ca        1 L2G     -0.160000
     44 C33        -3.5390    0.1550   10.8230 c         1 L2G      0.653100
     45 C34        -3.7360    1.5130   11.4510 c3        1 L2G     -0.170100
     46 O3         -4.4230   -0.7200   10.9270 o         1 L2G     -0.607100
     47 H6         -1.9140    1.6340   -0.7190 ha        1 L2G      0.152000
     48 H7          0.3080   -1.8620   -1.9500 ha        1 L2G      0.150000
     49 H5N1        1.5230    0.1490   -2.6030 hn        1 L2G      0.448300
     50 H5N2        3.2040    0.2630   -2.9110 hn        1 L2G      0.448300
     51 H9         -1.0760   -2.0720   -3.9750 ha        1 L2G      0.180000
     52 H10         1.5470    0.3490    3.9770 h1        1 L2G      0.091700
     53 H11         5.1600    0.5240    1.2600 h5        1 L2G      0.052100
     54 H131       -1.4630    1.0910    3.6580 hc        1 L2G      0.058950
     55 H132       -0.0810    2.2610    3.7220 hc        1 L2G      0.058950
     56 H141        0.7050   -2.0140    3.6910 hc        1 L2G      0.058950
     57 H142       -1.0020   -1.4120    3.6370 hc        1 L2G      0.058950
     58 HA         -3.9510    0.1730   -4.6410 hn        1 L2G      0.337500
     59 H151       -4.3300    1.6120   -0.9260 h1        1 L2G      0.047700
     60 H152       -5.0290    2.7700   -2.1750 h1        1 L2G      0.047700
     61 H153       -3.3870    3.1080   -1.4230 h1        1 L2G      0.047700
     62 H161       -1.1550    2.0540    5.9220 hc        1 L2G      0.052200
     63 H162        0.5530    1.4460    5.9900 hc        1 L2G      0.052200
     64 H171       -0.3620   -2.2270    5.9020 hc        1 L2G      0.052200
     65 H172        1.0110   -1.0520    5.9740 hc        1 L2G      0.052200
     66 H19        -1.9860   -0.2990    5.6260 h1        1 L2G      0.029700
     67 H21        -4.1270   -3.1680   -7.5190 ha        1 L2G      0.172000
     68 H221       -1.7210   -2.2200    7.5350 h1        1 L2G      0.038700
     69 H222       -3.0790   -1.0060    7.5370 h1        1 L2G      0.038700
     70 H231       -0.3800    1.6910    8.0580 h1        1 L2G      0.038700
     71 H232       -2.1940    1.5860    7.8760 h1        1 L2G      0.038700
     72 H251       -3.0340    1.4920   -6.7750 h1        1 L2G      0.055367
     73 H252       -4.6700    1.8150   -6.0220 h1        1 L2G      0.055367
     74 H253       -4.3920    2.1730   -7.7900 h1        1 L2G      0.055367
     75 H271       -1.2320   -1.8810    9.8760 h1        1 L2G      0.064200
     76 H272       -3.0450   -2.0710    9.7020 h1        1 L2G      0.064200
     77 H281       -0.3830    0.5820   10.1900 h1        1 L2G      0.064200
     78 H282       -1.6670    1.8770   10.2130 h1        1 L2G      0.064200
     79 H29        -6.3310    1.7290   -8.9450 ha        1 L2G      0.134000
     80 H30        -6.1720   -3.2640   -9.7070 ha        1 L2G      0.138000
     81 H31        -7.7470    0.6460  -10.6870 ha        1 L2G      0.132000
     82 H32        -7.6780   -1.7960  -11.0620 ha        1 L2G      0.133000
     83 H341       -2.8940    1.7620   12.1410 hc        1 L2G      0.065700
     84 H342       -4.6890    1.4950   12.0370 hc        1 L2G      0.065700
     85 H343       -3.8140    2.2980   10.6610 hc        1 L2G      0.065700
@<TRIPOS>BOND
     1    1    2 1   
     2    1    3 1   
     3    1    4 2   
     4    2    5 ar  
     5    2    6 ar  
     6    3    7 ar  
     7    3    8 ar  
     8    4    9 1   
     9    5    9 1   
    10    5   10 ar  
    11    6   11 ar  
    12    6   12 1   
    13    7   13 ar  
    14    7   47 1   
    15    8   14 ar  
    16    8   48 1   
    17    9   15 1   
    18   10   16 ar  
    19   11   16 ar  
    20   12   49 1   
    21   12   50 1   
    22   13   17 ar  
    23   13   18 1   
    24   14   17 ar  
    25   14   51 1   
    26   15   19 1   
    27   15   20 1   
    28   15   52 1   
    29   16   53 1   
    30   17   21 1   
    31   18   22 1   
    32   19   23 1   
    33   19   54 1   
    34   19   55 1   
    35   20   24 1   
    36   20   56 1   
    37   20   57 1   
    38   21   25 1   
    39   21   58 1   
    40   22   59 1   
    41   22   60 1   
    42   22   61 1   
    43   23   26 1   
    44   23   62 1   
    45   23   63 1   
    46   24   26 1   
    47   24   64 1   
    48   24   65 1   
    49   25   27 1   
    50   25   28 2   
    51   26   29 1   
    52   26   66 1   
    53   27   30 1   
    54   27   31 2   
    55   29   32 1   
    56   29   33 1   
    57   30   34 1   
    58   30   35 1   
    59   31   36 1   
    60   31   67 1   
    61   32   37 1   
    62   32   68 1   
    63   32   69 1   
    64   33   38 1   
    65   33   70 1   
    66   33   71 1   
    67   34   36 ar  
    68   34   39 ar  
    69   35   72 1   
    70   35   73 1   
    71   35   74 1   
    72   36   40 ar  
    73   37   41 1   
    74   37   75 1   
    75   37   76 1   
    76   38   41 1   
    77   38   77 1   
    78   38   78 1   
    79   39   42 ar  
    80   39   79 1   
    81   40   43 ar  
    82   40   80 1   
    83   41   44 1   
    84   42   43 ar  
    85   42   81 1   
    86   43   82 1   
    87   44   45 1   
    88   44   46 2   
    89   45   83 1   
    90   45   84 1   
    91   45   85 1   
@<TRIPOS>SUBSTRUCTURE
     1 L2G         1 TEMP              0 ****  ****    0 ROOT
