@<TRIPOS>MOLECULE
L2G
   85    91     1     0     0
SMALL
bcc


@<TRIPOS>ATOM
      1 C1          0.1880   -1.9370   -0.1440 cc        1 L2G      0.423500
      2 C2          0.5080   -3.3460   -0.2750 ca        1 L2G     -0.498500
      3 C3         -1.1420   -1.3500   -0.0620 ca        1 L2G     -0.100900
      4 N1          1.3360   -1.2100   -0.1090 nd        1 L2G     -0.509100
      5 C4          1.9620   -3.3870   -0.3060 ca        1 L2G      0.476800
      6 C5         -0.1810   -4.5930   -0.4000 ca        1 L2G      0.768200
      7 C6         -1.5230   -0.3560   -0.9720 ca        1 L2G     -0.143000
      8 C7         -2.0410   -1.7560    0.9270 ca        1 L2G     -0.128000
      9 N2          2.3860   -2.0460   -0.2170 na        1 L2G      0.000200
     10 N3          2.6870   -4.5430   -0.4270 nb        1 L2G     -0.746000
     11 N4          0.5500   -5.7540   -0.5260 nb        1 L2G     -0.803000
     12 N5         -1.5500   -4.6400   -0.3770 nh        1 L2G     -0.964500
     13 C8         -2.7970    0.2040   -0.9020 ca        1 L2G      0.065100
     14 C9         -3.3150   -1.2020    1.0060 ca        1 L2G     -0.140000
     15 C10         3.7810   -1.6140   -0.1140 c3        1 L2G      0.079000
     16 C11         1.9050   -5.6410   -0.5240 ca        1 L2G      0.697900
     17 C12        -3.7360   -0.2140    0.0950 ca        1 L2G      0.060600
     18 O1         -3.2430    1.1610   -1.8040 os        1 L2G     -0.350900
     19 C13         4.1520   -0.5830   -1.1900 c3        1 L2G     -0.091900
     20 C14         4.1200   -1.0310    1.2660 c3        1 L2G     -0.091900
     21 N6         -5.0070    0.3750    0.1310 n         1 L2G     -0.463100
     22 C15        -2.2260    1.9300   -2.4390 c3        1 L2G      0.116700
     23 C16         5.6280   -0.2540   -1.1100 c3        1 L2G     -0.079900
     24 C17         5.5950   -0.7030    1.3400 c3        1 L2G     -0.079900
     25 C18        -6.1160   -0.0790    0.8320 c         1 L2G      0.702300
     26 C19         5.9830    0.3320    0.2650 c3        1 L2G      0.188500
     27 C20        -7.3610    0.7140    0.6790 cc        1 L2G     -0.145300
     28 O2         -6.0890   -1.0710    1.5830 o         1 L2G     -0.578100
     29 N7          7.3910    0.7230    0.4220 n3        1 L2G     -0.736600
     30 N8         -7.8220    1.2870   -0.5270 na        1 L2G     -0.067400
     31 C21        -8.2310    1.0220    1.7250 cd        1 L2G     -0.097200
     32 C22         7.5490    1.7580    1.4360 c3        1 L2G      0.148800
     33 C23         8.0790    1.0510   -0.8140 c3        1 L2G      0.148800
     34 C24        -9.0380    1.9270   -0.2470 ca        1 L2G     -0.026200
     35 C25        -7.3540    0.9650   -1.8360 c3        1 L2G      0.019600
     36 C26        -9.3090    1.8010    1.1680 ca        1 L2G     -0.113800
     37 C27         9.0200    2.1670    1.6600 c3        1 L2G      0.083000
     38 C28         9.5550    1.4590   -0.5880 c3        1 L2G      0.083000
     39 C29        -9.9190    2.6320   -1.0860 ca        1 L2G     -0.149000
     40 C30       -10.4530    2.3930    1.7080 ca        1 L2G     -0.070000
     41 N9          9.7300    2.4620    0.4340 n         1 L2G     -0.463800
     42 C31       -11.0440    3.1990   -0.5110 ca        1 L2G     -0.100000
     43 C32       -11.3100    3.0840    0.8670 ca        1 L2G     -0.160000
     44 C33        10.1320    3.7650    0.1540 c         1 L2G      0.653100
     45 C34        10.7670    4.0780   -1.1780 c3        1 L2G     -0.170100
     46 O3         10.0280    4.6530    1.0250 o         1 L2G     -0.607100
     47 H6         -0.8090   -0.0230   -1.7400 ha        1 L2G      0.152000
     48 H7         -1.7360   -2.5110    1.6700 ha        1 L2G      0.150000
     49 H5N1       -2.0280   -5.4940   -0.5270 hn        1 L2G      0.448300
     50 H5N2       -2.0550   -3.7880   -0.3820 hn        1 L2G      0.448300
     51 H9         -3.9970   -1.5470    1.8030 ha        1 L2G      0.180000
     52 H10         4.4080   -2.5430   -0.2760 h1        1 L2G      0.091700
     53 H11         2.4500   -6.6060   -0.6210 h5        1 L2G      0.052100
     54 H131        3.9220   -0.9930   -2.2080 hc        1 L2G      0.058950
     55 H132        3.5440    0.3490   -1.0520 hc        1 L2G      0.058950
     56 H141        3.5100   -0.1080    1.4520 hc        1 L2G      0.058950
     57 H142        3.8680   -1.7730    2.0680 hc        1 L2G      0.058950
     58 HA         -5.1100    1.1920   -0.4350 hn        1 L2G      0.337500
     59 H151       -2.7910    2.7770   -2.9040 h1        1 L2G      0.047700
     60 H152       -1.4810    2.3070   -1.6980 h1        1 L2G      0.047700
     61 H153       -1.7210    1.3180   -3.2270 h1        1 L2G      0.047700
     62 H161        6.2340   -1.1790   -1.2980 hc        1 L2G      0.052200
     63 H162        5.8630    0.4850   -1.9200 hc        1 L2G      0.052200
     64 H171        6.2040   -1.6330    1.2010 hc        1 L2G      0.052200
     65 H172        5.8220   -0.3010    2.3620 hc        1 L2G      0.052200
     66 H19         5.3160    1.2400    0.4130 h1        1 L2G      0.029700
     67 H21        -8.1150    0.7260    2.7650 ha        1 L2G      0.172000
     68 H221        6.9510    2.6830    1.1860 h1        1 L2G      0.038700
     69 H222        7.1590    1.3500    2.4100 h1        1 L2G      0.038700
     70 H231        8.0920    0.1320   -1.4650 h1        1 L2G      0.038700
     71 H232        7.5620    1.8780   -1.3830 h1        1 L2G      0.038700
     72 H251       -6.5280    1.6710   -2.1300 h1        1 L2G      0.055367
     73 H252       -6.9630   -0.0870   -1.8690 h1        1 L2G      0.055367
     74 H253       -8.1910    1.0650   -2.5780 h1        1 L2G      0.055367
     75 H271        9.0360    3.0660    2.3380 h1        1 L2G      0.064200
     76 H272        9.5630    1.3210    2.1710 h1        1 L2G      0.064200
     77 H281        9.9670    1.8080   -1.5730 h1        1 L2G      0.064200
     78 H282       10.1360    0.5450   -0.2690 h1        1 L2G      0.064200
     79 H29        -9.7200    2.7320   -2.1620 ha        1 L2G      0.134000
     80 H30       -10.6620    2.3050    2.7840 ha        1 L2G      0.138000
     81 H31       -11.7510    3.7560   -1.1440 ha        1 L2G      0.132000
     82 H32       -12.2170    3.5550    1.2750 ha        1 L2G      0.133000
     83 H341       10.0110    4.0020   -1.9950 hc        1 L2G      0.065700
     84 H342       11.1570    5.1260   -1.1450 hc        1 L2G      0.065700
     85 H343       11.6160    3.3840   -1.3910 hc        1 L2G      0.065700
@<TRIPOS>BOND
     1    1    2 1   
     2    1    3 1   
     3    1    4 2   
     4    2    5 ar  
     5    2    6 ar  
     6    3    7 ar  
     7    3    8 ar  
     8    4    9 1   
     9    5    9 1   
    10    5   10 ar  
    11    6   11 ar  
    12    6   12 1   
    13    7   13 ar  
    14    7   47 1   
    15    8   14 ar  
    16    8   48 1   
    17    9   15 1   
    18   10   16 ar  
    19   11   16 ar  
    20   12   49 1   
    21   12   50 1   
    22   13   17 ar  
    23   13   18 1   
    24   14   17 ar  
    25   14   51 1   
    26   15   19 1   
    27   15   20 1   
    28   15   52 1   
    29   16   53 1   
    30   17   21 1   
    31   18   22 1   
    32   19   23 1   
    33   19   54 1   
    34   19   55 1   
    35   20   24 1   
    36   20   56 1   
    37   20   57 1   
    38   21   25 1   
    39   21   58 1   
    40   22   59 1   
    41   22   60 1   
    42   22   61 1   
    43   23   26 1   
    44   23   62 1   
    45   23   63 1   
    46   24   26 1   
    47   24   64 1   
    48   24   65 1   
    49   25   27 1   
    50   25   28 2   
    51   26   29 1   
    52   26   66 1   
    53   27   30 1   
    54   27   31 2   
    55   29   32 1   
    56   29   33 1   
    57   30   34 1   
    58   30   35 1   
    59   31   36 1   
    60   31   67 1   
    61   32   37 1   
    62   32   68 1   
    63   32   69 1   
    64   33   38 1   
    65   33   70 1   
    66   33   71 1   
    67   34   36 ar  
    68   34   39 ar  
    69   35   72 1   
    70   35   73 1   
    71   35   74 1   
    72   36   40 ar  
    73   37   41 1   
    74   37   75 1   
    75   37   76 1   
    76   38   41 1   
    77   38   77 1   
    78   38   78 1   
    79   39   42 ar  
    80   39   79 1   
    81   40   43 ar  
    82   40   80 1   
    83   41   44 1   
    84   42   43 ar  
    85   42   81 1   
    86   43   82 1   
    87   44   45 1   
    88   44   46 2   
    89   45   83 1   
    90   45   84 1   
    91   45   85 1   
@<TRIPOS>SUBSTRUCTURE
     1 L2G         1 TEMP              0 ****  ****    0 ROOT
