@<TRIPOS>MOLECULE
L2G
   85    78     1     0     0
SMALL
bcc


@<TRIPOS>ATOM
      1 C1          1.6730    0.0610   -0.8500 c2        1 L2G     -0.032000
      2 C2          3.0760    0.0980   -0.7820 c1        1 L2G     -0.284000
      3 C3          0.7490    0.1820   -1.9530 c1        1 L2G     -0.014000
      4 N1          1.1980   -0.0230    0.4090 n2        1 L2G     -0.042000
      5 C4          3.4340    0.0360    0.5160 c1        1 L2G      0.084000
      6 C5          4.0550    0.1350   -1.7700 c1        1 L2G      0.245000
      7 C6          0.3800   -1.0780   -2.4500 c1        1 L2G     -0.149000
      8 C7          0.1930    1.3360   -2.4970 c1        1 L2G     -0.132000
      9 N2          2.2750   -0.0410    1.2730 n1        1 L2G     -0.135000
     10 N3          4.7650    0.0080    0.8600 n1        1 L2G     -0.219000
     11 N4          5.3620    0.1080   -1.4300 n1        1 L2G     -0.276000
     12 N5          4.2810    0.2590   -3.1890 n3        1 L2G     -0.359000
     13 C8         -0.5520   -1.1750   -3.4970 c1        1 L2G      0.028000
     14 C9         -0.7330    1.2420   -3.5360 c1        1 L2G     -0.135000
     15 C10         2.4990    0.1010    2.6910 c2        1 L2G      0.058000
     16 C11         5.7270    0.0440   -0.1200 c1        1 L2G      0.034000
     17 C12        -1.1070   -0.0230   -4.0380 c1        1 L2G      0.065000
     18 O1         -0.8280   -2.4680   -4.1080 os        1 L2G     -0.231000
     19 C13         1.6090    1.2180    3.2230 c3        1 L2G     -0.170500
     20 C14         2.2190   -1.2310    3.3700 c3        1 L2G     -0.170500
     21 N6         -2.0440   -0.1190   -5.1410 n         1 L2G     -0.304000
     22 C15        -1.5200   -3.3870   -3.2510 c3        1 L2G     -0.072000
     23 C16         1.6440    1.3180    4.7270 c3        1 L2G     -0.158500
     24 C17         2.2500   -1.1260    4.8840 c3        1 L2G     -0.158500
     25 C18        -1.7750    0.5680   -6.3710 c2        1 L2G      0.377000
     26 C19         1.3670   -0.0080    5.4050 c3        1 L2G     -0.009000
     27 C20        -2.8300    0.5110   -7.5590 c2        1 L2G     -0.089000
     28 O2         -0.7610    1.2310   -6.4900 o         1 L2G     -0.366000
     29 N7          1.6020    0.1330    6.8180 n3        1 L2G     -0.261000
     30 N8         -3.3380    1.5580   -8.3140 n2        1 L2G     -0.128000
     31 C21        -3.4190   -0.6720   -8.0080 c1        1 L2G     -0.150000
     32 C22         1.7610   -1.1700    7.4010 c3        1 L2G     -0.089000
     33 C23         0.5150    0.8810    7.4220 c3        1 L2G     -0.089000
     34 C24        -4.2530    1.0240   -9.2460 c1        1 L2G      0.018000
     35 C25        -2.9590    2.9240   -8.2450 c2        1 L2G     -0.071000
     36 C26        -4.3040   -0.3460   -9.0590 c1        1 L2G     -0.101000
     37 C27         1.8590   -1.1140    8.9180 c3        1 L2G     -0.033500
     38 C28         0.6170    0.9250    8.9360 c3        1 L2G     -0.033500
     39 C29        -5.0410    1.6260  -10.2350 c1        1 L2G     -0.144000
     40 C30        -5.1300   -1.1190   -9.8450 c1        1 L2G     -0.073000
     41 N9          0.7870   -0.3610    9.5000 n         1 L2G     -0.321000
     42 C31        -5.8680    0.8540  -11.0230 c1        1 L2G     -0.131000
     43 C32        -5.9190   -0.5190  -10.8350 c1        1 L2G     -0.131000
     44 C33        -0.0530   -0.8780   10.5690 c2        1 L2G      0.297000
     45 C34        -1.1460    0.0230   11.2000 c3        1 L2G     -0.238000
     46 O3          0.1460   -2.0150   11.0180 o         1 L2G     -0.368000
     47 H6          0.7690   -1.8780   -2.0710 ha        1 L2G      0.153000
     48 H7          0.4540    2.2200   -2.1460 ha        1 L2G      0.150000
     49 H5N1        3.5670    0.4080   -3.7610 hn        1 L2G      0.242000
     50 H5N2        5.1700    0.1600   -3.5450 hn        1 L2G      0.242000
     51 H9         -1.1330    2.0740   -3.9270 ha        1 L2G      0.177000
     52 H10         3.4360    0.3450    2.8390 ha        1 L2G      0.132000
     53 H11         6.6790    0.0260    0.1230 ha        1 L2G      0.189000
     54 H131        1.9080    2.0770    2.8420 hc        1 L2G      0.098250
     55 H132        0.7040    1.0520    2.9450 hc        1 L2G      0.098250
     56 H141        2.8950   -1.8760    3.0860 hc        1 L2G      0.098250
     57 H142        1.3140   -1.5610    3.0850 hc        1 L2G      0.098250
     58 HA         -2.7180   -0.7120   -5.1010 hn        1 L2G      0.252000
     59 H151       -0.9180   -3.6670   -2.5070 h1        1 L2G      0.087333
     60 H152       -2.3100   -2.9580   -2.8830 h1        1 L2G      0.087333
     61 H153       -1.7880   -4.1770   -3.7700 h1        1 L2G      0.087333
     62 H161        2.5290    1.6370    5.0040 hc        1 L2G      0.092000
     63 H162        0.9790    1.9550    5.0090 hc        1 L2G      0.092000
     64 H171        1.9360   -1.9870    5.2730 hc        1 L2G      0.092000
     65 H172        3.1990   -0.9600    5.1820 hc        1 L2G      0.092000
     66 H19         0.4720   -0.2370    5.2670 h1        1 L2G      0.067000
     67 H21        -3.2020   -1.5830   -7.6930 DU        1 L2G      0.158000
     68 H221        0.9400   -1.7680    7.1340 h1        1 L2G      0.078250
     69 H222        2.6190   -1.6000    7.0270 h1        1 L2G      0.078250
     70 H231       -0.3020    0.4820    7.1820 h1        1 L2G      0.078250
     71 H232        0.5340    1.7430    7.0980 h1        1 L2G      0.078250
     72 H251       -3.4020    3.4360   -8.9970 ha        1 L2G      0.100000
     73 H252       -2.0250    2.9950   -8.3260 ha        1 L2G      0.100000
     74 H253       -3.2350    3.2900   -7.4010 ha        1 L2G      0.100000
     75 H271        2.7340   -0.6870    9.1720 h1        1 L2G      0.103750
     76 H272        1.8340   -1.9870    9.2580 h1        1 L2G      0.103750
     77 H281        1.3880    1.4980    9.1940 h1        1 L2G      0.103750
     78 H282       -0.2390    1.3370    9.3100 h1        1 L2G      0.103750
     79 H29        -5.0030    2.5900  -10.3660 ha        1 L2G      0.136000
     80 H30        -5.1630   -2.0360   -9.7190 ha        1 L2G      0.135000
     81 H31        -6.4250    1.2800  -11.7220 ha        1 L2G      0.132000
     82 H32        -6.5230   -1.0850  -11.4120 ha        1 L2G      0.132000
     83 H341       -1.6270   -0.4880   11.9110 hc        1 L2G      0.105000
     84 H342       -0.7280    0.8160   11.5940 hc        1 L2G      0.105000
     85 H343       -1.7800    0.2970   10.5150 hc        1 L2G      0.105000
@<TRIPOS>BOND
     1    1    2 1   
     2    1    3 1   
     3    1    4 1   
     4    2    6 1   
     5    3    8 1   
     6    4    9 1   
     7    5   10 1   
     8    6   12 1   
     9    7   13 1   
    10    7   47 1   
    11    8   48 1   
    12   11   16 1   
    13   12   49 1   
    14   12   50 1   
    15   13   18 1   
    16   14   17 1   
    17   14   51 1   
    18   15   19 1   
    19   15   20 1   
    20   15   52 1   
    21   16   53 1   
    22   17   21 1   
    23   18   22 1   
    24   19   23 1   
    25   19   54 1   
    26   19   55 1   
    27   20   24 1   
    28   20   56 1   
    29   20   57 1   
    30   21   25 1   
    31   21   58 1   
    32   22   59 1   
    33   22   60 1   
    34   22   61 1   
    35   23   26 1   
    36   23   62 1   
    37   23   63 1   
    38   24   26 1   
    39   24   64 1   
    40   24   65 1   
    41   25   27 1   
    42   25   28 1   
    43   26   29 1   
    44   26   66 1   
    45   27   30 1   
    46   27   31 1   
    47   29   32 1   
    48   29   33 1   
    49   30   34 1   
    50   31   36 1   
    51   32   37 1   
    52   32   68 1   
    53   32   69 1   
    54   33   38 1   
    55   33   70 1   
    56   33   71 1   
    57   34   39 1   
    58   35   72 1   
    59   35   73 1   
    60   35   74 1   
    61   36   40 1   
    62   37   41 1   
    63   37   75 1   
    64   37   76 1   
    65   38   41 1   
    66   38   77 1   
    67   38   78 1   
    68   39   79 1   
    69   40   80 1   
    70   41   44 1   
    71   42   43 1   
    72   42   81 1   
    73   43   82 1   
    74   44   45 1   
    75   44   46 1   
    76   45   83 1   
    77   45   84 1   
    78   45   85 1   
@<TRIPOS>SUBSTRUCTURE
     1 L2G         1 TEMP              0 ****  ****    0 ROOT
