@<TRIPOS>MOLECULE
L2G
   87    93     1     0     0
SMALL
bcc


@<TRIPOS>ATOM
      1 C1          0.5260    0.3400   -0.1800 cc        1 L2G      0.340500
      2 C2          1.9650    0.3070   -0.0500 ca        1 L2G     -0.412500
      3 C3         -0.2910    0.4100   -1.3860 ca        1 L2G     -0.022900
      4 N1         -0.0390    0.2570    1.0630 nd        1 L2G     -0.410100
      5 C4          2.1880    0.1800    1.4070 ca        1 L2G      0.453800
      6 C5          3.1440    0.3810   -0.8140 ca        1 L2G      0.547200
      7 C6         -1.3160    1.3560   -1.4650 ca        1 L2G     -0.166000
      8 C7         -0.1120   -0.5160   -2.4250 ca        1 L2G     -0.199000
      9 N2          0.9060    0.1630    1.9900 na        1 L2G      0.061200
     10 N3          3.4260    0.1120    1.9740 nb        1 L2G     -0.604000
     11 N4          4.3760    0.3130   -0.2710 nb        1 L2G     -0.680000
     12 N5          3.0590    0.5550   -2.2820 n4        1 L2G     -0.832300
     13 C8         -2.1880    1.3590   -2.5640 ca        1 L2G      0.188100
     14 C9         -0.9710   -0.5250   -3.5180 ca        1 L2G     -0.035000
     15 C10         0.6380    0.0020    3.4430 c3        1 L2G      0.063000
     16 C11         4.4460    0.1780    1.0950 ca        1 L2G      0.690900
     17 C12        -2.0220    0.4050   -3.6050 ca        1 L2G     -0.072400
     18 O1         -3.2190    2.2470   -2.7250 os        1 L2G     -0.353900
     19 C13        -0.0990    1.2140    4.0260 c3        1 L2G     -0.090900
     20 C14        -0.1610   -1.2730    3.7410 c3        1 L2G     -0.090900
     21 N6         -2.9590    0.3690   -4.7240 n4        1 L2G     -0.540200
     22 C15        -3.5080    3.1300   -1.6330 c3        1 L2G      0.114700
     23 C16        -0.2490    1.0420    5.5250 c3        1 L2G     -0.085400
     24 C17        -0.3080   -1.4320    5.2400 c3        1 L2G     -0.085400
     25 C18        -3.6310   -0.9900   -4.9730 c         1 L2G      0.591300
     26 C19        -1.0500   -0.2280    5.8540 c3        1 L2G      0.193500
     27 C20        -4.4710   -1.0510   -6.1360 cc        1 L2G     -0.283300
     28 O2         -3.3500   -1.8880   -4.1900 o         1 L2G     -0.440100
     29 N7         -1.2770   -0.4560    7.2850 n3        1 L2G     -0.734600
     30 N8         -4.9210    0.0580   -6.9310 na        1 L2G     -0.058400
     31 C21        -4.8040   -2.2750   -6.7500 cd        1 L2G      0.064800
     32 C22        -2.4590   -1.2820    7.5090 c3        1 L2G      0.144300
     33 C23        -1.2590    0.7400    8.1100 c3        1 L2G      0.144300
     34 C24        -5.6270   -0.5270   -8.0180 ca        1 L2G      0.003800
     35 C25        -5.4520    1.2450   -6.3120 c3        1 L2G     -0.023400
     36 C26        -5.5320   -1.9670   -7.9440 ca        1 L2G     -0.153800
     37 C27        -2.7360   -1.5570    9.0030 c3        1 L2G      0.083000
     38 C28        -1.5430    0.4470    9.6050 c3        1 L2G      0.083000
     39 C29        -6.2910    0.0900   -9.0870 ca        1 L2G     -0.154000
     40 C30        -6.0980   -2.7610   -8.9500 ca        1 L2G     -0.036000
     41 N9         -2.7130   -0.3650    9.8210 n         1 L2G     -0.463800
     42 C31        -6.8440   -0.7300  -10.0630 ca        1 L2G     -0.039000
     43 C32        -6.7510   -2.1330   -9.9990 ca        1 L2G     -0.140000
     44 C33        -3.9120    0.1630   10.3150 c         1 L2G      0.652100
     45 C34        -3.8790    1.4300   11.1300 c3        1 L2G     -0.170100
     46 O3         -4.9800   -0.4530   10.1360 o         1 L2G     -0.593100
     47 H6         -1.4620    2.0790   -0.6450 ha        1 L2G      0.184000
     48 H7          0.6440   -1.3130   -2.3340 ha        1 L2G      0.157000
     49 H5N1        3.6650   -0.1300   -2.7560 hn        1 L2G      0.476467
     50 H5N2        2.0830    0.4250   -2.5760 hn        1 L2G      0.476467
     51 H9         -0.8500   -1.3010   -4.2950 ha        1 L2G      0.172000
     52 H10         1.6570   -0.0790    3.9280 h1        1 L2G      0.107700
     53 H11         5.4800    0.1200    1.5140 h5        1 L2G      0.113100
     54 H131       -1.1100    1.3140    3.5520 hc        1 L2G      0.060700
     55 H132        0.4760    2.1540    3.8210 hc        1 L2G      0.060700
     56 H141       -1.1740   -1.2150    3.2620 hc        1 L2G      0.060700
     57 H142        0.3680   -2.1700    3.3250 hc        1 L2G      0.060700
     58 HA         -3.7040    1.0630   -4.5510 hn        1 L2G      0.470300
     59 H151       -3.7400    2.5450   -0.7110 h1        1 L2G      0.075700
     60 H152       -4.4130    3.6830   -1.9980 h1        1 L2G      0.075700
     61 H153       -2.6530    3.8290   -1.4700 h1        1 L2G      0.075700
     62 H161       -0.7770    1.9490    5.9220 hc        1 L2G      0.068450
     63 H162        0.7620    0.9930    6.0080 hc        1 L2G      0.068450
     64 H171       -0.8750   -2.3790    5.4390 hc        1 L2G      0.068450
     65 H172        0.7000   -1.5390    5.7190 hc        1 L2G      0.068450
     66 H19        -2.0450   -0.1330    5.3140 h1        1 L2G      0.026700
     67 H21        -4.5290   -3.2690   -6.3890 ha        1 L2G      0.190000
     68 H221       -2.2880   -2.2760    7.0090 h1        1 L2G      0.037200
     69 H222       -3.3820   -0.8190    7.0500 h1        1 L2G      0.037200
     70 H231       -0.2280    1.1880    8.0560 h1        1 L2G      0.037200
     71 H232       -2.0000    1.5120    7.7490 h1        1 L2G      0.037200
     72 H251       -6.2950    1.6630   -6.9290 h1        1 L2G      0.062367
     73 H252       -5.8460    1.0480   -5.2790 h1        1 L2G      0.062367
     74 H253       -4.6410    2.0230   -6.2730 h1        1 L2G      0.062367
     75 H271       -3.7400   -2.0610    9.0860 h1        1 L2G      0.071700
     76 H272       -1.9460   -2.2560    9.4000 h1        1 L2G      0.071700
     77 H281       -0.6590   -0.1060   10.0360 h1        1 L2G      0.071700
     78 H282       -1.6320    1.4350   10.1350 h1        1 L2G      0.071700
     79 H29        -6.3700    1.1840   -9.1600 ha        1 L2G      0.157000
     80 H30        -6.0200   -3.8580   -8.9020 ha        1 L2G      0.163000
     81 H31        -7.3740   -0.2690  -10.9160 ha        1 L2G      0.165000
     82 H32        -7.2080   -2.7370  -10.8000 ha        1 L2G      0.168000
     83 H341       -3.1060    1.3710   11.9340 hc        1 L2G      0.070367
     84 H342       -4.8820    1.5700   11.6050 hc        1 L2G      0.070367
     85 H343       -3.6660    2.3070   10.4740 hc        1 L2G      0.070367
     86 H53         3.3780    1.5010   -2.5310 hn        1 L2G      0.476467
     87 H62        -2.4650    0.6380   -5.5840 hn        1 L2G      0.470300
@<TRIPOS>BOND
     1    1    2 1   
     2    1    3 1   
     3    1    4 2   
     4    2    5 ar  
     5    2    6 ar  
     6    3    7 ar  
     7    3    8 ar  
     8    4    9 1   
     9    5    9 1   
    10    5   10 ar  
    11    6   11 ar  
    12    6   12 1   
    13    7   13 ar  
    14    7   47 1   
    15    8   14 ar  
    16    8   48 1   
    17    9   15 1   
    18   10   16 ar  
    19   11   16 ar  
    20   12   49 1   
    21   12   50 1   
    22   12   86 1   
    23   13   17 ar  
    24   13   18 1   
    25   14   17 ar  
    26   14   51 1   
    27   15   19 1   
    28   15   20 1   
    29   15   52 1   
    30   16   53 1   
    31   17   21 1   
    32   18   22 1   
    33   19   23 1   
    34   19   54 1   
    35   19   55 1   
    36   20   24 1   
    37   20   56 1   
    38   20   57 1   
    39   21   25 1   
    40   21   58 1   
    41   21   87 1   
    42   22   59 1   
    43   22   60 1   
    44   22   61 1   
    45   23   26 1   
    46   23   62 1   
    47   23   63 1   
    48   24   26 1   
    49   24   64 1   
    50   24   65 1   
    51   25   27 1   
    52   25   28 2   
    53   26   29 1   
    54   26   66 1   
    55   27   30 1   
    56   27   31 2   
    57   29   32 1   
    58   29   33 1   
    59   30   34 1   
    60   30   35 1   
    61   31   36 1   
    62   31   67 1   
    63   32   37 1   
    64   32   68 1   
    65   32   69 1   
    66   33   38 1   
    67   33   70 1   
    68   33   71 1   
    69   34   36 ar  
    70   34   39 ar  
    71   35   72 1   
    72   35   73 1   
    73   35   74 1   
    74   36   40 ar  
    75   37   41 1   
    76   37   75 1   
    77   37   76 1   
    78   38   41 1   
    79   38   77 1   
    80   38   78 1   
    81   39   42 ar  
    82   39   79 1   
    83   40   43 ar  
    84   40   80 1   
    85   41   44 1   
    86   42   43 ar  
    87   42   81 1   
    88   43   82 1   
    89   44   45 1   
    90   44   46 2   
    91   45   83 1   
    92   45   84 1   
    93   45   85 1   
@<TRIPOS>SUBSTRUCTURE
     1 L2G         1 TEMP              0 ****  ****    0 ROOT
