@<TRIPOS>MOLECULE
L2H
   88    92     1     0     0
SMALL
bcc


@<TRIPOS>ATOM
      1 C32        96.7170  109.4340  -18.5710 c2        1 L2H     -0.054000
      2 C1       -513.0950 -607.1390   84.7410 c3        1 L2H     -0.140000
      3 C29        98.7320  108.6080  -18.6010 c2        1 L2H     -0.105000
      4 C28       100.1650  108.5730  -18.4580 c2        1 L2H      0.099000
      5 C2       -512.7900 -605.9220   85.6070 c3        1 L2H     -0.185000
      6 C5         95.4530  110.2250  -18.4380 c3        1 L2H     -0.029000
      7 C30        97.8680  107.5880  -19.0360 c2        1 L2H      0.092000
      8 C25       102.3170  108.9010  -18.2760 c2        1 L2H     -0.182000
      9 C24       103.5470  109.6340  -18.2770 c2        1 L2H      0.212000
     10 C20       108.2830  118.5680  -18.6070 c3        1 L2H     -0.141000
     11 C26       102.1030  107.5360  -18.0220 c2        1 L2H      0.124000
     12 C19       107.8880  117.1060  -18.7970 c3        1 L2H     -0.171000
     13 C22       105.3050  111.0140  -18.4620 c3        1 L2H     -0.244000
     14 C18       106.4990  116.8730  -18.2190 c3        1 L2H     -0.199000
     15 C23       105.7230  109.7790  -17.5610 c1        1 L2H      0.210000
     16 C21       105.5810  112.3390  -17.8090 c2        1 L2H      0.306000
     17 C4         94.7170  109.7930  -17.2850 c1        1 L2H      0.036000
     18 C6         95.9250  112.1870  -20.0110 c2        1 L2H      0.352000
     19 C7         96.7040  113.3920  -20.2170 c2        1 L2H     -0.263000
     20 C8         96.9050  114.0480  -21.4410 c2        1 L2H      0.091000
     21 C9         97.9570  115.1330  -19.7970 c2        1 L2H      0.072000
     22 C10        98.7570  116.2720  -19.2880 c3        1 L2H     -0.140000
     23 C31        98.0230  106.1970  -19.4560 c3        1 L2H     -0.190000
     24 C11        98.2090  116.7980  -17.9160 c1        1 L2H      0.185000
     25 C27       102.9490  106.3880  -17.6990 c3        1 L2H     -0.199000
     26 C12       100.4300  116.3040  -17.8080 c2        1 L2H      0.039000
     27 C13       101.6640  116.3200  -16.9840 c3        1 L2H     -0.132000
     28 C16       105.0030  114.8290  -17.7030 c3        1 L2H     -0.031000
     29 C14       102.5870  117.5300  -17.3310 c1        1 L2H      0.202000
     30 C15       103.7110  115.5520  -17.4800 c2        1 L2H     -0.052000
     31 N9       -514.1610 -608.0080   85.3230 n4        1 L2H     -0.067000
     32 N10       109.6540  118.8730  -19.1050 n4        1 L2H     -0.070000
     33 N8         97.9810  109.7630  -18.3070 n2        1 L2H     -0.088000
     34 N5        104.7480  113.4890  -18.3690 n4        1 L2H     -0.110000
     35 N7        101.0790  109.5340  -18.5520 n2        1 L2H     -0.070000
     36 N3        100.1850  115.9620  -19.0340 n2        1 L2H     -0.131000
     37 N6        103.8940  110.7800  -18.8000 n2        1 L2H     -0.236000
     38 N2         97.3840  114.1000  -19.1950 n2        1 L2H     -0.113000
     39 N1         95.7730  111.7290  -18.5850 n4        1 L2H     -0.143000
     40 N4        102.5290  115.1290  -17.1540 n2        1 L2H     -0.102000
     41 O6        104.6690  109.0090  -17.5400 os        1 L2H     -0.128000
     42 O2         97.6950  115.1450  -21.1950 os        1 L2H     -0.079000
     43 O7        100.7390  107.3100  -18.1420 os        1 L2H     -0.102000
     44 O8         96.5770  108.1130  -19.0310 os        1 L2H     -0.060000
     45 O3         99.2390  116.8080  -17.1070 os        1 L2H     -0.114000
     46 O4        103.7700  117.0150  -17.5910 os        1 L2H     -0.158000
     47 O1         95.3660  111.5240  -20.8770 o         1 L2H     -0.189000
     48 O5        106.3850  112.6060  -16.9370 o         1 L2H     -0.149000
     49 HB2      -512.0350 -604.7420   83.9410 hc        1 L2H      0.105333
     50 HB1      -513.4430 -606.8080   83.7190 hx        1 L2H      0.154000
     51 HC2      -512.1660 -607.7690   84.6200 hx        1 L2H      0.154000
     52 HC1      -513.7120 -605.2940   85.7360 hc        1 L2H      0.109000
     53 HF         94.2400  110.4170  -16.5290 ha        1 L2H      0.147000
     54 HD2      -512.4480 -606.2440   86.6260 hc        1 L2H      0.109000
     55 HD1      -510.7700 -605.6930   84.8310 hc        1 L2H      0.105333
     56 HB2'      110.6460  121.6010  -18.8020 ha        1 L2H      0.004000
     57 HB1'      110.9360  122.2150  -18.7580 ha        1 L2H      0.004000
     58 HC2'      107.5620  119.2390  -19.1610 hx        1 L2H      0.157500
     59 HC1'      108.2520  118.8390  -17.5100 hx        1 L2H      0.157500
     60 HD1'      108.6210  116.4310  -18.2770 hc        1 L2H      0.128500
     61 HD2'      107.8890  116.8320  -19.8870 hc        1 L2H      0.128500
     62 HL        105.9420  110.9530  -19.4010 h1        1 L2H      0.208000
     63 HE1      -511.4830 -604.2070   85.5820 hc        1 L2H      0.105333
     64 HE2        94.7670  109.9390  -19.3260 hx        1 L2H      0.251000
     65 HH         96.5870  113.8910  -22.4770 h4        1 L2H      0.257000
     66 HE1'      105.7440  117.5550  -18.7380 hc        1 L2H      0.166000
     67 HE2'      106.4710  117.1680  -17.1300 hc        1 L2H      0.166000
     68 HN3        99.0890  105.8800  -19.3220 hc        1 L2H      0.139000
     69 HN2        97.7330  106.0810  -20.5330 hc        1 L2H      0.139000
     70 HN1        97.3610  105.5300  -18.8440 hc        1 L2H      0.139000
     71 HI         98.7070  117.1170  -20.0470 h1        1 L2H      0.211000
     72 HM1       102.4930  105.7860  -16.8700 hc        1 L2H      0.141333
     73 HM3       103.9660  106.7360  -17.3850 hc        1 L2H      0.141333
     74 HM2       103.0500  105.7220  -18.5960 hc        1 L2H      0.141333
     75 HF'       105.4560  114.6070  -16.6670 hx        1 L2H      0.229000
     76 HJ        101.3620  116.3940  -15.8880 h1        1 L2H      0.230000
     77 HA1      -514.3330 -608.8120   84.7110 hn        1 L2H      0.257000
     78 HA2      -515.0310 -607.4760   85.4300 hn        1 L2H      0.257000
     79 HA3'      110.3520  118.3060  -18.6090 hn        1 L2H      0.269000
     80 HA2'      109.8700  119.8710  -18.9520 hn        1 L2H      0.269000
     81 HK        103.7530  113.2280  -18.2960 hn        1 L2H      0.284500
     82 HG         96.6330  111.9540  -18.0650 hn        1 L2H      0.266000
     83 C3       -511.7090 -605.1010   84.9480 c3        1 L2H     -0.221000
     84 C17       106.0360  115.5360  -18.4740 c1        1 L2H     -0.040000
     85 H93      -513.8730 -608.3470   86.2470 hn        1 L2H      0.257000
     86 H103      109.7250  118.6700  -20.1090 hn        1 L2H      0.269000
     87 H52       104.9860  113.5760  -19.3700 hn        1 L2H      0.284500
     88 H12        95.0050  112.2670  -18.1660 hn        1 L2H      0.266000
@<TRIPOS>BOND
     1    1    6 1   
     2    1   33 1   
     3    1   44 1   
     4    2    5 1   
     5    2   31 1   
     6    2   50 1   
     7    2   51 1   
     8    3    4 1   
     9    3    7 1   
    10    3   33 1   
    11    4   35 1   
    12    4   43 1   
    13    5   52 1   
    14    5   54 1   
    15    5   83 1   
    16    6   17 1   
    17    6   39 1   
    18    6   64 1   
    19    7   23 1   
    20    7   44 1   
    21    8    9 1   
    22    8   11 1   
    23    8   35 1   
    24    9   37 1   
    25    9   41 1   
    26   10   12 1   
    27   10   32 1   
    28   10   58 1   
    29   10   59 1   
    30   11   25 1   
    31   11   43 1   
    32   12   14 1   
    33   12   60 1   
    34   12   61 1   
    35   13   15 1   
    36   13   16 1   
    37   13   37 1   
    38   13   62 1   
    39   14   66 1   
    40   14   67 1   
    41   14   84 1   
    42   15   41 1   
    43   16   34 1   
    44   16   48 1   
    45   17   53 1   
    46   18   19 1   
    47   18   39 1   
    48   18   47 1   
    49   19   20 1   
    50   19   38 1   
    51   20   42 1   
    52   20   65 1   
    53   21   22 1   
    54   21   38 1   
    55   21   42 1   
    56   22   24 1   
    57   22   36 1   
    58   22   71 1   
    59   23   68 1   
    60   23   69 1   
    61   23   70 1   
    62   24   45 1   
    63   25   72 1   
    64   25   73 1   
    65   25   74 1   
    66   26   27 1   
    67   26   36 1   
    68   26   45 1   
    69   27   29 1   
    70   27   40 1   
    71   27   76 1   
    72   28   30 1   
    73   28   34 1   
    74   28   75 1   
    75   28   84 1   
    76   29   46 1   
    77   30   40 1   
    78   30   46 1   
    79   31   77 1   
    80   31   78 1   
    81   31   85 1   
    82   32   79 1   
    83   32   80 1   
    84   32   86 1   
    85   34   81 1   
    86   34   87 1   
    87   39   82 1   
    88   39   88 1   
    89   49   83 1   
    90   55   83 1   
    91   56   57 1   
    92   63   83 1   
@<TRIPOS>SUBSTRUCTURE
     1 L2H         1 TEMP              0 ****  ****    0 ROOT
