@<TRIPOS>MOLECULE
L2O
   25    24     1     0     0
SMALL
bcc


@<TRIPOS>ATOM
      1 N          -0.0420    0.0270    1.6250 n3        1 L2O     -0.903800
      2 C1          0.1200   -0.1520    0.1890 c3        1 L2O      0.144500
      3 C2          1.4300    0.4400   -0.3430 c3        1 L2O     -0.063400
      4 C3          2.6800   -0.2090    0.2310 c3        1 L2O     -0.069700
      5 C4          2.8980   -1.5930   -0.3450 c3        1 L2O     -0.085100
      6 C5          3.8900    0.6620   -0.0450 c3        1 L2O     -0.085100
      7 C6         -1.0580    0.4360   -0.6330 c3        1 L2O     -0.022900
      8 O1         -1.1550    1.8310   -0.3950 oh        1 L2O     -0.641800
      9 C          -2.3610   -0.2920   -0.2170 c         1 L2O      0.889600
     10 O          -2.9710    0.2050    0.7780 o         1 L2O     -0.835300
     11 OXT        -2.7200   -1.3140   -0.8560 o         1 L2O     -0.835300
     12 H          -0.0690    1.0120    1.8240 hn        1 L2O      0.348800
     13 H2         -0.9380   -0.3520    1.8880 hn        1 L2O      0.348800
     14 H3          0.1220   -1.2660   -0.0040 h1        1 L2O      0.059700
     15 H4          1.4340    0.3230   -1.4580 hc        1 L2O      0.037200
     16 H5          1.4440    1.5410   -0.1250 hc        1 L2O      0.037200
     17 H6          2.5610   -0.3040    1.3470 hc        1 L2O      0.065700
     18 H7          2.0260   -2.2510   -0.1130 hc        1 L2O      0.023533
     19 H8          3.0180   -1.5440   -1.4540 hc        1 L2O      0.023533
     20 H9          3.8170   -2.0550    0.0890 hc        1 L2O      0.023533
     21 H10         3.7660    1.6630    0.4350 hc        1 L2O      0.023533
     22 H11         4.8150    0.1860    0.3600 hc        1 L2O      0.023533
     23 H12         4.0220    0.8130   -1.1440 hc        1 L2O      0.023533
     24 H14        -1.8560    1.9500    0.2660 ho        1 L2O      0.418000
     25 H15        -0.8620    0.3180   -1.7300 h1        1 L2O      0.051700
@<TRIPOS>BOND
     1    1    2 1   
     2    1   12 1   
     3    1   13 1   
     4    2    3 1   
     5    2    7 1   
     6    2   14 1   
     7    3    4 1   
     8    3   15 1   
     9    3   16 1   
    10    4    5 1   
    11    4    6 1   
    12    4   17 1   
    13    5   18 1   
    14    5   19 1   
    15    5   20 1   
    16    6   21 1   
    17    6   22 1   
    18    6   23 1   
    19    7    8 1   
    20    7    9 1   
    21    7   25 1   
    22    8   24 1   
    23    9   10 1   
    24    9   11 1   
@<TRIPOS>SUBSTRUCTURE
     1 L2O         1 TEMP              0 ****  ****    0 ROOT
