@<TRIPOS>MOLECULE
L2P
  134   133     1     0     0
SMALL
bcc


@<TRIPOS>ATOM
      1 C1          4.9560   19.7480   -3.4400 c3        1 L2P      0.106400
      2 O1          5.5460   19.3530   -2.2080 os        1 L2P     -0.414600
      3 C2          3.6210   19.0170   -3.5870 c3        1 L2P      0.102100
      4 O2          2.6870   19.3930   -2.5760 os        1 L2P     -0.420600
      5 C3          3.8010   17.5030   -3.4250 c3        1 L2P      0.139400
      6 O3          2.5860   16.8210   -3.6490 oh        1 L2P     -0.603800
      7 C11         6.6470   20.1860   -1.8420 c3        1 L2P      0.129400
      8 C12         7.0620   19.7540   -0.4480 c3        1 L2P     -0.080400
      9 C13         8.2280   20.5760    0.0770 c3        1 L2P     -0.061700
     10 C14         8.6770   20.0200    1.4140 c3        1 L2P     -0.093100
     11 C15         7.9310   22.0650    0.1770 c3        1 L2P     -0.077400
     12 C16         6.6570   22.3990    0.9240 c3        1 L2P     -0.082400
     13 C17         6.4780   23.8980    1.0450 c3        1 L2P     -0.076400
     14 C18         5.3160   24.2740    1.9520 c3        1 L2P     -0.064700
     15 C19         3.9990   23.7680    1.3960 c3        1 L2P     -0.093100
     16 C20         5.2270   25.7820    2.1510 c3        1 L2P     -0.074400
     17 C21         6.4520   26.4230    2.7680 c3        1 L2P     -0.077400
     18 C22         6.8500   25.7920    4.0840 c3        1 L2P     -0.073400
     19 C23         7.9030   26.5720    4.8580 c3        1 L2P     -0.064700
     20 C24         7.3200   27.8370    5.4560 c3        1 L2P     -0.091100
     21 C25         9.1330   26.9150    4.0310 c3        1 L2P     -0.073400
     22 C26         9.8450   25.7180    3.4380 c3        1 L2P     -0.078400
     23 C27        10.3970   24.7800    4.4890 c3        1 L2P     -0.073400
     24 C28        11.3250   23.7110    3.9320 c3        1 L2P     -0.066700
     25 C29        10.6850   22.9470    2.7920 c3        1 L2P     -0.090100
     26 C30        12.6570   24.2890    3.5040 c3        1 L2P     -0.090100
     27 C41         2.0610   20.6530   -2.8140 c3        1 L2P      0.130400
     28 C42         1.1350   20.8960   -1.6350 c3        1 L2P     -0.080400
     29 C43         0.4940   22.2730   -1.7120 c3        1 L2P     -0.062700
     30 C44         1.4570   23.3560   -1.2730 c3        1 L2P     -0.093100
     31 C45        -0.7990   22.3220   -0.9090 c3        1 L2P     -0.073400
     32 C46        -0.6150   22.0320    0.5650 c3        1 L2P     -0.081400
     33 C47        -1.9440   22.0530    1.2900 c3        1 L2P     -0.075400
     34 C48        -1.7880   21.8910    2.7960 c3        1 L2P     -0.065700
     35 C49        -1.2870   20.5050    3.1440 c3        1 L2P     -0.090100
     36 C50        -3.1180   22.1720    3.4870 c3        1 L2P     -0.076400
     37 C51        -2.9630   22.5460    4.9470 c3        1 L2P     -0.079400
     38 C52        -2.5770   23.9970    5.1540 c3        1 L2P     -0.077400
     39 C53        -3.7620   24.9520    5.0670 c3        1 L2P     -0.066700
     40 C54        -3.2750   26.3450    4.7230 c3        1 L2P     -0.090100
     41 C55        -4.5460   24.9590    6.3730 c3        1 L2P     -0.076400
     42 C56        -5.9560   25.4820    6.1930 c3        1 L2P     -0.079400
     43 C57        -6.7070   25.4740    7.5070 c3        1 L2P     -0.073400
     44 C58        -8.1370   25.9830    7.4090 c3        1 L2P     -0.065700
     45 C59        -8.1920   27.4310    6.9710 c3        1 L2P     -0.089100
     46 C60        -8.9840   25.1180    6.5010 c3        1 L2P     -0.089100
     47 H12         4.7940   20.8590   -3.4580 h1        1 L2P      0.031700
     48 H11         5.6390   19.4620   -4.2850 h1        1 L2P      0.031700
     49 H2          3.1980   19.2500   -4.6040 h1        1 L2P      0.050700
     50 H32         4.1990   17.2800   -2.3990 h1        1 L2P      0.062200
     51 H31         4.5070   17.1190   -4.2070 h1        1 L2P      0.062200
     52 H3O         1.9530   17.1560   -2.9990 ho        1 L2P      0.413000
     53 H112        7.4810   20.0450   -2.5790 h1        1 L2P      0.026200
     54 H111        6.3270   21.2630   -1.8510 h1        1 L2P      0.026200
     55 H122        6.1840   19.8390    0.2440 hc        1 L2P      0.056700
     56 H121        7.3550   18.6720   -0.4750 hc        1 L2P      0.056700
     57 H13         9.0850   20.4620   -0.6500 hc        1 L2P      0.042700
     58 H143        9.5300   20.6200    1.8170 hc        1 L2P      0.036033
     59 H142        7.8430   20.0500    2.1550 hc        1 L2P      0.036033
     60 H141        9.0090   18.9600    1.3010 hc        1 L2P      0.036033
     61 H152        8.7990   22.5630    0.6910 hc        1 L2P      0.038200
     62 H151        7.8700   22.4950   -0.8580 hc        1 L2P      0.038200
     63 H162        6.6860   21.9370    1.9460 hc        1 L2P      0.044200
     64 H161        5.7770   21.9590    0.3830 hc        1 L2P      0.044200
     65 H172        6.3170   24.3410    0.0280 hc        1 L2P      0.039700
     66 H171        7.4220   24.3440    1.4600 hc        1 L2P      0.039700
     67 H18         5.4830   23.7930    2.9580 hc        1 L2P      0.048700
     68 H193        3.8420   24.1390    0.3540 hc        1 L2P      0.033700
     69 H192        3.9840   22.6510    1.3790 hc        1 L2P      0.033700
     70 H191        3.1480   24.1190    2.0270 hc        1 L2P      0.033700
     71 H202        4.3390   25.9970    2.8040 hc        1 L2P      0.037700
     72 H201        5.0340   26.2660    1.1560 hc        1 L2P      0.037700
     73 H212        7.3130   26.3650    2.0490 hc        1 L2P      0.040200
     74 H211        6.2340   27.5130    2.9270 hc        1 L2P      0.040200
     75 H222        5.9390   25.6820    4.7320 hc        1 L2P      0.039700
     76 H221        7.2450   24.7580    3.8900 hc        1 L2P      0.039700
     77 H23         8.2350   25.9120    5.7120 hc        1 L2P      0.044700
     78 H243        8.0740   28.3370    6.1120 hc        1 L2P      0.033033
     79 H242        7.0220   28.5560    4.6560 hc        1 L2P      0.033033
     80 H241        6.4190   27.5980    6.0700 hc        1 L2P      0.033033
     81 H252        9.8500   27.4800    4.6850 hc        1 L2P      0.038700
     82 H251        8.8320   27.6040    3.1970 hc        1 L2P      0.038700
     83 H262        9.1410   25.1540    2.7680 hc        1 L2P      0.040700
     84 H261       10.6850   26.0910    2.7930 hc        1 L2P      0.040700
     85 H272       10.9530   25.3730    5.2630 hc        1 L2P      0.039200
     86 H271        9.5400   24.2730    5.0090 hc        1 L2P      0.039200
     87 H28        11.5220   22.9810    4.7710 hc        1 L2P      0.042700
     88 H293       11.3100   22.0620    2.5210 hc        1 L2P      0.033367
     89 H292        9.6680   22.5890    3.0830 hc        1 L2P      0.033367
     90 H291       10.5850   23.5960    1.8880 hc        1 L2P      0.033367
     91 H303       13.3470   23.4700    3.1870 hc        1 L2P      0.033367
     92 H302       12.5310   24.9910    2.6460 hc        1 L2P      0.033367
     93 H301       13.1300   24.8440    4.3490 hc        1 L2P      0.033367
     94 H412        2.8390   21.4590   -2.8850 h1        1 L2P      0.026200
     95 H411        1.4880   20.6110   -3.7790 h1        1 L2P      0.026200
     96 H422        0.3400   20.1040   -1.6290 hc        1 L2P      0.056700
     97 H421        1.7160   20.7900   -0.6820 hc        1 L2P      0.056700
     98 H43         0.2170   22.4710   -2.7890 hc        1 L2P      0.042700
     99 H443        0.9460   24.3490   -1.2690 hc        1 L2P      0.035033
    100 H442        1.8460   23.1540   -0.2440 hc        1 L2P      0.035033
    101 H441        2.3280   23.4090   -1.9690 hc        1 L2P      0.035033
    102 H452       -1.2570   23.3390   -1.0320 hc        1 L2P      0.039700
    103 H451       -1.5200   21.5780   -1.3420 hc        1 L2P      0.039700
    104 H462        0.0720   22.7960    1.0180 hc        1 L2P      0.043200
    105 H461       -0.1290   21.0290    0.6920 hc        1 L2P      0.043200
    106 H472       -2.6030   21.2360    0.8940 hc        1 L2P      0.038700
    107 H471       -2.4590   23.0280    1.0770 hc        1 L2P      0.038700
    108 H48        -1.0320   22.6450    3.1560 hc        1 L2P      0.047700
    109 H493       -1.9580   19.7230    2.7120 hc        1 L2P      0.033700
    110 H492       -0.2580   20.3490    2.7400 hc        1 L2P      0.033700
    111 H491       -1.2530   20.3660    4.2520 hc        1 L2P      0.033700
    112 H502       -3.7670   21.2600    3.4070 hc        1 L2P      0.040200
    113 H501       -3.6500   23.0030    2.9510 hc        1 L2P      0.040200
    114 H512       -3.9300   22.3380    5.4780 hc        1 L2P      0.040200
    115 H511       -2.1820   21.8930    5.4190 hc        1 L2P      0.040200
    116 H522       -2.0940   24.1100    6.1610 hc        1 L2P      0.040200
    117 H521       -1.8110   24.2880    4.3870 hc        1 L2P      0.040200
    118 H53        -4.4450   24.6010    4.2420 hc        1 L2P      0.048700
    119 H543       -4.1310   27.0610    4.6880 hc        1 L2P      0.032700
    120 H542       -2.5450   26.7050    5.4870 hc        1 L2P      0.032700
    121 H541       -2.7730   26.3470    3.7260 hc        1 L2P      0.032700
    122 H552       -4.0040   25.5860    7.1290 hc        1 L2P      0.039700
    123 H551       -4.5940   23.9150    6.7840 hc        1 L2P      0.039700
    124 H562       -5.9230   26.5260    5.7840 hc        1 L2P      0.041200
    125 H561       -6.4980   24.8480    5.4430 hc        1 L2P      0.041200
    126 H572       -6.7270   24.4260    7.9100 hc        1 L2P      0.037700
    127 H571       -6.1510   26.1060    8.2500 hc        1 L2P      0.037700
    128 H58        -8.5740   25.9220    8.4490 hc        1 L2P      0.041700
    129 H593       -9.2360   27.8190    7.0560 hc        1 L2P      0.033367
    130 H592       -7.5260   28.0580    7.6100 hc        1 L2P      0.033367
    131 H591       -7.8650   27.5370    5.9080 hc        1 L2P      0.033367
    132 H603      -10.0560   25.4250    6.5690 hc        1 L2P      0.033367
    133 H602       -8.6590   25.2200    5.4380 hc        1 L2P      0.033367
    134 H601       -8.9010   24.0450    6.7960 hc        1 L2P      0.033367
@<TRIPOS>BOND
     1    1    2 1   
     2    1    3 1   
     3    1   47 1   
     4    1   48 1   
     5    2    7 1   
     6    3    4 1   
     7    3    5 1   
     8    3   49 1   
     9    4   27 1   
    10    5    6 1   
    11    5   50 1   
    12    5   51 1   
    13    6   52 1   
    14    7    8 1   
    15    7   53 1   
    16    7   54 1   
    17    8    9 1   
    18    8   55 1   
    19    8   56 1   
    20    9   10 1   
    21    9   11 1   
    22    9   57 1   
    23   10   58 1   
    24   10   59 1   
    25   10   60 1   
    26   11   12 1   
    27   11   61 1   
    28   11   62 1   
    29   12   13 1   
    30   12   63 1   
    31   12   64 1   
    32   13   14 1   
    33   13   65 1   
    34   13   66 1   
    35   14   15 1   
    36   14   16 1   
    37   14   67 1   
    38   15   68 1   
    39   15   69 1   
    40   15   70 1   
    41   16   17 1   
    42   16   71 1   
    43   16   72 1   
    44   17   18 1   
    45   17   73 1   
    46   17   74 1   
    47   18   19 1   
    48   18   75 1   
    49   18   76 1   
    50   19   20 1   
    51   19   21 1   
    52   19   77 1   
    53   20   78 1   
    54   20   79 1   
    55   20   80 1   
    56   21   22 1   
    57   21   81 1   
    58   21   82 1   
    59   22   23 1   
    60   22   83 1   
    61   22   84 1   
    62   23   24 1   
    63   23   85 1   
    64   23   86 1   
    65   24   25 1   
    66   24   26 1   
    67   24   87 1   
    68   25   88 1   
    69   25   89 1   
    70   25   90 1   
    71   26   91 1   
    72   26   92 1   
    73   26   93 1   
    74   27   28 1   
    75   27   94 1   
    76   27   95 1   
    77   28   29 1   
    78   28   96 1   
    79   28   97 1   
    80   29   30 1   
    81   29   31 1   
    82   29   98 1   
    83   30   99 1   
    84   30  100 1   
    85   30  101 1   
    86   31   32 1   
    87   31  102 1   
    88   31  103 1   
    89   32   33 1   
    90   32  104 1   
    91   32  105 1   
    92   33   34 1   
    93   33  106 1   
    94   33  107 1   
    95   34   35 1   
    96   34   36 1   
    97   34  108 1   
    98   35  109 1   
    99   35  110 1   
   100   35  111 1   
   101   36   37 1   
   102   36  112 1   
   103   36  113 1   
   104   37   38 1   
   105   37  114 1   
   106   37  115 1   
   107   38   39 1   
   108   38  116 1   
   109   38  117 1   
   110   39   40 1   
   111   39   41 1   
   112   39  118 1   
   113   40  119 1   
   114   40  120 1   
   115   40  121 1   
   116   41   42 1   
   117   41  122 1   
   118   41  123 1   
   119   42   43 1   
   120   42  124 1   
   121   42  125 1   
   122   43   44 1   
   123   43  126 1   
   124   43  127 1   
   125   44   45 1   
   126   44   46 1   
   127   44  128 1   
   128   45  129 1   
   129   45  130 1   
   130   45  131 1   
   131   46  132 1   
   132   46  133 1   
   133   46  134 1   
@<TRIPOS>SUBSTRUCTURE
     1 L2P         1 TEMP              0 ****  ****    0 ROOT
