@<TRIPOS>MOLECULE
L2P
  134   133     1     0     0
SMALL
bcc


@<TRIPOS>ATOM
      1 C1         -0.2060    0.3870   -0.6500 c3        1 L2P      0.106400
      2 O1         -0.8490    1.5490   -0.1400 os        1 L2P     -0.414600
      3 C2          1.2870    0.4940   -0.3400 c3        1 L2P      0.102100
      4 O2          1.5480    0.4920    1.0630 os        1 L2P     -0.420600
      5 C3          1.8640    1.8190   -0.8540 c3        1 L2P      0.139400
      6 O3          3.2590    1.8780   -0.6470 oh        1 L2P     -0.603800
      7 C11        -2.2710    1.4170   -0.1220 c3        1 L2P      0.129400
      8 C12        -2.8040    2.6470    0.5910 c3        1 L2P     -0.080400
      9 C13        -4.3190    2.6310    0.6950 c3        1 L2P     -0.061700
     10 C14        -4.7990    3.9350    1.3010 c3        1 L2P     -0.093100
     11 C15        -4.8670    1.4380    1.4640 c3        1 L2P     -0.077400
     12 C16        -4.2310    1.2250    2.8220 c3        1 L2P     -0.082400
     13 C17        -4.8860    0.0690    3.5500 c3        1 L2P     -0.076400
     14 C18        -4.4090   -0.0570    4.9890 c3        1 L2P     -0.064700
     15 C19        -2.9220   -0.3500    5.0500 c3        1 L2P     -0.093100
     16 C20        -5.1640   -1.1490    5.7350 c3        1 L2P     -0.074400
     17 C21        -6.6630   -0.9540    5.8170 c3        1 L2P     -0.077400
     18 C22        -7.0540    0.3830    6.4080 c3        1 L2P     -0.073400
     19 C23        -8.5310    0.5070    6.7500 c3        1 L2P     -0.064700
     20 C24        -8.8830   -0.3160    7.9730 c3        1 L2P     -0.091100
     21 C25        -9.4540    0.1360    5.6000 c3        1 L2P     -0.073400
     22 C26        -9.2440    0.9460    4.3380 c3        1 L2P     -0.078400
     23 C27        -9.5250    2.4200    4.5320 c3        1 L2P     -0.073400
     24 C28        -9.5640    3.2130    3.2330 c3        1 L2P     -0.066700
     25 C29        -8.3190    2.9930    2.4000 c3        1 L2P     -0.090100
     26 C30       -10.8070    2.9080    2.4250 c3        1 L2P     -0.090100
     27 C41         1.4850   -0.8050    1.6550 c3        1 L2P      0.130400
     28 C42         1.7540   -0.6070    3.1380 c3        1 L2P     -0.080400
     29 C43         1.5970   -1.9110    3.9050 c3        1 L2P     -0.062700
     30 C44         0.1380   -2.2430    4.1380 c3        1 L2P     -0.093100
     31 C45         2.3740   -1.8740    5.2130 c3        1 L2P     -0.073400
     32 C46         1.9230   -0.7830    6.1610 c3        1 L2P     -0.081400
     33 C47         2.7700   -0.7740    7.4170 c3        1 L2P     -0.075400
     34 C48         2.2660    0.2220    8.4520 c3        1 L2P     -0.065700
     35 C49         2.4380    1.6460    7.9640 c3        1 L2P     -0.090100
     36 C50         2.9990    0.0120    9.7720 c3        1 L2P     -0.076400
     37 C51         2.2430    0.5580   10.9660 c3        1 L2P     -0.079400
     38 C52         1.1490   -0.3700   11.4560 c3        1 L2P     -0.077400
     39 C53         1.6710   -1.4980   12.3400 c3        1 L2P     -0.066700
     40 C54         0.6920   -2.6550   12.3270 c3        1 L2P     -0.090100
     41 C55         1.9070   -1.0040   13.7610 c3        1 L2P     -0.076400
     42 C56         2.8530   -1.9010   14.5300 c3        1 L2P     -0.079400
     43 C57         3.0680   -1.3820   15.9360 c3        1 L2P     -0.073400
     44 C58         4.0140   -2.2280   16.7740 c3        1 L2P     -0.065700
     45 C59         3.4840   -3.6310   16.9810 c3        1 L2P     -0.089100
     46 C60         5.4090   -2.2660   16.1870 c3        1 L2P     -0.089100
     47 H12        -0.3590    0.3390   -1.7610 h1        1 L2P      0.031700
     48 H11        -0.6350   -0.5370   -0.1780 h1        1 L2P      0.031700
     49 H2          1.8140   -0.3730   -0.8280 h1        1 L2P      0.050700
     50 H32         1.7240    1.8890   -1.9640 h1        1 L2P      0.062200
     51 H31         1.3500    2.6750   -0.3420 h1        1 L2P      0.062200
     52 H3O         3.4050    1.7940    0.3040 ho        1 L2P      0.413000
     53 H112       -2.5590    0.4790    0.4250 h1        1 L2P      0.026200
     54 H111       -2.6530    1.3580   -1.1760 h1        1 L2P      0.026200
     55 H122       -2.3440    2.7120    1.6110 hc        1 L2P      0.056700
     56 H121       -2.4810    3.5620    0.0270 hc        1 L2P      0.056700
     57 H13        -4.7360    2.5630   -0.3530 hc        1 L2P      0.042700
     58 H143       -4.4930    4.7960    0.6580 hc        1 L2P      0.036033
     59 H142       -5.9130    3.9350    1.3920 hc        1 L2P      0.036033
     60 H141       -4.3620    4.0830    2.3180 hc        1 L2P      0.036033
     61 H152       -5.9750    1.5830    1.5970 hc        1 L2P      0.038200
     62 H151       -4.7280    0.5100    0.8470 hc        1 L2P      0.038200
     63 H162       -4.3240    2.1600    3.4340 hc        1 L2P      0.044200
     64 H161       -3.1360    1.0150    2.6950 hc        1 L2P      0.044200
     65 H172       -5.9990    0.2230    3.5490 hc        1 L2P      0.039700
     66 H171       -4.6800   -0.8870    3.0020 hc        1 L2P      0.039700
     67 H18        -4.5970    0.9240    5.5110 hc        1 L2P      0.048700
     68 H193       -2.6760   -1.2630    4.4550 hc        1 L2P      0.033700
     69 H192       -2.3360    0.5070    4.6410 hc        1 L2P      0.033700
     70 H191       -2.6010   -0.5210    6.1060 hc        1 L2P      0.033700
     71 H202       -4.9600   -2.1340    5.2370 hc        1 L2P      0.037700
     72 H201       -4.7500   -1.2110    6.7770 hc        1 L2P      0.037700
     73 H212       -7.0900   -1.7800    6.4480 hc        1 L2P      0.040200
     74 H211       -7.1160   -1.0590    4.7950 hc        1 L2P      0.040200
     75 H222       -6.4540    0.5650    7.3390 hc        1 L2P      0.039700
     76 H221       -6.7890    1.1960    5.6790 hc        1 L2P      0.039700
     77 H23        -8.7170    1.5920    7.0040 hc        1 L2P      0.044700
     78 H243       -8.2150   -0.0490    8.8270 hc        1 L2P      0.033033
     79 H242       -9.9400   -0.1250    8.2770 hc        1 L2P      0.033033
     80 H241       -8.7700   -1.4070    7.7660 hc        1 L2P      0.033033
     81 H252       -9.3140   -0.9520    5.3560 hc        1 L2P      0.038700
     82 H251      -10.5150    0.2640    5.9440 hc        1 L2P      0.038700
     83 H262       -8.1890    0.8110    3.9750 hc        1 L2P      0.040700
     84 H261       -9.9210    0.5390    3.5410 hc        1 L2P      0.040700
     85 H272       -8.7290    2.8580    5.1920 hc        1 L2P      0.039200
     86 H271      -10.5060    2.5460    5.0620 hc        1 L2P      0.039200
     87 H28        -9.6010    4.3050    3.5190 hc        1 L2P      0.042700
     88 H293       -8.3000    1.9560    1.9840 hc        1 L2P      0.033367
     89 H292       -8.2930    3.7130    1.5470 hc        1 L2P      0.033367
     90 H291       -7.4020    3.1410    3.0200 hc        1 L2P      0.033367
     91 H303      -11.7230    3.0790    3.0390 hc        1 L2P      0.033367
     92 H302      -10.8070    1.8470    2.0780 hc        1 L2P      0.033367
     93 H301      -10.8520    3.5700    1.5270 hc        1 L2P      0.033367
     94 H412        2.2590   -1.4700    1.1870 h1        1 L2P      0.026200
     95 H411        0.4700   -1.2530    1.4890 h1        1 L2P      0.026200
     96 H422        1.0490    0.1670    3.5390 hc        1 L2P      0.057200
     97 H421        2.7940   -0.2100    3.2670 hc        1 L2P      0.057200
     98 H43         2.0460   -2.7400    3.2830 hc        1 L2P      0.042700
     99 H443        0.0470   -3.1640    4.7630 hc        1 L2P      0.035033
    100 H442       -0.3850   -1.4060    4.6630 hc        1 L2P      0.035033
    101 H441       -0.3820   -2.4220    3.1660 hc        1 L2P      0.035033
    102 H452        3.4630   -1.7330    4.9820 hc        1 L2P      0.039200
    103 H451        2.2680   -2.8700    5.7200 hc        1 L2P      0.039200
    104 H462        1.9940    0.2120    5.6480 hc        1 L2P      0.043200
    105 H461        0.8470   -0.9410    6.4350 hc        1 L2P      0.043200
    106 H472        3.8330   -0.5300    7.1530 hc        1 L2P      0.038700
    107 H471        2.7670   -1.8040    7.8650 hc        1 L2P      0.038700
    108 H48         1.1670    0.0320    8.6190 hc        1 L2P      0.047700
    109 H493        2.1430    2.3710    8.7610 hc        1 L2P      0.033700
    110 H492        1.7980    1.8320    7.0680 hc        1 L2P      0.033700
    111 H491        3.5010    1.8410    7.6860 hc        1 L2P      0.033700
    112 H502        3.1860   -1.0840    9.9260 hc        1 L2P      0.040200
    113 H501        4.0030    0.5120    9.7120 hc        1 L2P      0.040200
    114 H512        1.7860    1.5470   10.6980 hc        1 L2P      0.040200
    115 H511        2.9710    0.7480   11.7990 hc        1 L2P      0.040200
    116 H522        0.6170   -0.8110   10.5720 hc        1 L2P      0.040200
    117 H521        0.3930    0.2240   12.0340 hc        1 L2P      0.040200
    118 H53         2.6520   -1.8590   11.9180 hc        1 L2P      0.048700
    119 H543       -0.3140   -2.3200   12.6790 hc        1 L2P      0.032700
    120 H542        1.0460   -3.4750   12.9970 hc        1 L2P      0.032700
    121 H541        0.5860   -3.0640   11.2940 hc        1 L2P      0.032700
    122 H552        0.9260   -0.9380   14.3000 hc        1 L2P      0.039700
    123 H551        2.3340    0.0340   13.7280 hc        1 L2P      0.039700
    124 H562        3.8370   -1.9570   13.9930 hc        1 L2P      0.041200
    125 H561        2.4380   -2.9420   14.5720 hc        1 L2P      0.041200
    126 H572        2.0770   -1.3260   16.4610 hc        1 L2P      0.037700
    127 H571        3.4750   -0.3370   15.8820 hc        1 L2P      0.037700
    128 H58         4.0800   -1.7330   17.7870 hc        1 L2P      0.041700
    129 H593        3.4940   -4.2050   16.0230 hc        1 L2P      0.033367
    130 H592        4.1190   -4.1760   17.7210 hc        1 L2P      0.033367
    131 H591        2.4360   -3.6000   17.3640 hc        1 L2P      0.033367
    132 H603        5.4210   -2.8360   15.2270 hc        1 L2P      0.033367
    133 H602        5.7760   -1.2310   15.9890 hc        1 L2P      0.033367
    134 H601        6.1110   -2.7640   16.8980 hc        1 L2P      0.033367
@<TRIPOS>BOND
     1    1    2 1   
     2    1    3 1   
     3    1   47 1   
     4    1   48 1   
     5    2    7 1   
     6    3    4 1   
     7    3    5 1   
     8    3   49 1   
     9    4   27 1   
    10    5    6 1   
    11    5   50 1   
    12    5   51 1   
    13    6   52 1   
    14    7    8 1   
    15    7   53 1   
    16    7   54 1   
    17    8    9 1   
    18    8   55 1   
    19    8   56 1   
    20    9   10 1   
    21    9   11 1   
    22    9   57 1   
    23   10   58 1   
    24   10   59 1   
    25   10   60 1   
    26   11   12 1   
    27   11   61 1   
    28   11   62 1   
    29   12   13 1   
    30   12   63 1   
    31   12   64 1   
    32   13   14 1   
    33   13   65 1   
    34   13   66 1   
    35   14   15 1   
    36   14   16 1   
    37   14   67 1   
    38   15   68 1   
    39   15   69 1   
    40   15   70 1   
    41   16   17 1   
    42   16   71 1   
    43   16   72 1   
    44   17   18 1   
    45   17   73 1   
    46   17   74 1   
    47   18   19 1   
    48   18   75 1   
    49   18   76 1   
    50   19   20 1   
    51   19   21 1   
    52   19   77 1   
    53   20   78 1   
    54   20   79 1   
    55   20   80 1   
    56   21   22 1   
    57   21   81 1   
    58   21   82 1   
    59   22   23 1   
    60   22   83 1   
    61   22   84 1   
    62   23   24 1   
    63   23   85 1   
    64   23   86 1   
    65   24   25 1   
    66   24   26 1   
    67   24   87 1   
    68   25   88 1   
    69   25   89 1   
    70   25   90 1   
    71   26   91 1   
    72   26   92 1   
    73   26   93 1   
    74   27   28 1   
    75   27   94 1   
    76   27   95 1   
    77   28   29 1   
    78   28   96 1   
    79   28   97 1   
    80   29   30 1   
    81   29   31 1   
    82   29   98 1   
    83   30   99 1   
    84   30  100 1   
    85   30  101 1   
    86   31   32 1   
    87   31  102 1   
    88   31  103 1   
    89   32   33 1   
    90   32  104 1   
    91   32  105 1   
    92   33   34 1   
    93   33  106 1   
    94   33  107 1   
    95   34   35 1   
    96   34   36 1   
    97   34  108 1   
    98   35  109 1   
    99   35  110 1   
   100   35  111 1   
   101   36   37 1   
   102   36  112 1   
   103   36  113 1   
   104   37   38 1   
   105   37  114 1   
   106   37  115 1   
   107   38   39 1   
   108   38  116 1   
   109   38  117 1   
   110   39   40 1   
   111   39   41 1   
   112   39  118 1   
   113   40  119 1   
   114   40  120 1   
   115   40  121 1   
   116   41   42 1   
   117   41  122 1   
   118   41  123 1   
   119   42   43 1   
   120   42  124 1   
   121   42  125 1   
   122   43   44 1   
   123   43  126 1   
   124   43  127 1   
   125   44   45 1   
   126   44   46 1   
   127   44  128 1   
   128   45  129 1   
   129   45  130 1   
   130   45  131 1   
   131   46  132 1   
   132   46  133 1   
   133   46  134 1   
@<TRIPOS>SUBSTRUCTURE
     1 L2P         1 TEMP              0 ****  ****    0 ROOT
