@<TRIPOS>MOLECULE
L2P
  134   133     1     0     0
SMALL
bcc


@<TRIPOS>ATOM
      1 C1         -0.2050    0.4010   -0.6490 c3        1 L2P      0.106400
      2 O1         -0.8510    1.5600   -0.1370 os        1 L2P     -0.414600
      3 C2          1.2880    0.5110   -0.3390 c3        1 L2P      0.102100
      4 O2          1.5490    0.5070    1.0630 os        1 L2P     -0.420600
      5 C3          1.8620    1.8380   -0.8510 c3        1 L2P      0.139400
      6 O3          3.2570    1.9000   -0.6450 oh        1 L2P     -0.603800
      7 C11        -2.2730    1.4250   -0.1180 c3        1 L2P      0.129400
      8 C12        -2.8080    2.6530    0.5960 c3        1 L2P     -0.080400
      9 C13        -4.3240    2.6320    0.7010 c3        1 L2P     -0.061700
     10 C14        -4.8060    3.9350    1.3080 c3        1 L2P     -0.093100
     11 C15        -4.8680    1.4370    1.4700 c3        1 L2P     -0.077400
     12 C16        -4.2310    1.2250    2.8270 c3        1 L2P     -0.082400
     13 C17        -4.8820    0.0670    3.5550 c3        1 L2P     -0.076400
     14 C18        -4.4050   -0.0580    4.9930 c3        1 L2P     -0.064700
     15 C19        -2.9170   -0.3450    5.0550 c3        1 L2P     -0.093100
     16 C20        -5.1570   -1.1540    5.7380 c3        1 L2P     -0.074400
     17 C21        -6.6560   -0.9650    5.8200 c3        1 L2P     -0.077400
     18 C22        -7.0530    0.3700    6.4110 c3        1 L2P     -0.073400
     19 C23        -8.5310    0.4880    6.7520 c3        1 L2P     -0.064700
     20 C24        -8.8800   -0.3380    7.9740 c3        1 L2P     -0.091100
     21 C25        -9.4510    0.1150    5.6010 c3        1 L2P     -0.073400
     22 C26        -9.2430    0.9260    4.3400 c3        1 L2P     -0.078400
     23 C27        -9.5300    2.4000    4.5350 c3        1 L2P     -0.073400
     24 C28        -9.5710    3.1940    3.2370 c3        1 L2P     -0.066700
     25 C29        -8.3250    2.9790    2.4050 c3        1 L2P     -0.090100
     26 C30       -10.8130    2.8850    2.4280 c3        1 L2P     -0.090100
     27 C41         1.4870   -0.7910    1.6540 c3        1 L2P      0.130400
     28 C42         1.7610   -0.5960    3.1360 c3        1 L2P     -0.080400
     29 C43         1.6030   -1.9000    3.9020 c3        1 L2P     -0.062700
     30 C44         0.1440   -2.2280    4.1400 c3        1 L2P     -0.093100
     31 C45         2.3840   -1.8670    5.2080 c3        1 L2P     -0.073400
     32 C46         1.9420   -0.7730    6.1570 c3        1 L2P     -0.081400
     33 C47         2.7910   -0.7710    7.4110 c3        1 L2P     -0.075400
     34 C48         2.2980    0.2320    8.4460 c3        1 L2P     -0.065700
     35 C49         2.4910    1.6530    7.9590 c3        1 L2P     -0.090100
     36 C50         3.0250    0.0110    9.7680 c3        1 L2P     -0.076400
     37 C51         2.2740    0.5690   10.9600 c3        1 L2P     -0.079400
     38 C52         1.1640   -0.3420   11.4460 c3        1 L2P     -0.077400
     39 C53         1.6650   -1.4780   12.3310 c3        1 L2P     -0.066700
     40 C54         0.6680   -2.6190   12.3160 c3        1 L2P     -0.090100
     41 C55         1.9050   -0.9880   13.7530 c3        1 L2P     -0.076400
     42 C56         2.8340   -1.9020   14.5260 c3        1 L2P     -0.079400
     43 C57         3.0530   -1.3860   15.9320 c3        1 L2P     -0.073400
     44 C58         3.9800   -2.2490   16.7730 c3        1 L2P     -0.065700
     45 C59         3.4220   -3.6410   16.9820 c3        1 L2P     -0.089100
     46 C60         5.3750   -2.3160   16.1900 c3        1 L2P     -0.089100
     47 H12        -0.3590    0.3550   -1.7600 h1        1 L2P      0.031700
     48 H11        -0.6320   -0.5240   -0.1790 h1        1 L2P      0.031700
     49 H2          1.8170   -0.3540   -0.8290 h1        1 L2P      0.050700
     50 H32         1.7210    1.9090   -1.9610 h1        1 L2P      0.062200
     51 H31         1.3460    2.6920   -0.3380 h1        1 L2P      0.062200
     52 H3O         3.4030    1.8140    0.3060 ho        1 L2P      0.413000
     53 H112       -2.5580    0.4860    0.4280 h1        1 L2P      0.026200
     54 H111       -2.6550    1.3670   -1.1720 h1        1 L2P      0.026200
     55 H122       -2.3480    2.7180    1.6170 hc        1 L2P      0.056700
     56 H121       -2.4880    3.5690    0.0330 hc        1 L2P      0.056700
     57 H13        -4.7410    2.5640   -0.3460 hc        1 L2P      0.042700
     58 H143       -4.5040    4.7970    0.6660 hc        1 L2P      0.036033
     59 H142       -5.9200    3.9320    1.4000 hc        1 L2P      0.036033
     60 H141       -4.3690    4.0830    2.3250 hc        1 L2P      0.036033
     61 H152       -5.9760    1.5790    1.6020 hc        1 L2P      0.038200
     62 H151       -4.7260    0.5110    0.8520 hc        1 L2P      0.038200
     63 H162       -4.3270    2.1600    3.4400 hc        1 L2P      0.044200
     64 H161       -3.1350    1.0180    2.7000 hc        1 L2P      0.044200
     65 H172       -5.9960    0.2170    3.5530 hc        1 L2P      0.039700
     66 H171       -4.6720   -0.8880    3.0060 hc        1 L2P      0.039700
     67 H18        -4.5970    0.9220    5.5160 hc        1 L2P      0.048700
     68 H193       -2.6670   -1.2570    4.4600 hc        1 L2P      0.033700
     69 H192       -2.3340    0.5150    4.6470 hc        1 L2P      0.033700
     70 H191       -2.5960   -0.5150    6.1120 hc        1 L2P      0.033700
     71 H202       -4.9480   -2.1380    5.2400 hc        1 L2P      0.037700
     72 H201       -4.7430   -1.2140    6.7810 hc        1 L2P      0.037700
     73 H212       -7.0810   -1.7930    6.4490 hc        1 L2P      0.040200
     74 H211       -7.1080   -1.0710    4.7970 hc        1 L2P      0.040200
     75 H222       -6.4550    0.5540    7.3430 hc        1 L2P      0.039700
     76 H221       -6.7910    1.1850    5.6830 hc        1 L2P      0.039700
     77 H23        -8.7210    1.5720    7.0070 hc        1 L2P      0.044700
     78 H243       -8.2140   -0.0680    8.8290 hc        1 L2P      0.033033
     79 H242       -9.9390   -0.1510    8.2770 hc        1 L2P      0.033033
     80 H241       -8.7640   -1.4280    7.7650 hc        1 L2P      0.033033
     81 H252       -9.3070   -0.9720    5.3560 hc        1 L2P      0.038700
     82 H251      -10.5140    0.2380    5.9440 hc        1 L2P      0.038700
     83 H262       -8.1880    0.7970    3.9780 hc        1 L2P      0.040700
     84 H261       -9.9180    0.5180    3.5410 hc        1 L2P      0.040700
     85 H272       -8.7360    2.8400    5.1960 hc        1 L2P      0.039200
     86 H271      -10.5120    2.5220    5.0650 hc        1 L2P      0.039200
     87 H28        -9.6130    4.2850    3.5240 hc        1 L2P      0.042700
     88 H293       -8.3020    1.9430    1.9880 hc        1 L2P      0.033367
     89 H292       -8.3020    3.7010    1.5520 hc        1 L2P      0.033367
     90 H291       -7.4090    3.1300    3.0260 hc        1 L2P      0.033367
     91 H303      -11.7300    3.0520    3.0420 hc        1 L2P      0.033367
     92 H302      -10.8090    1.8240    2.0790 hc        1 L2P      0.033367
     93 H301      -10.8600    3.5480    1.5300 hc        1 L2P      0.033367
     94 H412        2.2600   -1.4550    1.1820 h1        1 L2P      0.026200
     95 H411        0.4710   -1.2380    1.4900 h1        1 L2P      0.026200
     96 H422        1.0600    0.1800    3.5400 hc        1 L2P      0.056700
     97 H421        2.8030   -0.2010    3.2630 hc        1 L2P      0.056700
     98 H43         2.0470   -2.7300    3.2770 hc        1 L2P      0.042700
     99 H443        0.0510   -3.1500    4.7630 hc        1 L2P      0.035033
    100 H442       -0.3750   -1.3900    4.6680 hc        1 L2P      0.035033
    101 H441       -0.3800   -2.4030    3.1690 hc        1 L2P      0.035033
    102 H452        3.4740   -1.7310    4.9730 hc        1 L2P      0.039700
    103 H451        2.2750   -2.8620    5.7150 hc        1 L2P      0.039700
    104 H462        2.0200    0.2220    5.6450 hc        1 L2P      0.043200
    105 H461        0.8650   -0.9230    6.4320 hc        1 L2P      0.043200
    106 H472        3.8560   -0.5390    7.1460 hc        1 L2P      0.038700
    107 H471        2.7770   -1.8000    7.8610 hc        1 L2P      0.038700
    108 H48         1.1960    0.0580    8.6100 hc        1 L2P      0.047700
    109 H493        2.2040    2.3820    8.7540 hc        1 L2P      0.033700
    110 H492        1.8590    1.8480    7.0600 hc        1 L2P      0.033700
    111 H491        3.5590    1.8340    7.6860 hc        1 L2P      0.033700
    112 H502        3.1940   -1.0880    9.9230 hc        1 L2P      0.040200
    113 H501        4.0350    0.4950    9.7100 hc        1 L2P      0.040200
    114 H512        1.8330    1.5650   10.6910 hc        1 L2P      0.040200
    115 H511        3.0030    0.7470   11.7950 hc        1 L2P      0.040200
    116 H522        0.6270   -0.7740   10.5610 hc        1 L2P      0.040200
    117 H521        0.4160    0.2640   12.0230 hc        1 L2P      0.040200
    118 H53         2.6420   -1.8550   11.9130 hc        1 L2P      0.048700
    119 H543       -0.3340   -2.2690   12.6650 hc        1 L2P      0.032700
    120 H542        1.0070   -3.4450   12.9860 hc        1 L2P      0.032700
    121 H541        0.5580   -3.0260   11.2820 hc        1 L2P      0.032700
    122 H552        0.9230   -0.9060   14.2890 hc        1 L2P      0.039700
    123 H551        2.3500    0.0420   13.7220 hc        1 L2P      0.039700
    124 H562        3.8180   -1.9740   13.9920 hc        1 L2P      0.041200
    125 H561        2.4000   -2.9360   14.5660 hc        1 L2P      0.041200
    126 H572        2.0610   -1.3110   16.4530 hc        1 L2P      0.037700
    127 H571        3.4800   -0.3490   15.8790 hc        1 L2P      0.037700
    128 H58         4.0540   -1.7540   17.7860 hc        1 L2P      0.041700
    129 H593        3.4210   -4.2160   16.0250 hc        1 L2P      0.033367
    130 H592        4.0440   -4.1970   17.7240 hc        1 L2P      0.033367
    131 H591        2.3740   -3.5880   17.3630 hc        1 L2P      0.033367
    132 H603        5.3780   -2.8890   15.2310 hc        1 L2P      0.033367
    133 H602        5.7640   -1.2890   15.9900 hc        1 L2P      0.033367
    134 H601        6.0660   -2.8260   16.9040 hc        1 L2P      0.033367
@<TRIPOS>BOND
     1    1    2 1   
     2    1    3 1   
     3    1   47 1   
     4    1   48 1   
     5    2    7 1   
     6    3    4 1   
     7    3    5 1   
     8    3   49 1   
     9    4   27 1   
    10    5    6 1   
    11    5   50 1   
    12    5   51 1   
    13    6   52 1   
    14    7    8 1   
    15    7   53 1   
    16    7   54 1   
    17    8    9 1   
    18    8   55 1   
    19    8   56 1   
    20    9   10 1   
    21    9   11 1   
    22    9   57 1   
    23   10   58 1   
    24   10   59 1   
    25   10   60 1   
    26   11   12 1   
    27   11   61 1   
    28   11   62 1   
    29   12   13 1   
    30   12   63 1   
    31   12   64 1   
    32   13   14 1   
    33   13   65 1   
    34   13   66 1   
    35   14   15 1   
    36   14   16 1   
    37   14   67 1   
    38   15   68 1   
    39   15   69 1   
    40   15   70 1   
    41   16   17 1   
    42   16   71 1   
    43   16   72 1   
    44   17   18 1   
    45   17   73 1   
    46   17   74 1   
    47   18   19 1   
    48   18   75 1   
    49   18   76 1   
    50   19   20 1   
    51   19   21 1   
    52   19   77 1   
    53   20   78 1   
    54   20   79 1   
    55   20   80 1   
    56   21   22 1   
    57   21   81 1   
    58   21   82 1   
    59   22   23 1   
    60   22   83 1   
    61   22   84 1   
    62   23   24 1   
    63   23   85 1   
    64   23   86 1   
    65   24   25 1   
    66   24   26 1   
    67   24   87 1   
    68   25   88 1   
    69   25   89 1   
    70   25   90 1   
    71   26   91 1   
    72   26   92 1   
    73   26   93 1   
    74   27   28 1   
    75   27   94 1   
    76   27   95 1   
    77   28   29 1   
    78   28   96 1   
    79   28   97 1   
    80   29   30 1   
    81   29   31 1   
    82   29   98 1   
    83   30   99 1   
    84   30  100 1   
    85   30  101 1   
    86   31   32 1   
    87   31  102 1   
    88   31  103 1   
    89   32   33 1   
    90   32  104 1   
    91   32  105 1   
    92   33   34 1   
    93   33  106 1   
    94   33  107 1   
    95   34   35 1   
    96   34   36 1   
    97   34  108 1   
    98   35  109 1   
    99   35  110 1   
   100   35  111 1   
   101   36   37 1   
   102   36  112 1   
   103   36  113 1   
   104   37   38 1   
   105   37  114 1   
   106   37  115 1   
   107   38   39 1   
   108   38  116 1   
   109   38  117 1   
   110   39   40 1   
   111   39   41 1   
   112   39  118 1   
   113   40  119 1   
   114   40  120 1   
   115   40  121 1   
   116   41   42 1   
   117   41  122 1   
   118   41  123 1   
   119   42   43 1   
   120   42  124 1   
   121   42  125 1   
   122   43   44 1   
   123   43  126 1   
   124   43  127 1   
   125   44   45 1   
   126   44   46 1   
   127   44  128 1   
   128   45  129 1   
   129   45  130 1   
   130   45  131 1   
   131   46  132 1   
   132   46  133 1   
   133   46  134 1   
@<TRIPOS>SUBSTRUCTURE
     1 L2P         1 TEMP              0 ****  ****    0 ROOT
