@<TRIPOS>MOLECULE
L2S
   36    37     1     0     0
SMALL
bcc


@<TRIPOS>ATOM
      1 C1          0.1360   -0.0990   -0.1320 c3        1 L2S     -0.078400
      2 N1          1.3850   -0.9810    2.3560 n         1 L2S     -0.452800
      3 O1          3.4230   -1.9670    2.7000 o         1 L2S     -0.582100
      4 S1          2.7180   -4.2690    4.2200 ss        1 L2S     -0.090000
      5 C2          1.6330    0.0010    0.0690 c3        1 L2S     -0.104900
      6 C3          1.9900    0.0690    1.5550 c3        1 L2S      0.079500
      7 C4         -0.0400   -1.1190    2.1520 c3        1 L2S      0.079500
      8 C5         -0.4510   -1.2340    0.6810 c3        1 L2S     -0.104900
      9 C6          2.1840   -2.0320    2.8110 c         1 L2S      0.671100
     10 C7          1.5090   -3.1930    3.5100 c3        1 L2S     -0.132300
     11 C8          1.7950   -5.4590    4.9920 ca        1 L2S     -0.025100
     12 C9          2.5500   -6.4290    5.6750 ca        1 L2S     -0.131000
     13 C10         1.9230   -7.4680    6.3490 ca        1 L2S     -0.112500
     14 C11         0.5230   -7.5660    6.3620 ca        1 L2S     -0.086300
     15 C12        -0.2270   -6.6030    5.6840 ca        1 L2S     -0.112500
     16 C13         0.4020   -5.5610    5.0060 ca        1 L2S     -0.131000
     17 C14        -0.1380   -8.6690    7.0950 c3        1 L2S     -0.052800
     18 H11        -0.0900   -0.2580   -1.2190 hc        1 L2S      0.043700
     19 H21        -0.3470    0.8660    0.1740 hc        1 L2S      0.043700
     20 H12         2.0260    0.9240   -0.4300 hc        1 L2S      0.050950
     21 H22         2.1390   -0.8810   -0.4030 hc        1 L2S      0.050950
     22 H13         1.6250    1.0500    1.9740 h1        1 L2S      0.059200
     23 H23         3.1110    0.0290    1.6710 h1        1 L2S      0.059200
     24 H14        -0.4430   -2.0050    2.7140 h1        1 L2S      0.059200
     25 H24        -0.5230   -0.1950    2.5850 h1        1 L2S      0.059200
     26 H15        -0.1080   -2.2160    0.2640 hc        1 L2S      0.050950
     27 H25        -1.5690   -1.2100    0.6230 hc        1 L2S      0.050950
     28 H17         0.8900   -3.7540    2.7650 h1        1 L2S      0.086700
     29 H27         0.8290   -2.8070    4.3120 h1        1 L2S      0.086700
     30 H9          3.6490   -6.3590    5.6710 ha        1 L2S      0.133000
     31 H10         2.5260   -8.2220    6.8770 ha        1 L2S      0.132500
     32 H112       -1.3260   -6.6660    5.6830 ha        1 L2S      0.132500
     33 H113       -0.2180   -4.8190    4.4800 ha        1 L2S      0.133000
     34 H114       -1.1950   -8.8030    6.7580 hc        1 L2S      0.044367
     35 H214       -0.1450   -8.4490    8.1930 hc        1 L2S      0.044367
     36 H314        0.4080   -9.6320    6.9370 hc        1 L2S      0.044367
@<TRIPOS>BOND
     1    1    5 1   
     2    1    8 1   
     3    1   18 1   
     4    1   19 1   
     5    2    6 1   
     6    2    7 1   
     7    2    9 1   
     8    3    9 2   
     9    4   10 1   
    10    4   11 1   
    11    5    6 1   
    12    5   20 1   
    13    5   21 1   
    14    6   22 1   
    15    6   23 1   
    16    7    8 1   
    17    7   24 1   
    18    7   25 1   
    19    8   26 1   
    20    8   27 1   
    21    9   10 1   
    22   10   28 1   
    23   10   29 1   
    24   11   12 ar  
    25   11   16 ar  
    26   12   13 ar  
    27   12   30 1   
    28   13   14 ar  
    29   13   31 1   
    30   14   15 ar  
    31   14   17 1   
    32   15   16 ar  
    33   15   32 1   
    34   16   33 1   
    35   17   34 1   
    36   17   35 1   
    37   17   36 1   
@<TRIPOS>SUBSTRUCTURE
     1 L2S         1 TEMP              0 ****  ****    0 ROOT
