@<TRIPOS>MOLECULE
L2S
   36    37     1     0     0
SMALL
bcc


@<TRIPOS>ATOM
      1 C1          0.1300   -0.0980   -0.1300 c3        1 L2S     -0.078400
      2 N1          1.3910   -0.9830    2.3520 n         1 L2S     -0.452800
      3 O1          3.4270   -1.9790    2.6830 o         1 L2S     -0.582100
      4 S1          2.7200   -4.2770    4.2100 ss        1 L2S     -0.090000
      5 C2          1.6290   -0.0060    0.0620 c3        1 L2S     -0.104900
      6 C3          1.9970    0.0620    1.5450 c3        1 L2S      0.079500
      7 C4         -0.0360   -1.1140    2.1580 c3        1 L2S      0.079500
      8 C5         -0.4570   -1.2280    0.6900 c3        1 L2S     -0.104900
      9 C6          2.1880   -2.0370    2.8030 c         1 L2S      0.671100
     10 C7          1.5120   -3.1940    3.5080 c3        1 L2S     -0.132300
     11 C8          1.7960   -5.4620    4.9880 ca        1 L2S     -0.025100
     12 C9          2.5500   -6.4370    5.6640 ca        1 L2S     -0.131000
     13 C10         1.9210   -7.4730    6.3410 ca        1 L2S     -0.112500
     14 C11         0.5220   -7.5630    6.3660 ca        1 L2S     -0.086300
     15 C12        -0.2280   -6.5950    5.6950 ca        1 L2S     -0.112500
     16 C13         0.4020   -5.5550    5.0120 ca        1 L2S     -0.131000
     17 C14        -0.1400   -8.6630    7.1030 c3        1 L2S     -0.052800
     18 H11        -0.3450    0.8700    0.1790 hc        1 L2S      0.043700
     19 H21        -0.1040   -0.2580   -1.2140 hc        1 L2S      0.043700
     20 H12         2.0230    0.9140   -0.4420 hc        1 L2S      0.050950
     21 H22         2.1270   -0.8920   -0.4120 hc        1 L2S      0.050950
     22 H13         3.1180    0.0170    1.6530 h1        1 L2S      0.059200
     23 H23         1.6400    1.0470    1.9640 h1        1 L2S      0.059200
     24 H14        -0.4390   -1.9970    2.7240 h1        1 L2S      0.059200
     25 H24        -0.5110   -0.1850    2.5930 h1        1 L2S      0.059200
     26 H15        -0.1220   -2.2130    0.2720 hc        1 L2S      0.050950
     27 H25        -1.5750   -1.1990    0.6390 hc        1 L2S      0.050950
     28 H17         0.8400   -2.8040    4.3150 h1        1 L2S      0.086700
     29 H27         0.8830   -3.7520    2.7680 h1        1 L2S      0.086700
     30 H9          3.6500   -6.3740    5.6510 ha        1 L2S      0.133000
     31 H10         2.5240   -8.2300    6.8650 ha        1 L2S      0.132500
     32 H112       -1.3270   -6.6510    5.7020 ha        1 L2S      0.132500
     33 H113       -0.2170   -4.8100    4.4920 ha        1 L2S      0.133000
     34 H114        0.3890   -9.6320    6.9250 hc        1 L2S      0.044367
     35 H214       -0.1210   -8.4530    8.2020 hc        1 L2S      0.044367
     36 H314       -1.2050   -8.7790    6.7870 hc        1 L2S      0.044367
@<TRIPOS>BOND
     1    1    5 1   
     2    1    8 1   
     3    1   18 1   
     4    1   19 1   
     5    2    6 1   
     6    2    7 1   
     7    2    9 1   
     8    3    9 2   
     9    4   10 1   
    10    4   11 1   
    11    5    6 1   
    12    5   20 1   
    13    5   21 1   
    14    6   22 1   
    15    6   23 1   
    16    7    8 1   
    17    7   24 1   
    18    7   25 1   
    19    8   26 1   
    20    8   27 1   
    21    9   10 1   
    22   10   28 1   
    23   10   29 1   
    24   11   12 ar  
    25   11   16 ar  
    26   12   13 ar  
    27   12   30 1   
    28   13   14 ar  
    29   13   31 1   
    30   14   15 ar  
    31   14   17 1   
    32   15   16 ar  
    33   15   32 1   
    34   16   33 1   
    35   17   34 1   
    36   17   35 1   
    37   17   36 1   
@<TRIPOS>SUBSTRUCTURE
     1 L2S         1 TEMP              0 ****  ****    0 ROOT
