@<TRIPOS>MOLECULE
L2S
   36    37     1     0     0
SMALL
bcc


@<TRIPOS>ATOM
      1 C1          0.1370   -0.1000   -0.1350 c3        1 L2S     -0.078400
      2 N1          1.3860   -0.9830    2.3530 n         1 L2S     -0.452800
      3 O1          3.4240   -1.9700    2.6960 o         1 L2S     -0.582100
      4 S1          2.7180   -4.2710    4.2190 ss        1 L2S     -0.090000
      5 C2          1.6340   -0.0010    0.0660 c3        1 L2S     -0.104900
      6 C3          1.9920    0.0670    1.5520 c3        1 L2S      0.079500
      7 C4         -0.0390   -1.1210    2.1500 c3        1 L2S      0.079500
      8 C5         -0.4500   -1.2350    0.6780 c3        1 L2S     -0.104900
      9 C6          2.1840   -2.0340    2.8080 c         1 L2S      0.671100
     10 C7          1.5100   -3.1940    3.5080 c3        1 L2S     -0.132300
     11 C8          1.7950   -5.4580    4.9940 ca        1 L2S     -0.025100
     12 C9          2.5490   -6.4270    5.6790 ca        1 L2S     -0.131500
     13 C10         1.9210   -7.4650    6.3540 ca        1 L2S     -0.112500
     14 C11         0.5220   -7.5640    6.3670 ca        1 L2S     -0.086300
     15 C12        -0.2280   -6.6020    5.6860 ca        1 L2S     -0.112500
     16 C13         0.4020   -5.5610    5.0060 ca        1 L2S     -0.131500
     17 C14        -0.1400   -8.6650    7.1020 c3        1 L2S     -0.052800
     18 H11        -0.3460    0.8650    0.1720 hc        1 L2S      0.043700
     19 H21        -0.0890   -0.2590   -1.2210 hc        1 L2S      0.043700
     20 H12         2.1400   -0.8830   -0.4050 hc        1 L2S      0.050950
     21 H22         2.0270    0.9220   -0.4320 hc        1 L2S      0.050950
     22 H13         3.1120    0.0270    1.6680 h1        1 L2S      0.059200
     23 H23         1.6270    1.0480    1.9710 h1        1 L2S      0.059200
     24 H14        -0.5220   -0.1960    2.5830 h1        1 L2S      0.059200
     25 H24        -0.4420   -2.0070    2.7110 h1        1 L2S      0.059200
     26 H15        -1.5690   -1.2110    0.6200 hc        1 L2S      0.050950
     27 H25        -0.1080   -2.2170    0.2610 hc        1 L2S      0.050950
     28 H17         0.8900   -3.7560    2.7630 h1        1 L2S      0.086700
     29 H27         0.8290   -2.8090    4.3090 h1        1 L2S      0.086700
     30 H9          3.6480   -6.3570    5.6750 ha        1 L2S      0.133000
     31 H10         2.5240   -8.2170    6.8850 ha        1 L2S      0.132500
     32 H112       -1.3270   -6.6650    5.6840 ha        1 L2S      0.132500
     33 H113       -0.2180   -4.8210    4.4780 ha        1 L2S      0.133000
     34 H114       -1.1910   -8.8100    6.7510 hc        1 L2S      0.044367
     35 H214       -0.1640   -8.4330    8.1970 hc        1 L2S      0.044367
     36 H314        0.4160   -9.6250    6.9610 hc        1 L2S      0.044367
@<TRIPOS>BOND
     1    1    5 1   
     2    1    8 1   
     3    1   18 1   
     4    1   19 1   
     5    2    6 1   
     6    2    7 1   
     7    2    9 1   
     8    3    9 2   
     9    4   10 1   
    10    4   11 1   
    11    5    6 1   
    12    5   20 1   
    13    5   21 1   
    14    6   22 1   
    15    6   23 1   
    16    7    8 1   
    17    7   24 1   
    18    7   25 1   
    19    8   26 1   
    20    8   27 1   
    21    9   10 1   
    22   10   28 1   
    23   10   29 1   
    24   11   12 ar  
    25   11   16 ar  
    26   12   13 ar  
    27   12   30 1   
    28   13   14 ar  
    29   13   31 1   
    30   14   15 ar  
    31   14   17 1   
    32   15   16 ar  
    33   15   32 1   
    34   16   33 1   
    35   17   34 1   
    36   17   35 1   
    37   17   36 1   
@<TRIPOS>SUBSTRUCTURE
     1 L2S         1 TEMP              0 ****  ****    0 ROOT
