@<TRIPOS>MOLECULE
L2S
   36    35     1     0     0
SMALL
bcc


@<TRIPOS>ATOM
      1 C1         -1.0430   -3.4310   -3.6900 c3        1 L2S     -0.157000
      2 N1          0.4440   -2.3430   -1.4910 n         1 L2S     -0.311000
      3 O1          2.4340   -1.3890   -0.8590 o         1 L2S     -0.343000
      4 S1          1.5080    1.0790    0.3010 ss        1 L2S      0.319000
      5 C2          0.4370   -3.3500   -3.7310 c3        1 L2S     -0.183500
      6 C3          1.0450   -3.3440   -2.3550 c3        1 L2S     -0.036500
      7 C4         -0.9950   -2.4040   -1.4330 c3        1 L2S     -0.036500
      8 C5         -1.6270   -2.4060   -2.8130 c3        1 L2S     -0.183500
      9 C6          1.2100   -1.3880   -0.7660 c2        1 L2S      0.315000
     10 C7          0.5170   -0.3960    0.1660 c3        1 L2S     -0.343000
     11 C8          0.8310    2.1380    1.5860 c2        1 L2S     -0.252000
     12 C9         -0.2710    2.9620    1.3050 c2        1 L2S     -0.145000
     13 C10        -0.7220    3.8780    2.2600 c1        1 L2S     -0.112000
     14 C11        -0.0750    3.9730    3.4970 c1        1 L2S     -0.079000
     15 C12         1.0210    3.1540    3.7780 c1        1 L2S     -0.113000
     16 C13         1.4740    2.2350    2.8190 c1        1 L2S     -0.117000
     17 C14        -0.6110    4.9410    4.5800 c3        1 L2S     -0.178000
     18 H11        -1.3950   -3.3110   -4.6020 hc        1 L2S      0.083000
     19 H21        -1.3060   -4.3230   -3.3600 hc        1 L2S      0.083000
     20 H12         0.6980   -2.5280   -4.1960 hc        1 L2S      0.090250
     21 H22         0.7820   -4.1140   -4.2240 hc        1 L2S      0.090250
     22 H13         2.0080   -3.1570   -2.4340 h1        1 L2S      0.098500
     23 H23         0.9240   -4.2340   -1.9480 h1        1 L2S      0.098500
     24 H14        -1.3260   -1.6270   -0.9340 h1        1 L2S      0.098500
     25 H24        -1.2560   -3.2080   -0.9670 h1        1 L2S      0.098500
     26 H15        -1.4980   -1.5360   -3.2190 hc        1 L2S      0.090250
     27 H25        -2.5760   -2.5740   -2.7240 hc        1 L2S      0.090250
     28 H17         0.4100   -0.8030    1.0600 h1        1 L2S      0.126000
     29 H27        -0.3680   -0.1650   -0.1980 h1        1 L2S      0.126000
     30 H9         -0.7190    2.8960    0.4480 ha        1 L2S      0.123000
     31 H10        -1.4910    4.4530    2.0630 ha        1 L2S      0.131000
     32 H112        1.4730    3.2210    4.6440 ha        1 L2S      0.134000
     33 H113        2.2330    1.6670    3.0150 ha        1 L2S      0.143000
     34 H114       -1.0050    5.7250    4.1530 hc        1 L2S      0.083667
     35 H214       -1.2860    4.4890    5.1130 hc        1 L2S      0.083667
     36 H314        0.1220    5.2200    5.1560 hc        1 L2S      0.083667
@<TRIPOS>BOND
     1    1    5 1   
     2    1    8 1   
     3    1   18 1   
     4    1   19 1   
     5    2    6 1   
     6    2    7 1   
     7    2    9 1   
     8    3    9 1   
     9    4   10 1   
    10    4   11 1   
    11    5    6 1   
    12    5   20 1   
    13    5   21 1   
    14    6   22 1   
    15    6   23 1   
    16    7    8 1   
    17    7   24 1   
    18    7   25 1   
    19    8   26 1   
    20    8   27 1   
    21    9   10 1   
    22   10   28 1   
    23   10   29 1   
    24   11   12 1   
    25   11   16 1   
    26   12   13 1   
    27   12   30 1   
    28   13   31 1   
    29   14   15 1   
    30   14   17 1   
    31   15   32 1   
    32   16   33 1   
    33   17   34 1   
    34   17   35 1   
    35   17   36 1   
@<TRIPOS>SUBSTRUCTURE
     1 L2S         1 TEMP              0 ****  ****    0 ROOT
