@<TRIPOS>MOLECULE
L2S
   36    37     1     0     0
SMALL
bcc


@<TRIPOS>ATOM
      1 C1         -5.0730    1.4320    0.4880 c3        1 L2S     -0.078400
      2 N1         -2.8650   -0.1150   -0.6360 n         1 L2S     -0.452800
      3 O1         -1.8930   -2.0430    0.1260 o         1 L2S     -0.582100
      4 S1          0.8640   -1.3350    0.1840 ss        1 L2S     -0.090000
      5 C2         -5.0430   -0.0780    0.5940 c3        1 L2S     -0.104900
      6 C3         -4.1910   -0.6960   -0.5160 c3        1 L2S      0.079500
      7 C4         -2.8680    1.3300   -0.7020 c3        1 L2S      0.079500
      8 C5         -3.6720    2.0030    0.4140 c3        1 L2S     -0.104900
      9 C6         -1.7630   -0.8440   -0.1860 c         1 L2S      0.671100
     10 C7         -0.4110   -0.1640   -0.1750 c3        1 L2S     -0.132300
     11 C8          2.2850   -0.4200    0.1050 ca        1 L2S     -0.025100
     12 C9          3.4640   -1.1560    0.3260 ca        1 L2S     -0.131000
     13 C10         4.7030   -0.5320    0.2960 ca        1 L2S     -0.112500
     14 C11         4.8020    0.8440    0.0420 ca        1 L2S     -0.086300
     15 C12         3.6330    1.5760   -0.1770 ca        1 L2S     -0.112500
     16 C13         2.3870    0.9500   -0.1460 ca        1 L2S     -0.131000
     17 C14         6.1290    1.4980   -0.0020 c3        1 L2S     -0.052800
     18 H11        -5.6450    1.7300   -0.4300 hc        1 L2S      0.043700
     19 H21        -5.6090    1.8630    1.3730 hc        1 L2S      0.043700
     20 H12        -4.6370   -0.3800    1.5950 hc        1 L2S      0.050950
     21 H22        -6.0820   -0.4880    0.5110 hc        1 L2S      0.050950
     22 H13        -4.7090   -0.5350   -1.5050 h1        1 L2S      0.059200
     23 H23        -4.0990   -1.8050   -0.3420 h1        1 L2S      0.059200
     24 H14        -1.8190    1.7340   -0.6920 h1        1 L2S      0.059200
     25 H24        -3.3300    1.6110   -1.6940 h1        1 L2S      0.059200
     26 H15        -3.7160    3.1030    0.2040 hc        1 L2S      0.050950
     27 H25        -3.1530    1.8630    1.3970 hc        1 L2S      0.050950
     28 H17        -0.4180    0.6430    0.6020 h1        1 L2S      0.086700
     29 H27        -0.2180    0.3110   -1.1710 h1        1 L2S      0.086700
     30 H9          3.3950   -2.2370    0.5240 ha        1 L2S      0.133000
     31 H10         5.6170   -1.1190    0.4720 ha        1 L2S      0.132500
     32 H112        3.6920    2.6560   -0.3760 ha        1 L2S      0.132500
     33 H113        1.4850    1.5550   -0.3200 ha        1 L2S      0.133000
     34 H114        6.6370    1.2690   -0.9730 hc        1 L2S      0.044367
     35 H214        6.0370    2.6080    0.0910 hc        1 L2S      0.044367
     36 H314        6.7800    1.1270    0.8280 hc        1 L2S      0.044367
@<TRIPOS>BOND
     1    1    5 1   
     2    1    8 1   
     3    1   18 1   
     4    1   19 1   
     5    2    6 1   
     6    2    7 1   
     7    2    9 1   
     8    3    9 2   
     9    4   10 1   
    10    4   11 1   
    11    5    6 1   
    12    5   20 1   
    13    5   21 1   
    14    6   22 1   
    15    6   23 1   
    16    7    8 1   
    17    7   24 1   
    18    7   25 1   
    19    8   26 1   
    20    8   27 1   
    21    9   10 1   
    22   10   28 1   
    23   10   29 1   
    24   11   12 ar  
    25   11   16 ar  
    26   12   13 ar  
    27   12   30 1   
    28   13   14 ar  
    29   13   31 1   
    30   14   15 ar  
    31   14   17 1   
    32   15   16 ar  
    33   15   32 1   
    34   16   33 1   
    35   17   34 1   
    36   17   35 1   
    37   17   36 1   
@<TRIPOS>SUBSTRUCTURE
     1 L2S         1 TEMP              0 ****  ****    0 ROOT
