@<TRIPOS>MOLECULE
L31
   44    47     1     0     0
SMALL
bcc


@<TRIPOS>ATOM
      1 C1         -0.1260   -0.0280   -0.0310 ca        1 L31     -0.104300
      2 C2          1.2500    0.1630   -0.1020 ca        1 L31     -0.082000
      3 C3          2.0140    0.0520    1.0600 ca        1 L31     -0.079800
      4 C4          1.3630   -0.2530    2.3170 ca        1 L31     -0.045200
      5 C5         -0.0260   -0.4430    2.3780 ca        1 L31     -0.140000
      6 C6         -0.7470   -0.3280    1.2020 ca        1 L31     -0.111000
      7 C10        -0.9670    0.0820   -1.2460 c3        1 L31     -0.048800
      8 C14         3.4210    0.1730    1.3580 cc        1 L31     -0.118400
      9 C15         3.5740   -0.0480    2.7290 cd        1 L31     -0.089300
     10 N16         2.3290   -0.2660    3.3330 na        1 L31     -0.170400
     11 C18         4.5720    0.4570    0.4940 c3        1 L31     -0.025200
     12 C19         5.8610   -0.0470    1.1620 c3        1 L31      0.092000
     13 N22         5.9890    0.2880    2.5650 n         1 L31     -0.475800
     14 C25         4.8820    0.0110    3.4670 c3        1 L31      0.229200
     15 C26         5.0530   -1.2530    4.2900 ca        1 L31     -0.084300
     16 C28         4.9230   -1.1670    5.6780 ca        1 L31     -0.166000
     17 C29         5.0570   -2.3320    6.4510 ca        1 L31      0.122100
     18 C30         5.3250   -3.5700    5.8510 ca        1 L31     -0.205000
     19 C31         5.4540   -3.6340    4.4660 ca        1 L31     -0.091000
     20 C32         5.3180   -2.4860    3.6860 ca        1 L31     -0.134000
     21 O37         4.9100   -2.1800    7.8110 oh        1 L31     -0.498100
     22 C39         7.1460    0.9100    3.0290 c         1 L31      0.668100
     23 O40         8.0810    1.1530    2.2400 o         1 L31     -0.607100
     24 C41         7.2570    1.2830    4.4860 c3        1 L31     -0.174100
     25 H2          1.7390    0.4000   -1.0580 ha        1 L31      0.135000
     26 H5         -0.5250   -0.6740    3.3290 ha        1 L31      0.133000
     27 H6         -1.8370   -0.4750    1.2190 ha        1 L31      0.130000
     28 H10        -1.7220    0.8980   -1.1220 hc        1 L31      0.041367
     29 H10A       -1.5150   -0.8760   -1.4270 hc        1 L31      0.041367
     30 H10B       -0.3500    0.3090   -2.1500 hc        1 L31      0.041367
     31 H18         4.6440    1.5620    0.3010 hc        1 L31      0.060200
     32 H18A        4.4650   -0.0540   -0.4990 hc        1 L31      0.060200
     33 H19         6.7450    0.3800    0.6070 h1        1 L31      0.062700
     34 H19A        5.8950   -1.1700    1.0620 h1        1 L31      0.062700
     35 H25         4.8090    0.8870    4.1920 h1        1 L31      0.068700
     36 H28         4.7220   -0.2100    6.1810 ha        1 L31      0.150000
     37 H30         5.4320   -4.4750    6.4660 ha        1 L31      0.137000
     38 H31         5.6660   -4.6000    3.9820 ha        1 L31      0.139000
     39 H32         5.4180   -2.5530    2.5920 ha        1 L31      0.148000
     40 HO37        5.0480   -3.0450    8.2240 ho        1 L31      0.422000
     41 H41         6.9590    0.4340    5.1490 hc        1 L31      0.069033
     42 H41A        8.3190    1.5580    4.6990 hc        1 L31      0.069033
     43 H41B        6.6070    2.1660    4.7000 hc        1 L31      0.069033
     44 HN16        2.2020   -0.6530    4.2300 hn        1 L31      0.299700
@<TRIPOS>BOND
     1    1    2 ar  
     2    1    6 ar  
     3    1    7 1   
     4    2    3 ar  
     5    2   25 1   
     6    3    4 ar  
     7    3    8 1   
     8    4    5 ar  
     9    4   10 1   
    10    5    6 ar  
    11    5   26 1   
    12    6   27 1   
    13    7   28 1   
    14    7   29 1   
    15    7   30 1   
    16    8    9 2   
    17    8   11 1   
    18    9   10 1   
    19    9   14 1   
    20   10   44 1   
    21   11   12 1   
    22   11   31 1   
    23   11   32 1   
    24   12   13 1   
    25   12   33 1   
    26   12   34 1   
    27   13   14 1   
    28   13   22 1   
    29   14   15 1   
    30   14   35 1   
    31   15   16 ar  
    32   15   20 ar  
    33   16   17 ar  
    34   16   36 1   
    35   17   18 ar  
    36   17   21 1   
    37   18   19 ar  
    38   18   37 1   
    39   19   20 ar  
    40   19   38 1   
    41   20   39 1   
    42   21   40 1   
    43   22   23 2   
    44   22   24 1   
    45   24   41 1   
    46   24   42 1   
    47   24   43 1   
@<TRIPOS>SUBSTRUCTURE
     1 L31         1 TEMP              0 ****  ****    0 ROOT
