@<TRIPOS>MOLECULE
L31
   44    47     1     0     0
SMALL
bcc


@<TRIPOS>ATOM
      1 C1         -0.1210    0.0050   -0.0320 ca        1 L31     -0.104300
      2 C2          1.2590    0.1640   -0.1090 ca        1 L31     -0.082000
      3 C3          2.0230    0.0590    1.0530 ca        1 L31     -0.079800
      4 C4          1.3690   -0.2080    2.3170 ca        1 L31     -0.045200
      5 C5         -0.0240   -0.3660    2.3850 ca        1 L31     -0.140000
      6 C6         -0.7450   -0.2590    1.2080 ca        1 L31     -0.111000
      7 C10        -0.9630    0.1100   -1.2470 c3        1 L31     -0.048800
      8 C14         3.4330    0.1540    1.3450 cc        1 L31     -0.118400
      9 C15         3.5850   -0.0440    2.7200 cd        1 L31     -0.089300
     10 N16         2.3370   -0.2220    3.3300 na        1 L31     -0.170400
     11 C18         4.5880    0.3970    0.4740 c3        1 L31     -0.025200
     12 C19         5.8670   -0.1220    1.1480 c3        1 L31      0.092000
     13 N22         6.0060    0.2360    2.5450 n         1 L31     -0.475800
     14 C25         4.8960    0.0010    3.4540 c3        1 L31      0.229200
     15 C26         5.0420   -1.2500    4.3010 ca        1 L31     -0.084300
     16 C28         4.9170   -1.1360    5.6870 ca        1 L31     -0.166000
     17 C29         5.0280   -2.2880    6.4810 ca        1 L31      0.122100
     18 C30         5.2670   -3.5430    5.9040 ca        1 L31     -0.205000
     19 C31         5.3910   -3.6360    4.5210 ca        1 L31     -0.091000
     20 C32         5.2780   -2.5000    3.7200 ca        1 L31     -0.134000
     21 O37         4.8880   -2.1070    7.8390 oh        1 L31     -0.498100
     22 C39         7.1770    0.8420    2.9940 c         1 L31      0.668100
     23 O40         8.1160    1.0490    2.1980 o         1 L31     -0.607100
     24 C41         7.3010    1.2400    4.4430 c3        1 L31     -0.174100
     25 H2          1.7500    0.3720   -1.0710 ha        1 L31      0.135000
     26 H5         -0.5250   -0.5680    3.3410 ha        1 L31      0.133000
     27 H6         -1.8390   -0.3810    1.2310 ha        1 L31      0.130000
     28 H10        -1.7000    0.9440   -1.1370 hc        1 L31      0.041367
     29 H10A       -1.5320   -0.8400   -1.4080 hc        1 L31      0.041367
     30 H10B       -0.3430    0.3070   -2.1560 hc        1 L31      0.041367
     31 H18         4.6840    1.4960    0.2590 hc        1 L31      0.060200
     32 H18A        4.4670   -0.1310   -0.5090 hc        1 L31      0.060200
     33 H19         5.8760   -1.2480    1.0690 h1        1 L31      0.062700
     34 H19A        6.7590    0.2740    0.5830 h1        1 L31      0.062700
     35 H25         4.8440    0.8920    4.1620 h1        1 L31      0.068700
     36 H28         4.7390   -0.1650    6.1720 ha        1 L31      0.150000
     37 H30         5.3560   -4.4380    6.5360 ha        1 L31      0.137000
     38 H31         5.5800   -4.6160    4.0550 ha        1 L31      0.139000
     39 H32         5.3730   -2.5900    2.6270 ha        1 L31      0.148000
     40 HO37        5.0080   -2.9670    8.2680 ho        1 L31      0.422000
     41 H41         8.3690    1.4960    4.6490 hc        1 L31      0.069033
     42 H41A        6.9860    0.4110    5.1230 hc        1 L31      0.069033
     43 H41B        6.6700    2.1410    4.6420 hc        1 L31      0.069033
     44 HN16        2.2040   -0.5900    4.2360 hn        1 L31      0.299700
@<TRIPOS>BOND
     1    1    2 ar  
     2    1    6 ar  
     3    1    7 1   
     4    2    3 ar  
     5    2   25 1   
     6    3    4 ar  
     7    3    8 1   
     8    4    5 ar  
     9    4   10 1   
    10    5    6 ar  
    11    5   26 1   
    12    6   27 1   
    13    7   28 1   
    14    7   29 1   
    15    7   30 1   
    16    8    9 2   
    17    8   11 1   
    18    9   10 1   
    19    9   14 1   
    20   10   44 1   
    21   11   12 1   
    22   11   31 1   
    23   11   32 1   
    24   12   13 1   
    25   12   33 1   
    26   12   34 1   
    27   13   14 1   
    28   13   22 1   
    29   14   15 1   
    30   14   35 1   
    31   15   16 ar  
    32   15   20 ar  
    33   16   17 ar  
    34   16   36 1   
    35   17   18 ar  
    36   17   21 1   
    37   18   19 ar  
    38   18   37 1   
    39   19   20 ar  
    40   19   38 1   
    41   20   39 1   
    42   21   40 1   
    43   22   23 2   
    44   22   24 1   
    45   24   41 1   
    46   24   42 1   
    47   24   43 1   
@<TRIPOS>SUBSTRUCTURE
     1 L31         1 TEMP              0 ****  ****    0 ROOT
