@<TRIPOS>MOLECULE
L31
   44    47     1     0     0
SMALL
bcc


@<TRIPOS>ATOM
      1 C1         -0.1160    0.0030   -0.0400 ca        1 L31     -0.104300
      2 C2          1.2640    0.1610   -0.1150 ca        1 L31     -0.082000
      3 C3          2.0260    0.0570    1.0490 ca        1 L31     -0.079800
      4 C4          1.3700   -0.2060    2.3130 ca        1 L31     -0.045200
      5 C5         -0.0240   -0.3630    2.3780 ca        1 L31     -0.140000
      6 C6         -0.7420   -0.2570    1.2000 ca        1 L31     -0.111000
      7 C10        -0.9550    0.1070   -1.2560 c3        1 L31     -0.048800
      8 C14         3.4360    0.1520    1.3430 cc        1 L31     -0.118400
      9 C15         3.5850   -0.0440    2.7190 cd        1 L31     -0.089300
     10 N16         2.3360   -0.2200    3.3270 na        1 L31     -0.170400
     11 C18         4.5920    0.3910    0.4730 c3        1 L31     -0.025200
     12 C19         5.8700   -0.1280    1.1510 c3        1 L31      0.092000
     13 N22         6.0080    0.2330    2.5460 n         1 L31     -0.475800
     14 C25         4.8950    0.0020    3.4550 c3        1 L31      0.229200
     15 C26         5.0380   -1.2480    4.3040 ca        1 L31     -0.084300
     16 C28         4.9100   -1.1300    5.6910 ca        1 L31     -0.166000
     17 C29         5.0180   -2.2810    6.4880 ca        1 L31      0.122100
     18 C30         5.2580   -3.5370    5.9140 ca        1 L31     -0.205000
     19 C31         5.3860   -3.6340    4.5310 ca        1 L31     -0.091000
     20 C32         5.2750   -2.4990    3.7270 ca        1 L31     -0.134000
     21 O37         4.8750   -2.0960    7.8440 oh        1 L31     -0.498100
     22 C39         7.1780    0.8390    2.9970 c         1 L31      0.668100
     23 O40         8.1180    1.0430    2.2020 o         1 L31     -0.607100
     24 C41         7.3000    1.2400    4.4450 c3        1 L31     -0.174100
     25 H2          1.7570    0.3660   -1.0760 ha        1 L31      0.135000
     26 H5         -0.5260   -0.5620    3.3330 ha        1 L31      0.133000
     27 H6         -1.8360   -0.3780    1.2210 ha        1 L31      0.130000
     28 H10        -1.6910    0.9430   -1.1490 hc        1 L31      0.041367
     29 H10A       -0.3340    0.2990   -2.1650 hc        1 L31      0.041367
     30 H10B       -1.5270   -0.8420   -1.4150 hc        1 L31      0.041367
     31 H18         4.4730   -0.1390   -0.5090 hc        1 L31      0.060200
     32 H18A        4.6900    1.4890    0.2560 hc        1 L31      0.060200
     33 H19         5.8780   -1.2540    1.0740 h1        1 L31      0.062700
     34 H19A        6.7630    0.2660    0.5860 h1        1 L31      0.062700
     35 H25         4.8430    0.8940    4.1610 h1        1 L31      0.068700
     36 H28         4.7310   -0.1580    6.1720 ha        1 L31      0.150000
     37 H30         5.3450   -4.4300    6.5480 ha        1 L31      0.137000
     38 H31         5.5750   -4.6140    4.0690 ha        1 L31      0.139000
     39 H32         5.3730   -2.5920    2.6350 ha        1 L31      0.148000
     40 HO37        4.9940   -2.9550    8.2760 ho        1 L31      0.422000
     41 H41         6.9820    0.4130    5.1260 hc        1 L31      0.069033
     42 H41A        8.3680    1.4950    4.6520 hc        1 L31      0.069033
     43 H41B        6.6700    2.1420    4.6410 hc        1 L31      0.069033
     44 HN16        2.2010   -0.5860    4.2330 hn        1 L31      0.299700
@<TRIPOS>BOND
     1    1    2 ar  
     2    1    6 ar  
     3    1    7 1   
     4    2    3 ar  
     5    2   25 1   
     6    3    4 ar  
     7    3    8 1   
     8    4    5 ar  
     9    4   10 1   
    10    5    6 ar  
    11    5   26 1   
    12    6   27 1   
    13    7   28 1   
    14    7   29 1   
    15    7   30 1   
    16    8    9 2   
    17    8   11 1   
    18    9   10 1   
    19    9   14 1   
    20   10   44 1   
    21   11   12 1   
    22   11   31 1   
    23   11   32 1   
    24   12   13 1   
    25   12   33 1   
    26   12   34 1   
    27   13   14 1   
    28   13   22 1   
    29   14   15 1   
    30   14   35 1   
    31   15   16 ar  
    32   15   20 ar  
    33   16   17 ar  
    34   16   36 1   
    35   17   18 ar  
    36   17   21 1   
    37   18   19 ar  
    38   18   37 1   
    39   19   20 ar  
    40   19   38 1   
    41   20   39 1   
    42   21   40 1   
    43   22   23 2   
    44   22   24 1   
    45   24   41 1   
    46   24   42 1   
    47   24   43 1   
@<TRIPOS>SUBSTRUCTURE
     1 L31         1 TEMP              0 ****  ****    0 ROOT
