@<TRIPOS>MOLECULE
L31
   44    47     1     0     0
SMALL
bcc


@<TRIPOS>ATOM
      1 C1         -4.9940    0.5790    0.1900 ca        1 L31     -0.104300
      2 C2         -4.0410   -0.3840    0.5060 ca        1 L31     -0.082000
      3 C3         -2.7200   -0.1930    0.1020 ca        1 L31     -0.079800
      4 C4         -2.3640    0.9980   -0.6420 ca        1 L31     -0.045200
      5 C5         -3.3330    1.9630   -0.9560 ca        1 L31     -0.140000
      6 C6         -4.6320    1.7370   -0.5340 ca        1 L31     -0.111000
      7 C10        -6.4070    0.4080    0.6030 c3        1 L31     -0.048800
      8 C14        -1.5000   -0.9490    0.2530 cc        1 L31     -0.118400
      9 C15        -0.4850   -0.2270   -0.3810 cd        1 L31     -0.089300
     10 N16        -1.0020    0.9350   -0.9660 na        1 L31     -0.170400
     11 C18        -1.2300   -2.2270    0.9200 c3        1 L31     -0.025200
     12 C19         0.2640   -2.3280    1.2650 c3        1 L31      0.092000
     13 N22         1.1620   -1.9380    0.1980 n         1 L31     -0.475800
     14 C25         0.9470   -0.6720   -0.4860 c3        1 L31      0.229200
     15 C26         1.8570    0.4490   -0.0170 ca        1 L31     -0.084300
     16 C28         2.6040    1.1450   -0.9700 ca        1 L31     -0.166000
     17 C29         3.4330    2.1980   -0.5530 ca        1 L31      0.122100
     18 C30         3.5260    2.5540    0.8000 ca        1 L31     -0.205000
     19 C31         2.7760    1.8450    1.7350 ca        1 L31     -0.091000
     20 C32         1.9440    0.8000    1.3340 ca        1 L31     -0.134000
     21 O37         4.1360    2.8470   -1.5430 oh        1 L31     -0.498100
     22 C39         2.1890   -2.7920   -0.1960 c         1 L31      0.668100
     23 O40         2.3520   -3.8810    0.3920 o         1 L31     -0.607100
     24 C41         3.0990   -2.3900   -1.3290 c3        1 L31     -0.174100
     25 H2         -4.3180   -1.2890    1.0660 ha        1 L31      0.135000
     26 H5         -3.0690    2.8680   -1.5200 ha        1 L31      0.133000
     27 H6         -5.4120    2.4790   -0.7640 ha        1 L31      0.130000
     28 H10        -6.7290    1.2640    1.2480 hc        1 L31      0.041367
     29 H10A       -7.0730    0.3800   -0.2950 hc        1 L31      0.041367
     30 H10B       -6.5510   -0.5390    1.1780 hc        1 L31      0.041367
     31 H18        -1.8190   -2.3160    1.8710 hc        1 L31      0.060200
     32 H18A       -1.5310   -3.0800    0.2540 hc        1 L31      0.060200
     33 H19         0.4670   -1.6680    2.1570 h1        1 L31      0.062700
     34 H19A        0.4950   -3.3930    1.5590 h1        1 L31      0.062700
     35 H25         1.1560   -0.8440   -1.5920 h1        1 L31      0.068700
     36 H28         2.5610    0.8860   -2.0370 ha        1 L31      0.150000
     37 H30         4.1810    3.3770    1.1150 ha        1 L31      0.137000
     38 H31         2.8400    2.1140    2.8010 ha        1 L31      0.139000
     39 H32         1.3530    0.2540    2.0840 ha        1 L31      0.148000
     40 HO37        4.6810    3.5290   -1.1240 ho        1 L31      0.422000
     41 H41         3.4680   -1.3430   -1.2060 hc        1 L31      0.069033
     42 H41A        3.9740   -3.0860   -1.3430 hc        1 L31      0.069033
     43 H41B        2.5540   -2.4780   -2.3000 hc        1 L31      0.069033
     44 HN16       -0.4570    1.6980   -1.2720 hn        1 L31      0.299700
@<TRIPOS>BOND
     1    1    2 ar  
     2    1    6 ar  
     3    1    7 1   
     4    2    3 ar  
     5    2   25 1   
     6    3    4 ar  
     7    3    8 1   
     8    4    5 ar  
     9    4   10 1   
    10    5    6 ar  
    11    5   26 1   
    12    6   27 1   
    13    7   28 1   
    14    7   29 1   
    15    7   30 1   
    16    8    9 2   
    17    8   11 1   
    18    9   10 1   
    19    9   14 1   
    20   10   44 1   
    21   11   12 1   
    22   11   31 1   
    23   11   32 1   
    24   12   13 1   
    25   12   33 1   
    26   12   34 1   
    27   13   14 1   
    28   13   22 1   
    29   14   15 1   
    30   14   35 1   
    31   15   16 ar  
    32   15   20 ar  
    33   16   17 ar  
    34   16   36 1   
    35   17   18 ar  
    36   17   21 1   
    37   18   19 ar  
    38   18   37 1   
    39   19   20 ar  
    40   19   38 1   
    41   20   39 1   
    42   21   40 1   
    43   22   23 2   
    44   22   24 1   
    45   24   41 1   
    46   24   42 1   
    47   24   43 1   
@<TRIPOS>SUBSTRUCTURE
     1 L31         1 TEMP              0 ****  ****    0 ROOT
