@<TRIPOS>MOLECULE
L34
   53    56     1     0     0
SMALL
bcc


@<TRIPOS>ATOM
      1 N2A         0.0920   -0.6970    9.2000 nh        1 L34     -0.913500
      2 N1         -1.2130   -0.1580    7.2820 nb        1 L34     -0.827000
      3 C2          0.0360   -0.3620    7.8290 ca        1 L34      0.891900
      4 N3          1.2430   -0.2110    7.1720 nb        1 L34     -0.788000
      5 C4          1.1730    0.1840    5.8750 ca        1 L34      0.739600
      6 O4A         2.4100    0.3640    5.3280 oh        1 L34     -0.596300
      7 C4A        -0.0590    0.4090    5.1820 ca        1 L34     -0.358000
      8 N5         -0.1040    0.8380    3.8350 n         1 L34     -0.305000
      9 C6         -1.3890    1.3770    3.3610 c3        1 L34      0.046700
     10 C7         -2.6290    0.7550    4.0380 c3        1 L34      0.173800
     11 N8         -2.4890    0.6650    5.4660 nh        1 L34     -0.845900
     12 C8A        -1.2510    0.2690    5.9830 ca        1 L34      0.699200
     13 CX          0.4050   -0.0480    2.7910 c         1 L34      0.760500
     14 OX          1.4170   -0.7570    2.9620 o         1 L34     -0.642500
     15 C9         -1.4300    1.0500    1.8340 c3        1 L34      0.063000
     16 N10        -0.3910    0.0420    1.6310 n         1 L34     -0.331000
     17 C1B         0.0510   -0.2230    0.3070 ca        1 L34      0.022600
     18 C2B         1.2340   -0.9430    0.0480 ca        1 L34     -0.174000
     19 C3B         1.5970   -1.2290   -1.2680 ca        1 L34     -0.081000
     20 C4B         0.8070   -0.8030   -2.3330 ca        1 L34     -0.140600
     21 C5B        -0.3730   -0.0920   -2.0870 ca        1 L34     -0.081000
     22 C6B        -0.7500    0.1960   -0.7800 ca        1 L34     -0.174000
     23 C7B         1.1560   -1.1300   -3.7590 c         1 L34      0.659700
     24 O7B         1.2600   -2.3280   -4.1100 o         1 L34     -0.647100
     25 N           1.4000   -0.0590   -4.5770 n         1 L34     -0.486900
     26 CA          1.1380   -0.0730   -6.0050 c3        1 L34     -0.038300
     27 CB         -0.2820    0.4200   -6.3420 c3        1 L34     -0.076400
     28 CG         -1.3840   -0.5030   -5.8710 c3        1 L34     -0.190400
     29 CD         -2.5970    0.2510   -5.3170 c         1 L34      0.908600
     30 OE1        -3.6640    0.2880   -5.9970 o         1 L34     -0.873800
     31 OE2        -2.5160    0.7890   -4.1650 o         1 L34     -0.873800
     32 C           2.1570    0.8450   -6.7660 c         1 L34      0.919600
     33 O           2.6010    0.4080   -7.8640 o         1 L34     -0.849300
     34 OXT         2.4720    1.9620   -6.2660 o         1 L34     -0.849300
     35 HN21       -0.7320   -1.1260    9.5580 hn        1 L34      0.409300
     36 HN22        0.9420   -1.1280    9.4880 hn        1 L34      0.409300
     37 HO4         2.3340    0.4180    4.3590 ho        1 L34      0.469000
     38 H6         -1.3750    2.4870    3.5340 h1        1 L34      0.090700
     39 H71        -3.5190    1.4110    3.8210 h1        1 L34      0.056200
     40 H72        -2.8250   -0.2610    3.5840 h1        1 L34      0.056200
     41 HN8        -3.3020    0.3610    5.9570 hn        1 L34      0.430800
     42 H91        -2.4230    0.6250    1.5270 h1        1 L34      0.076200
     43 H92        -1.2310    1.9790    1.2340 h1        1 L34      0.076200
     44 H2B         1.8770   -1.2900    0.8700 ha        1 L34      0.141500
     45 H3B         2.5150   -1.8030   -1.4660 ha        1 L34      0.193500
     46 H5B        -1.0280    0.2340   -2.9370 ha        1 L34      0.193500
     47 H6B        -1.6920    0.7450   -0.6300 ha        1 L34      0.141500
     48 HN          1.3230    0.8530   -4.1780 hn        1 L34      0.308500
     49 HA          1.2670   -1.1290   -6.3750 h1        1 L34      0.066700
     50 HB1        -0.4280    1.4420   -5.9010 hc        1 L34      0.047200
     51 HB2        -0.3300    0.5320   -7.4570 hc        1 L34      0.047200
     52 HG1        -1.7210   -1.1510   -6.7200 hc        1 L34      0.023200
     53 HG2        -1.0110   -1.1850   -5.0610 hc        1 L34      0.023200
@<TRIPOS>BOND
     1    1    3 1   
     2    1   35 1   
     3    1   36 1   
     4    2    3 ar  
     5    2   12 ar  
     6    3    4 ar  
     7    4    5 ar  
     8    5    6 1   
     9    5    7 ar  
    10    6   37 1   
    11    7    8 1   
    12    7   12 ar  
    13    8    9 1   
    14    8   13 1   
    15    9   10 1   
    16    9   15 1   
    17    9   38 1   
    18   10   11 1   
    19   10   39 1   
    20   10   40 1   
    21   11   12 1   
    22   11   41 1   
    23   13   14 2   
    24   13   16 1   
    25   15   16 1   
    26   15   42 1   
    27   15   43 1   
    28   16   17 1   
    29   17   18 ar  
    30   17   22 ar  
    31   18   19 ar  
    32   18   44 1   
    33   19   20 ar  
    34   19   45 1   
    35   20   21 ar  
    36   20   23 1   
    37   21   22 ar  
    38   21   46 1   
    39   22   47 1   
    40   23   24 2   
    41   23   25 1   
    42   25   26 1   
    43   25   48 1   
    44   26   27 1   
    45   26   32 1   
    46   26   49 1   
    47   27   28 1   
    48   27   50 1   
    49   27   51 1   
    50   28   29 1   
    51   28   52 1   
    52   28   53 1   
    53   29   30 1   
    54   29   31 1   
    55   32   33 1   
    56   32   34 1   
@<TRIPOS>SUBSTRUCTURE
     1 L34         1 TEMP              0 ****  ****    0 ROOT
