@<TRIPOS>MOLECULE
L34
   55    58     1     0     0
SMALL
bcc


@<TRIPOS>ATOM
      1 N2A         0.2460   -1.1720    0.0750 n4        1 L34     -0.813300
      2 N1          2.1670   -0.3300    1.2710 nb        1 L34     -0.758000
      3 C2          1.7060   -0.8410    0.0990 ca        1 L34      0.730900
      4 N3          2.3770   -1.0940   -1.0590 nb        1 L34     -0.779000
      5 C4          3.7070   -0.7790   -1.0310 ca        1 L34      0.703600
      6 O4A         4.4830   -1.0600   -2.1110 oh        1 L34     -0.534300
      7 C4A         4.3400   -0.1880    0.1100 ca        1 L34     -0.179000
      8 N5          5.6960    0.1280    0.1240 n         1 L34     -0.323000
      9 C6          6.3260    0.4280    1.4140 c3        1 L34      0.044700
     10 C7          5.3680    1.0780    2.4370 c3        1 L34      0.181800
     11 N8          4.0710    0.4500    2.4620 nh        1 L34     -0.841900
     12 C8A         3.5070   -0.0040    1.2890 ca        1 L34      0.689200
     13 CX          6.2650    1.0010   -0.9000 c         1 L34      0.785500
     14 OX          5.7910    1.0700   -2.0420 o         1 L34     -0.577500
     15 C9          7.5010    1.3970    1.0690 c3        1 L34      0.059000
     16 N10         7.3230    1.7580   -0.3400 n         1 L34     -0.324000
     17 C1B         8.4690    2.1540   -1.0800 ca        1 L34      0.048600
     18 C2B         8.5220    2.0540   -2.4860 ca        1 L34     -0.167000
     19 C3B         9.6540    2.4850   -3.1700 ca        1 L34     -0.049000
     20 C4B        10.7470    3.0050   -2.4700 ca        1 L34     -0.183600
     21 C5B        10.6980    3.1320   -1.0790 ca        1 L34     -0.049000
     22 C6B         9.5650    2.7130   -0.3880 ca        1 L34     -0.167000
     23 C7B        11.9480    3.4490   -3.2230 c         1 L34      0.573700
     24 O7B        11.9550    4.3790   -4.0240 o         1 L34     -0.453100
     25 N          13.1630    2.6530   -2.9610 n4        1 L34     -0.681800
     26 CA         14.4650    3.2790   -3.3710 c3        1 L34     -0.024500
     27 CB         15.4590    3.3290   -2.2150 c3        1 L34     -0.075400
     28 CG         15.1120    4.3260   -1.1340 c3        1 L34     -0.194400
     29 CD         13.9010    3.9490   -0.2960 c         1 L34      0.884600
     30 OE1        13.2050    4.8490    0.2480 o         1 L34     -0.853800
     31 OE2        13.5510    2.7170   -0.1880 o         1 L34     -0.853800
     32 C          15.0880    2.4520   -4.5730 c         1 L34      0.923600
     33 O          14.4370    1.4300   -4.9420 o         1 L34     -0.791800
     34 OXT        16.1510    2.8900   -5.0550 o         1 L34     -0.791800
     35 HN21       -0.1730   -0.9740    0.9920 hn        1 L34      0.475467
     36 HN22        0.1340   -2.1660   -0.1510 hn        1 L34      0.475467
     37 HO4         3.9300   -1.2580   -2.8900 ho        1 L34      0.461000
     38 H6          6.7250   -0.5390    1.8330 h1        1 L34      0.104700
     39 H71         5.2570    2.1780    2.2000 h1        1 L34      0.080200
     40 H72         5.8200    0.9800    3.4650 h1        1 L34      0.080200
     41 HN8         3.4900    0.6230    3.2530 hn        1 L34      0.464800
     42 H91         8.4860    0.8830    1.2490 h1        1 L34      0.089200
     43 H92         7.4590    2.3340    1.6870 h1        1 L34      0.089200
     44 H2B         7.6770    1.6420   -3.0600 ha        1 L34      0.155000
     45 H3B         9.6850    2.4120   -4.2690 ha        1 L34      0.201500
     46 H5B        11.5570    3.5530   -0.5000 ha        1 L34      0.201500
     47 H6B         9.5570    2.8380    0.7060 ha        1 L34      0.155000
     48 HN         13.0920    1.7740   -3.5270 hn        1 L34      0.494300
     49 HA         14.2640    4.3200   -3.7490 hx        1 L34      0.096700
     50 HB1        16.4470    3.6020   -2.6800 hc        1 L34      0.073700
     51 HB2        15.5690    2.3100   -1.7560 hc        1 L34      0.073700
     52 HG1        14.9350    5.3380   -1.5820 hc        1 L34      0.050700
     53 HG2        15.9830    4.4170   -0.4340 hc        1 L34      0.050700
     54 H2A3       -0.2120   -0.6020   -0.6460 hn        1 L34      0.475467
     55 H2         13.2060    2.3980   -1.9380 hn        1 L34      0.494300
@<TRIPOS>BOND
     1    1    3 1   
     2    1   35 1   
     3    1   36 1   
     4    1   54 1   
     5    2    3 ar  
     6    2   12 ar  
     7    3    4 ar  
     8    4    5 ar  
     9    5    6 1   
    10    5    7 ar  
    11    6   37 1   
    12    7    8 1   
    13    7   12 ar  
    14    8    9 1   
    15    8   13 1   
    16    9   10 1   
    17    9   15 1   
    18    9   38 1   
    19   10   11 1   
    20   10   39 1   
    21   10   40 1   
    22   11   12 1   
    23   11   41 1   
    24   13   14 2   
    25   13   16 1   
    26   15   16 1   
    27   15   42 1   
    28   15   43 1   
    29   16   17 1   
    30   17   18 ar  
    31   17   22 ar  
    32   18   19 ar  
    33   18   44 1   
    34   19   20 ar  
    35   19   45 1   
    36   20   21 ar  
    37   20   23 1   
    38   21   22 ar  
    39   21   46 1   
    40   22   47 1   
    41   23   24 2   
    42   23   25 1   
    43   25   26 1   
    44   25   48 1   
    45   25   55 1   
    46   26   27 1   
    47   26   32 1   
    48   26   49 1   
    49   27   28 1   
    50   27   50 1   
    51   27   51 1   
    52   28   29 1   
    53   28   52 1   
    54   28   53 1   
    55   29   30 1   
    56   29   31 1   
    57   32   33 1   
    58   32   34 1   
@<TRIPOS>SUBSTRUCTURE
     1 L34         1 TEMP              0 ****  ****    0 ROOT
