@<TRIPOS>MOLECULE
L34
   54    57     1     0     0
SMALL
bcc


@<TRIPOS>ATOM
      1 N2A        -0.1310    0.0950    0.1480 nv        1 L34     -0.922500
      2 N1          1.9600   -0.2970    1.2110 nb        1 L34     -0.821000
      3 C2          1.2570   -0.0880    0.0400 ca        1 L34      0.915900
      4 N3          1.8140    0.0050   -1.2240 nb        1 L34     -0.849000
      5 C4          3.1670   -0.0390   -1.2870 ca        1 L34      0.731600
      6 O4A         3.7650    0.0180   -2.5150 oh        1 L34     -0.572300
      7 C4A         4.0120   -0.1630   -0.1420 ca        1 L34     -0.314000
      8 N5          5.4180   -0.1950   -0.2450 n         1 L34     -0.283000
      9 C6          6.1540   -0.6700    0.9350 c3        1 L34      0.048700
     10 C7          5.4580   -0.3600    2.2780 c3        1 L34      0.175800
     11 N8          4.0550   -0.6810    2.2580 nu        1 L34     -0.844900
     12 C8A         3.3230   -0.3470    1.1130 ca        1 L34      0.697200
     13 CX          6.1130    0.9650   -0.7730 c         1 L34      0.769500
     14 OX          5.6540    1.7150   -1.6460 o         1 L34     -0.586500
     15 C9          7.5340    0.0570    0.8750 c3        1 L34      0.060000
     16 N10         7.3800    1.1130   -0.1240 n         1 L34     -0.349000
     17 C1B         8.5400    1.5990   -0.7700 ca        1 L34      0.064600
     18 C2B         8.4970    2.2000   -2.0460 ca        1 L34     -0.175500
     19 C3B         9.6580    2.7080   -2.6180 ca        1 L34     -0.067500
     20 C4B        10.8870    2.6290   -1.9530 ca        1 L34     -0.146600
     21 C5B        10.9330    2.0490   -0.6830 ca        1 L34     -0.067500
     22 C6B         9.7810    1.5390   -0.0950 ca        1 L34     -0.175500
     23 C7B        12.0960    3.1840   -2.6400 c         1 L34      0.645700
     24 O7B        11.9610    4.1060   -3.4790 o         1 L34     -0.642100
     25 N          13.3310    2.7040   -2.2630 ns        1 L34     -0.518900
     26 CA         14.5060    2.8730   -3.1000 c3        1 L34     -0.069300
     27 CB         15.4580    3.9630   -2.5990 c3        1 L34     -0.076400
     28 CG         14.9080    5.3660   -2.7700 c3        1 L34     -0.188400
     29 CD         14.8600    6.1350   -1.4880 c         1 L34      0.637100
     30 OE1        14.2560    5.5870   -0.3900 oh        1 L34     -0.603100
     31 OE2        15.2980    7.2710   -1.2790 o         1 L34     -0.540000
     32 C          15.3410    1.5340   -3.2040 c         1 L34      0.914600
     33 O          15.0030    0.5620   -2.4730 o         1 L34     -0.820800
     34 OXT        16.2930    1.5440   -4.0250 o         1 L34     -0.820800
     35 HN21       -0.5530   -0.2520    0.9780 hn        1 L34      0.421300
     36 HN22       -0.6520   -0.0350   -0.6880 hn        1 L34      0.421300
     37 HO4         3.1060    0.2610   -3.1880 ho        1 L34      0.442000
     38 H6          6.2860   -1.7820    0.8250 h1        1 L34      0.093700
     39 H71         5.9390   -0.9860    3.0820 h1        1 L34      0.054200
     40 H72         5.6230    0.7280    2.5350 h1        1 L34      0.054200
     41 HN8         3.5850   -0.5960    3.1340 hn        1 L34      0.433800
     42 H91         7.7920    0.5240    1.8630 h1        1 L34      0.066700
     43 H92         8.3410   -0.6730    0.5950 h1        1 L34      0.066700
     44 H2B         7.5470    2.2800   -2.6000 ha        1 L34      0.146500
     45 H3B         9.6200    3.1880   -3.6110 ha        1 L34      0.154500
     46 H5B        11.8800    1.9880   -0.1220 ha        1 L34      0.154500
     47 H6B         9.8570    1.0950    0.9090 ha        1 L34      0.146500
     48 HN         13.3470    1.8270   -1.7700 hn        1 L34      0.327500
     49 HA         14.1810    3.1430   -4.1470 h1        1 L34      0.065700
     50 HB1        16.4000    3.8530   -3.2040 hc        1 L34      0.063700
     51 HB2        15.7330    3.7690   -1.5290 hc        1 L34      0.063700
     52 HG1        15.5390    5.9410   -3.4980 hc        1 L34      0.088700
     53 HG2        13.8610    5.3300   -3.1870 hc        1 L34      0.088700
     54 H2         13.9320    4.7000   -0.6110 ho        1 L34      0.442000
@<TRIPOS>BOND
     1    1    3 1   
     2    1   35 1   
     3    1   36 1   
     4    2    3 ar  
     5    2   12 ar  
     6    3    4 ar  
     7    4    5 ar  
     8    5    6 1   
     9    5    7 ar  
    10    6   37 1   
    11    7    8 1   
    12    7   12 ar  
    13    8    9 1   
    14    8   13 1   
    15    9   10 1   
    16    9   15 1   
    17    9   38 1   
    18   10   11 1   
    19   10   39 1   
    20   10   40 1   
    21   11   12 1   
    22   11   41 1   
    23   13   14 2   
    24   13   16 1   
    25   15   16 1   
    26   15   42 1   
    27   15   43 1   
    28   16   17 1   
    29   17   18 ar  
    30   17   22 ar  
    31   18   19 ar  
    32   18   44 1   
    33   19   20 ar  
    34   19   45 1   
    35   20   21 ar  
    36   20   23 1   
    37   21   22 ar  
    38   21   46 1   
    39   22   47 1   
    40   23   24 2   
    41   23   25 1   
    42   25   26 1   
    43   25   48 1   
    44   26   27 1   
    45   26   32 1   
    46   26   49 1   
    47   27   28 1   
    48   27   50 1   
    49   27   51 1   
    50   28   29 1   
    51   28   52 1   
    52   28   53 1   
    53   29   30 1   
    54   29   31 2   
    55   30   54 1   
    56   32   33 1   
    57   32   34 1   
@<TRIPOS>SUBSTRUCTURE
     1 L34         1 TEMP              0 ****  ****    0 ROOT
