@<TRIPOS>MOLECULE
L34
   54    57     1     0     0
SMALL
bcc


@<TRIPOS>ATOM
      1 N2A        -0.1270    0.1100    0.1930 nh        1 L34     -0.922500
      2 N1          1.9710   -0.3230    1.2230 nb        1 L34     -0.821000
      3 C2          1.2580   -0.0780    0.0660 ca        1 L34      0.915900
      4 N3          1.8020    0.0490   -1.2000 nb        1 L34     -0.849000
      5 C4          3.1550   -0.0000   -1.2780 ca        1 L34      0.731600
      6 O4A         3.7410    0.0880   -2.5100 oh        1 L34     -0.572300
      7 C4A         4.0110   -0.1610   -0.1460 ca        1 L34     -0.314000
      8 N5          5.4160   -0.1980   -0.2650 n         1 L34     -0.283000
      9 C6          6.1600   -0.7100    0.8930 c3        1 L34      0.048700
     10 C7          5.4800   -0.4350    2.2530 c3        1 L34      0.175800
     11 N8          4.0750   -0.7480    2.2370 nh        1 L34     -0.844900
     12 C8A         3.3330   -0.3770    1.1100 ca        1 L34      0.697200
     13 CX          6.1110    0.9740   -0.7660 c         1 L34      0.769500
     14 OX          5.6460    1.7510   -1.6120 o         1 L34     -0.586500
     15 C9          7.5440    0.0110    0.8410 c3        1 L34      0.060000
     16 N10         7.3850    1.0970   -0.1270 n         1 L34     -0.349000
     17 C1B         8.5410    1.5960   -0.7700 ca        1 L34      0.064600
     18 C2B         8.4880    2.2360   -2.0270 ca        1 L34     -0.175500
     19 C3B         9.6460    2.7550   -2.5960 ca        1 L34     -0.067500
     20 C4B        10.8810    2.6490   -1.9460 ca        1 L34     -0.146600
     21 C5B        10.9380    2.0300   -0.6960 ca        1 L34     -0.067500
     22 C6B         9.7890    1.5080   -0.1100 ca        1 L34     -0.175500
     23 C7B        12.0860    3.2180   -2.6290 c         1 L34      0.645700
     24 O7B        11.9470    4.1650   -3.4390 o         1 L34     -0.642100
     25 N          13.3220    2.7200   -2.2810 n         1 L34     -0.518900
     26 CA         14.4890    2.9070   -3.1250 c3        1 L34     -0.069300
     27 CB         15.4530    3.9760   -2.6020 c3        1 L34     -0.076400
     28 CG         14.9090    5.3870   -2.7250 c3        1 L34     -0.188400
     29 CD         14.8790    6.1180   -1.4200 c         1 L34      0.637100
     30 OE1        14.2840    5.5400   -0.3330 oh        1 L34     -0.603100
     31 OE2        15.3260    7.2450   -1.1810 o         1 L34     -0.540000
     32 C          15.3150    1.5680   -3.2790 c         1 L34      0.914600
     33 O          14.9790    0.5760   -2.5740 o         1 L34     -0.820800
     34 OXT        16.2580    1.5980   -4.1090 o         1 L34     -0.820800
     35 HN21       -0.6580    0.0060   -0.6410 hn        1 L34      0.421300
     36 HN22       -0.5430   -0.2590    1.0180 hn        1 L34      0.421300
     37 HO4         3.0760    0.3540   -3.1690 ho        1 L34      0.442000
     38 H6          6.2850   -1.8190    0.7510 h1        1 L34      0.093700
     39 H71         5.6530    0.6450    2.5390 h1        1 L34      0.054200
     40 H72         5.9660   -1.0850    3.0330 h1        1 L34      0.054200
     41 HN8         3.6150   -0.6860    3.1200 hn        1 L34      0.433800
     42 H91         8.3440   -0.7140    0.5310 h1        1 L34      0.066700
     43 H92         7.8150    0.4490    1.8380 h1        1 L34      0.066700
     44 H2B         7.5330    2.3370   -2.5680 ha        1 L34      0.146500
     45 H3B         9.5990    3.2640   -3.5740 ha        1 L34      0.154500
     46 H5B        11.8900    1.9470   -0.1470 ha        1 L34      0.154500
     47 H6B         9.8730    1.0350    0.8790 ha        1 L34      0.146500
     48 HN         13.3380    1.8280   -1.8150 hn        1 L34      0.327500
     49 HA         14.1540    3.2110   -4.1600 h1        1 L34      0.065700
     50 HB1        15.7380    3.7490   -1.5420 hc        1 L34      0.063700
     51 HB2        16.3870    3.8800   -3.2210 hc        1 L34      0.063700
     52 HG1        15.5360    5.9800   -3.4420 hc        1 L34      0.088700
     53 HG2        13.8580    5.3700   -3.1320 hc        1 L34      0.088700
     54 H2         13.9520    4.6620   -0.5770 ho        1 L34      0.442000
@<TRIPOS>BOND
     1    1    3 1   
     2    1   35 1   
     3    1   36 1   
     4    2    3 ar  
     5    2   12 ar  
     6    3    4 ar  
     7    4    5 ar  
     8    5    6 1   
     9    5    7 ar  
    10    6   37 1   
    11    7    8 1   
    12    7   12 ar  
    13    8    9 1   
    14    8   13 1   
    15    9   10 1   
    16    9   15 1   
    17    9   38 1   
    18   10   11 1   
    19   10   39 1   
    20   10   40 1   
    21   11   12 1   
    22   11   41 1   
    23   13   14 2   
    24   13   16 1   
    25   15   16 1   
    26   15   42 1   
    27   15   43 1   
    28   16   17 1   
    29   17   18 ar  
    30   17   22 ar  
    31   18   19 ar  
    32   18   44 1   
    33   19   20 ar  
    34   19   45 1   
    35   20   21 ar  
    36   20   23 1   
    37   21   22 ar  
    38   21   46 1   
    39   22   47 1   
    40   23   24 2   
    41   23   25 1   
    42   25   26 1   
    43   25   48 1   
    44   26   27 1   
    45   26   32 1   
    46   26   49 1   
    47   27   28 1   
    48   27   50 1   
    49   27   51 1   
    50   28   29 1   
    51   28   52 1   
    52   28   53 1   
    53   29   30 1   
    54   29   31 2   
    55   30   54 1   
    56   32   33 1   
    57   32   34 1   
@<TRIPOS>SUBSTRUCTURE
     1 L34         1 TEMP              0 ****  ****    0 ROOT
