@<TRIPOS>MOLECULE
L34
   53    52     1     0     0
SMALL
bcc


@<TRIPOS>ATOM
      1 N2A        -7.5860    0.7130    4.9140 n3        1 L34     -0.309000
      2 N1         -6.6910    1.6850    2.8710 n1        1 L34     -0.294000
      3 C2         -6.5340    0.8480    3.9750 c2        1 L34      0.174000
      4 N3         -5.3190    0.1280    4.1600 n2        1 L34     -0.321000
      5 C4         -4.2940    0.2560    3.2510 c1        1 L34      0.221000
      6 O4A        -3.1180   -0.4990    3.4060 o         1 L34     -0.194000
      7 C4A        -4.4400    1.0670    2.1770 c2        1 L34     -0.148000
      8 N5         -3.2760    1.4310    1.2920 n         1 L34     -0.199000
      9 C6         -3.4290    2.5170    0.4830 c3        1 L34     -0.031000
     10 C7         -4.7930    2.7420   -0.0840 c3        1 L34     -0.066000
     11 N8         -5.7930    2.7670    0.7790 n3        1 L34     -0.285000
     12 C8A        -5.7040    1.8150    1.9860 c1        1 L34      0.163000
     13 CX         -2.2300    0.5560    0.6980 c2        1 L34      0.357000
     14 OX         -1.9600   -0.5710    1.0520 o         1 L34     -0.328000
     15 C9         -2.4340    2.3490   -0.7030 c3        1 L34     -0.057000
     16 N10        -1.6350    1.2610   -0.4130 n         1 L34     -0.234000
     17 C1B        -0.3730    0.9520   -1.0290 c2        1 L34      0.028000
     18 C2B         0.8010    1.0750   -0.2980 c2        1 L34     -0.170000
     19 C3B         2.0100    0.6480   -0.8440 c1        1 L34     -0.080000
     20 C4B         2.0400    0.1000   -2.1160 c1        1 L34     -0.121000
     21 C5B         0.8660   -0.0230   -2.8470 c1        1 L34     -0.084000
     22 C6B        -0.3420    0.4040   -2.3020 c1        1 L34     -0.177000
     23 C7B         3.3400   -0.5160   -2.6520 c2        1 L34      0.334000
     24 O7B         3.3670   -0.9970   -3.7690 o         1 L34     -0.410000
     25 N           4.4740   -0.6590   -1.7830 n         1 L34     -0.297000
     26 CA          5.3550   -1.7720   -1.9370 c3        1 L34     -0.064000
     27 CB          6.5100   -1.6440   -0.9600 c3        1 L34     -0.155000
     28 CG          6.8100   -3.0050   -0.3490 c3        1 L34     -0.219000
     29 CD          7.8220   -3.7340   -1.2110 c2        1 L34      0.328000
     30 OE1         7.4350   -4.3960   -2.2130 o         1 L34     -0.609000
     31 OE2         9.0390   -3.7460   -0.8810 o         1 L34     -0.609000
     32 C           4.6050   -3.0450   -1.6640 c2        1 L34      0.338000
     33 O           3.8430   -3.1240   -0.6660 o         1 L34     -0.585500
     34 OXT         4.7030   -4.0160   -2.4580 o         1 L34     -0.585500
     35 HN21       -8.4120    1.0620    4.7300 hn        1 L34      0.201500
     36 HN22       -7.4420    0.2740    5.7010 hn        1 L34      0.201500
     37 HO4        -3.3280   -1.3360    3.6010 ho        1 L34      0.235000
     38 H6         -3.1720    3.3170    0.9910 h1        1 L34      0.127000
     39 H71        -4.7800    3.6090   -0.5440 h1        1 L34      0.095000
     40 H72        -4.9700    2.0200   -0.7150 h1        1 L34      0.095000
     41 HN8        -6.5770    2.6270    0.3380 hn        1 L34      0.222000
     42 H91        -1.8600    3.1430   -0.7260 h1        1 L34      0.112500
     43 H92        -2.9570    2.1320   -1.5030 h1        1 L34      0.112500
     44 H2B         0.7800    1.4610    0.5980 ha        1 L34      0.134000
     45 H3B         2.8430    0.7860   -0.3520 ha        1 L34      0.246000
     46 H5B         0.8820   -0.4360   -3.7280 ha        1 L34      0.137000
     47 H6B        -1.1680    0.3180   -2.8160 ha        1 L34      0.146000
     48 HN          4.6560   -0.0160   -1.1620 hn        1 L34      0.222000
     49 HA          5.7010   -1.7880   -2.8490 h1        1 L34      0.106000
     50 HB1         7.3030   -1.3160   -1.4320 hc        1 L34      0.086000
     51 HB2         6.2690   -1.0150   -0.2510 hc        1 L34      0.086000
     52 HG1         5.9860   -3.5280   -0.3000 hc        1 L34      0.062500
     53 HG2         7.1760   -2.8850    0.5510 hc        1 L34      0.062500
@<TRIPOS>BOND
     1    1    3 1   
     2    1   35 1   
     3    1   36 1   
     4    2    3 1   
     5    3    4 1   
     6    4    5 1   
     7    5    7 1   
     8    6   37 1   
     9    7    8 1   
    10    7   12 1   
    11    8    9 1   
    12    8   13 1   
    13    9   10 1   
    14    9   15 1   
    15    9   38 1   
    16   10   11 1   
    17   10   39 1   
    18   10   40 1   
    19   11   12 1   
    20   11   41 1   
    21   13   14 1   
    22   13   16 1   
    23   15   16 1   
    24   15   42 1   
    25   15   43 1   
    26   16   17 1   
    27   17   18 1   
    28   17   22 1   
    29   18   19 1   
    30   18   44 1   
    31   19   45 1   
    32   20   21 1   
    33   20   23 1   
    34   21   46 1   
    35   22   47 1   
    36   23   24 1   
    37   23   25 1   
    38   25   26 1   
    39   25   48 1   
    40   26   27 1   
    41   26   32 1   
    42   26   49 1   
    43   27   28 1   
    44   27   50 1   
    45   27   51 1   
    46   28   29 1   
    47   28   52 1   
    48   28   53 1   
    49   29   30 1   
    50   29   31 1   
    51   32   33 1   
    52   32   34 1   
@<TRIPOS>SUBSTRUCTURE
     1 L34         1 TEMP              0 ****  ****    0 ROOT
