@<TRIPOS>MOLECULE
L35
   40    34     1     0     0
SMALL
bcc


@<TRIPOS>ATOM
      1 C1          3.1100   -1.8170    3.0790 c1        1 L35      0.117000
      2 C2          4.3490   -1.4460    3.5750 c1        1 L35     -0.179500
      3 C3          5.3510   -2.3900    3.7120 c1        1 L35     -0.027000
      4 C4          5.1150   -3.7070    3.3520 c1        1 L35     -0.179500
      5 C5          3.8780   -4.0780    2.8570 c1        1 L35     -0.027000
      6 C6          2.8750   -3.1330    2.7210 c1        1 L35     -0.144000
      7 C7          1.2820   -0.6850    1.8980 c1        1 L35      0.383000
      8 C8         -2.4050    0.8590   -1.3190 c1        1 L35      0.134000
      9 C9         -2.2660   -0.4090   -0.7770 c1        1 L35     -0.139500
     10 C10        -1.3600   -0.6290    0.2490 c1        1 L35     -0.139500
     11 C11        -0.5930    0.4160    0.7320 c1        1 L35     -0.051000
     12 C12        -0.7320    1.6850    0.1890 c1        1 L35     -0.130000
     13 C13        -1.6370    1.9050   -0.8350 c1        1 L35     -0.182000
     14 C14        -3.0610    1.9250   -3.3310 c3        1 L35      0.001000
     15 C15        -4.1130    1.8470   -4.4120 c3        1 L35     -0.204000
     16 C16        -2.9150    3.3550   -2.8720 c3        1 L35     -0.204000
     17 C17        -1.7420    1.4330   -3.8760 c2        1 L35      0.324000
     18 N1          2.0460   -0.8870    3.0770 n2        1 L35     -0.334000
     19 N2          0.1920    0.2330    1.9050 n3        1 L35     -0.268000
     20 O1          1.5420   -1.3110    0.8900 o         1 L35     -0.366000
     21 O2         -3.4480    1.1190   -2.2390 os        1 L35     -0.209000
     22 O3         -1.3530    1.8070   -5.0140 o         1 L35     -0.553500
     23 O4         -1.0500    0.6180   -3.2100 o         1 L35     -0.553500
     24 CL1         3.5590   -5.7480    2.4760 cl        1 L35     -0.019500
     25 CL2         6.8800   -1.9410    4.4160 cl        1 L35     -0.019500
     26 H2          4.5100   -0.5230    3.8440 ha        1 L35      0.150000
     27 H4          5.8060   -4.3820    3.4930 ha        1 L35      0.150000
     28 H6          2.0020   -3.3950    2.3710 ha        1 L35      0.197000
     29 H9         -2.7930   -1.1490   -1.1280 ha        1 L35      0.143000
     30 H10        -1.2390   -1.5300    0.6080 ha        1 L35      0.143000
     31 H12        -0.1910    2.4240    0.5300 ha        1 L35      0.118000
     32 H13        -1.7400    2.7970   -1.2110 ha        1 L35      0.209000
     33 H151       -4.5430    0.9670   -4.3860 hc        1 L35      0.073500
     34 H152       -4.7850    2.5420   -4.2640 hc        1 L35      0.073500
     35 H153       -3.6920    1.9800   -5.2880 hc        1 L35      0.073500
     36 H161       -2.3090    3.3920   -2.1100 hc        1 L35      0.073500
     37 H162       -2.5530    3.8970   -3.6040 hc        1 L35      0.073500
     38 H163       -3.7940    3.7060   -2.6100 hc        1 L35      0.073500
     39 HN1         1.8290   -0.4420    3.8420 hn        1 L35      0.220000
     40 HN2        -0.0110    0.6930    2.6660 hn        1 L35      0.201000
@<TRIPOS>BOND
     1    1    6 1   
     2    1   18 1   
     3    2    3 1   
     4    2   26 1   
     5    3   25 1   
     6    4    5 1   
     7    4   27 1   
     8    5   24 1   
     9    6   28 1   
    10    7   19 1   
    11    7   20 1   
    12    8   13 1   
    13    8   21 1   
    14    9   10 1   
    15    9   29 1   
    16   10   30 1   
    17   11   12 1   
    18   11   19 1   
    19   12   31 1   
    20   13   32 1   
    21   14   15 1   
    22   14   16 1   
    23   14   17 1   
    24   14   21 1   
    25   15   33 1   
    26   15   34 1   
    27   15   35 1   
    28   16   36 1   
    29   16   37 1   
    30   16   38 1   
    31   17   22 1   
    32   17   23 1   
    33   18   39 1   
    34   19   40 1   
@<TRIPOS>SUBSTRUCTURE
     1 L35         1 TEMP              0 ****  ****    0 ROOT
