@<TRIPOS>MOLECULE
L35
   40    41     1     0     0
SMALL
bcc


@<TRIPOS>ATOM
      1 C1          3.7940    0.4200   -0.5200 ca        1 L35      0.102600
      2 C2          4.9250    1.2520   -0.7130 ca        1 L35     -0.167000
      3 C3          6.1880    0.8040   -0.3350 ca        1 L35      0.050400
      4 C4          6.3760   -0.4510    0.2450 ca        1 L35     -0.158000
      5 C5          5.2550   -1.2630    0.4380 ca        1 L35      0.050400
      6 C6          3.9750   -0.8540    0.0650 ca        1 L35     -0.167000
      7 C7          1.3000    0.4760   -0.4220 c         1 L35      0.759100
      8 C8         -3.8160   -0.1190   -0.3840 ca        1 L35      0.138100
      9 C9         -3.3990    0.5090   -1.5700 ca        1 L35     -0.142000
     10 C10        -2.0790    0.9070   -1.7210 ca        1 L35     -0.137500
     11 C11        -1.1450    0.7020   -0.6790 ca        1 L35     -0.012400
     12 C12        -1.5670    0.0680    0.5050 ca        1 L35     -0.137500
     13 C13        -2.8900   -0.3370    0.6480 ca        1 L35     -0.142000
     14 C14        -6.0910    0.2410    0.2790 c3        1 L35      0.017800
     15 C15        -5.7830    0.4990    1.7400 c3        1 L35     -0.100600
     16 C16        -6.1880    1.5380   -0.4990 c3        1 L35     -0.100600
     17 C17        -7.4400   -0.5740    0.1300 c         1 L35      0.940600
     18 N1          2.5490    0.8700   -0.9830 n         1 L35     -0.476100
     19 N2          0.1710    1.2120   -0.8310 n         1 L35     -0.432100
     20 O1          1.2420   -0.4430    0.4210 o         1 L35     -0.600100
     21 O3         -7.8190   -1.2380    1.1290 o         1 L35     -0.815800
     22 O4         -8.0550   -0.4650   -0.9610 o         1 L35     -0.815800
     23 CL1         5.4610   -2.7980    1.1420 cl        1 L35     -0.093900
     24 CL2         7.5350    1.8170   -0.5820 cl        1 L35     -0.093900
     25 H2          4.8160    2.2510   -1.1620 ha        1 L35      0.169500
     26 H4          7.3780   -0.7920    0.5440 ha        1 L35      0.158000
     27 H6          3.1110   -1.5200    0.2370 ha        1 L35      0.169500
     28 H9         -4.1350    0.6730   -2.3720 ha        1 L35      0.153000
     29 H10        -1.7720    1.3930   -2.6600 ha        1 L35      0.133500
     30 H12        -0.8490   -0.1230    1.3180 ha        1 L35      0.133500
     31 H13        -3.2260   -0.8350    1.5710 ha        1 L35      0.153000
     32 H151       -6.6070    1.1040    2.1870 hc        1 L35      0.031200
     33 H152       -5.7300   -0.4760    2.2830 hc        1 L35      0.031200
     34 H153       -4.8160    1.0450    1.8590 hc        1 L35      0.031200
     35 H161       -5.2270    2.1060   -0.4640 hc        1 L35      0.031200
     36 H162       -6.4460    1.3100   -1.5620 hc        1 L35      0.031200
     37 H163       -7.0010    2.1660   -0.0650 hc        1 L35      0.031200
     38 HN1         2.5820    1.7430   -1.4630 hn        1 L35      0.306500
     39 HN2         0.2770    1.7800   -1.6460 hn        1 L35      0.293500
     40 O2         -5.0910   -0.6340   -0.2970 os        1 L35     -0.323900
@<TRIPOS>BOND
     1    1    2 ar  
     2    1    6 ar  
     3    1   18 1   
     4    2    3 ar  
     5    2   25 1   
     6    3    4 ar  
     7    3   24 1   
     8    4    5 ar  
     9    4   26 1   
    10    5    6 ar  
    11    5   23 1   
    12    6   27 1   
    13    7   18 1   
    14    7   19 1   
    15    7   20 2   
    16    8    9 ar  
    17    8   13 ar  
    18    8   40 1   
    19    9   10 ar  
    20    9   28 1   
    21   10   11 ar  
    22   10   29 1   
    23   11   12 ar  
    24   11   19 1   
    25   12   13 ar  
    26   12   30 1   
    27   13   31 1   
    28   14   15 1   
    29   14   16 1   
    30   14   17 1   
    31   14   40 1   
    32   15   32 1   
    33   15   33 1   
    34   15   34 1   
    35   16   35 1   
    36   16   36 1   
    37   16   37 1   
    38   17   21 1   
    39   17   22 1   
    40   18   38 1   
    41   19   39 1   
@<TRIPOS>SUBSTRUCTURE
     1 L35         1 TEMP              0 ****  ****    0 ROOT
