@<TRIPOS>MOLECULE
L35
   40    40     1     0     0
SMALL
bcc


@<TRIPOS>ATOM
      1 C1          0.2540   -0.8280   -0.1160 c2        1 L35      0.103000
      2 C2          1.3140   -1.7790    0.0450 c2        1 L35     -0.349000
      3 C3          2.1590   -1.6870    1.0970 c1        1 L35     -0.198000
      4 C4          2.1170    0.1770    3.0780 c1        1 L35     -0.202000
      5 C5          2.0930    1.0040    3.9500 c1        1 L35     -0.372000
      6 C6         -0.1170    0.2590    0.6410 c2        1 L35     -0.181000
      7 C7         -1.5740    0.1650   -1.0900 c2        1 L35      0.246000
      8 C8         -6.3860    3.1350   -3.3860 c3        1 L35      0.296000
      9 C9         -5.4190    1.9210   -3.4670 c3        1 L35      0.070000
     10 C10        -4.4630    1.8980   -2.4400 c1        1 L35     -0.584000
     11 C11        -3.5150    1.6780   -1.6340 c2        1 L35      0.014000
     12 C12        -7.0530    3.7710   -0.9070 c1        1 L35     -0.186000
     13 C13        -6.7680    3.4980   -2.0360 c1        1 L35     -0.151000
     14 C14        -6.8010    4.8840   -4.9290 c3        1 L35      0.047000
     15 C15        -7.2950    6.1660   -4.2830 c3        1 L35     -0.212000
     16 C16        -6.1740    5.1360   -6.2870 c3        1 L35     -0.212000
     17 C17        -7.9040    3.8360   -5.0000 c2        1 L35      0.288000
     18 N1         -0.6640   -0.8870   -1.2080 na        1 L35     -0.309000
     19 N2         -2.6040    0.5190   -1.8600 nh        1 L35     -0.233000
     20 O1         -1.2510    0.8940    0.0570 os        1 L35     -0.114000
     21 O3         -8.9370    3.7420   -5.6510 o         1 L35     -0.307000
     22 O4         -7.5870    2.8080   -4.1510 os        1 L35     -0.270000
     23 CL1         2.0600    2.1130    5.1210 cl        1 L35      0.060000
     24 CL2         3.4050   -2.8620    1.2250 cl        1 L35     -0.171000
     25 H2          1.3810   -2.5620   -0.7290 ha        1 L35      0.088000
     26 H4          2.1530   -0.6360    2.2320 ha        1 L35      0.356000
     27 H6          0.2460    0.7260    1.5520 h4        1 L35      0.235000
     28 H9         -6.0810    1.0090   -3.4320 hc        1 L35      0.077500
     29 H10        -4.9410    1.9760   -4.4850 hc        1 L35      0.077500
     30 H12        -3.1730    2.1860   -0.7210 h4        1 L35      0.134000
     31 H13        -7.2930    4.0020    0.0980 ha        1 L35      0.215000
     32 H151       -6.4530    6.8940   -4.2080 hc        1 L35      0.091500
     33 H152       -7.6730    5.9550   -3.2540 hc        1 L35      0.091500
     34 H153       -8.1150    6.6060   -4.8990 hc        1 L35      0.091500
     35 H161       -5.3470    5.8780   -6.1860 hc        1 L35      0.091500
     36 H162       -5.7520    4.1880   -6.6990 hc        1 L35      0.091500
     37 H163       -6.9500    5.5310   -6.9850 hc        1 L35      0.091500
     38 HN1        -0.6490   -1.5680   -1.9180 hn        1 L35      0.260000
     39 HN2        -2.7840   -0.0460   -2.6690 hn        1 L35      0.196000
     40 O2         -5.8140    4.2540   -4.0920 os        1 L35     -0.265000
@<TRIPOS>BOND
     1    1    2 1   
     2    1    6 1   
     3    1   18 1   
     4    2    3 1   
     5    2   25 1   
     6    3   24 1   
     7    4    5 1   
     8    4   26 1   
     9    5   23 1   
    10    6   20 1   
    11    6   27 1   
    12    7   18 1   
    13    7   19 1   
    14    7   20 1   
    15    8    9 1   
    16    8   13 1   
    17    8   22 1   
    18    8   40 1   
    19    9   10 1   
    20    9   28 1   
    21    9   29 1   
    22   10   11 1   
    23   11   19 1   
    24   11   30 1   
    25   12   13 1   
    26   12   31 1   
    27   14   15 1   
    28   14   16 1   
    29   14   17 1   
    30   14   40 1   
    31   15   32 1   
    32   15   33 1   
    33   15   34 1   
    34   16   35 1   
    35   16   36 1   
    36   16   37 1   
    37   17   21 1   
    38   17   22 1   
    39   18   38 1   
    40   19   39 1   
@<TRIPOS>SUBSTRUCTURE
     1 L35         1 TEMP              0 ****  ****    0 ROOT
