@<TRIPOS>MOLECULE
L35
   40    40     1     0     0
SMALL
bcc


@<TRIPOS>ATOM
      1 C1          0.2520   -0.8140   -0.0940 c2        1 L35      0.103000
      2 C2          1.3130   -1.7640    0.0750 c2        1 L35     -0.349000
      3 C3          2.1580   -1.6640    1.1260 c1        1 L35     -0.198000
      4 C4          2.1180    0.2170    3.0910 c1        1 L35     -0.202000
      5 C5          2.0940    1.0520    3.9560 c1        1 L35     -0.372000
      6 C6         -0.1180    0.2790    0.6550 c2        1 L35     -0.181000
      7 C7         -1.5750    0.1720   -1.0760 c2        1 L35      0.246000
      8 C8         -6.3860    3.1250   -3.3940 c3        1 L35      0.296000
      9 C9         -5.4190    1.9100   -3.4660 c3        1 L35      0.070000
     10 C10        -4.4630    1.8940   -2.4400 c1        1 L35     -0.584000
     11 C11        -3.5150    1.6810   -1.6310 c2        1 L35      0.014000
     12 C12        -7.0550    3.7770   -0.9210 c1        1 L35     -0.186000
     13 C13        -6.7690    3.4970   -2.0470 c1        1 L35     -0.151000
     14 C14        -6.8000    4.8650   -4.9490 c3        1 L35      0.047000
     15 C15        -7.2940    6.1500   -4.3120 c3        1 L35     -0.212000
     16 C16        -6.1720    5.1070   -6.3090 c3        1 L35     -0.212000
     17 C17        -7.9030    3.8160   -5.0140 c2        1 L35      0.288000
     18 N1         -0.6650   -0.8820   -1.1850 na        1 L35     -0.309000
     19 N2         -2.6050    0.5200   -1.8490 nu        1 L35     -0.233000
     20 O1         -1.2520    0.9090    0.0650 os        1 L35     -0.114000
     21 O3         -8.9350    3.7170   -5.6650 o         1 L35     -0.307000
     22 O4         -7.5860    2.7930   -4.1580 os        1 L35     -0.270000
     23 Cl1         2.0620    2.1710    5.1170 cl        1 L35      0.060000
     24 Cl2         3.4040   -2.8380    1.2630 cl        1 L35     -0.171000
     25 H2          1.3790   -2.5540   -0.6920 ha        1 L35      0.088000
     26 H4          2.1520   -0.6030    2.2520 ha        1 L35      0.356000
     27 H6          0.2460    0.7530    1.5620 h4        1 L35      0.235000
     28 H9         -6.0820    0.9990   -3.4250 hc        1 L35      0.077500
     29 H10        -4.9410    1.9580   -4.4850 hc        1 L35      0.077500
     30 H12        -3.1730    2.1960   -0.7220 h4        1 L35      0.134000
     31 H13        -7.2960    4.0150    0.0830 ha        1 L35      0.215000
     32 H151       -6.4520    6.8790   -4.2400 hc        1 L35      0.091500
     33 H152       -7.6730    5.9460   -3.2810 hc        1 L35      0.091500
     34 H153       -8.1130    6.5860   -4.9300 hc        1 L35      0.091500
     35 H161       -5.3450    5.8500   -6.2110 hc        1 L35      0.091500
     36 H162       -5.7490    4.1570   -6.7140 hc        1 L35      0.091500
     37 H163       -6.9470    5.4980   -7.0090 hc        1 L35      0.091500
     38 HN1        -0.6500   -1.5680   -1.8900 hn        1 L35      0.260000
     39 HN2        -2.7840   -0.0520   -2.6530 hn        1 L35      0.196000
     40 O2         -5.8130    4.2390   -4.1070 os        1 L35     -0.265000
@<TRIPOS>BOND
     1    1    2 1   
     2    1    6 1   
     3    1   18 1   
     4    2    3 1   
     5    2   25 1   
     6    3   24 1   
     7    4    5 1   
     8    4   26 1   
     9    5   23 1   
    10    6   20 1   
    11    6   27 1   
    12    7   18 1   
    13    7   19 1   
    14    7   20 1   
    15    8    9 1   
    16    8   13 1   
    17    8   22 1   
    18    8   40 1   
    19    9   10 1   
    20    9   28 1   
    21    9   29 1   
    22   10   11 1   
    23   11   19 1   
    24   11   30 1   
    25   12   13 1   
    26   12   31 1   
    27   14   15 1   
    28   14   16 1   
    29   14   17 1   
    30   14   40 1   
    31   15   32 1   
    32   15   33 1   
    33   15   34 1   
    34   16   35 1   
    35   16   36 1   
    36   16   37 1   
    37   17   21 1   
    38   17   22 1   
    39   18   38 1   
    40   19   39 1   
@<TRIPOS>SUBSTRUCTURE
     1 L35         1 TEMP              0 ****  ****    0 ROOT
