@<TRIPOS>MOLECULE
L35
   42    40     1     0     0
SMALL
bcc


@<TRIPOS>ATOM
      1 C1          0.8860    1.6900   -0.0630 cx        1 L35      0.109000
      2 C2          1.1010    0.4860    0.7810 cu        1 L35     -0.113000
      3 C3          1.8830   -0.4100    1.3460 c2        1 L35     -0.086000
      4 C4          1.0330   -2.9320    3.4560 c1        1 L35      0.185000
      5 C5          0.9890   -3.9140    4.3300 c2        1 L35     -0.446000
      6 C6         -0.2340    0.9490    0.6100 cu        1 L35     -0.399000
      7 C7         -1.4900    0.8870    0.8750 c1        1 L35      0.333000
      8 C8         -5.9230    2.9910   -3.0660 c2        1 L35      0.264000
      9 C9         -5.6420    2.1640   -1.8700 c3        1 L35     -0.164000
     10 C10        -4.2400    1.7660   -1.7110 c2        1 L35     -0.171000
     11 C11        -3.2490    2.0930   -2.6150 c2        1 L35      0.020000
     12 C12        -3.6070    2.9120   -3.7570 c2        1 L35      0.076000
     13 C13        -4.8940    3.3400   -3.9670 c2        1 L35     -0.278000
     14 C14        -7.6040    4.1140   -4.3260 c2        1 L35     -0.043000
     15 C15        -7.8180    5.4200   -4.1520 c2        1 L35     -0.156000
     16 C16        -7.8850    3.2870   -5.5170 c3        1 L35     -0.203000
     17 C17        -9.6460    6.6120   -8.0750 c1        1 L35      0.427000
     18 N1          0.9680    1.7170   -1.4830 n3        1 L35     -0.355000
     19 N2         -1.9610    1.5900   -2.5230 n3        1 L35     -0.324000
     20 O1         -2.6720    0.8460    1.0390 o         1 L35     -0.184000
     21 O3         -9.0510    6.0630   -7.1960 o         1 L35     -0.213000
     22 O4        -10.2350    7.1550   -8.9470 o         1 L35     -0.213000
     23 CL1        -0.3730   -4.7270    4.8890 cl        1 L35      0.056000
     24 CL2         3.5560   -0.4180    1.1150 cl        1 L35     -0.002000
     25 H2          1.1560    2.6810    0.3810 h1        1 L35      0.148000
     26 H4          1.5200   -1.2200    2.0080 h4        1 L35      0.202000
     27 H6          1.9350   -4.2830    4.7780 h4        1 L35      0.212000
     28 H9         -5.9870    2.7230   -0.9430 hc        1 L35      0.202000
     29 H10        -6.2970    1.2350   -1.9070 hc        1 L35      0.202000
     30 H12        -4.0210    1.1670   -0.8070 ha        1 L35      0.191000
     31 H13        -2.8170    3.1970   -4.4790 ha        1 L35      0.179000
     32 H151       -5.1390    3.9630   -4.8460 ha        1 L35      0.189000
     33 H152       -7.6000    5.9480   -3.2140 ha        1 L35      0.162500
     34 H153       -8.2510    6.0260   -4.9660 ha        1 L35      0.162500
     35 H161       -6.9560    2.7780   -5.8760 hc        1 L35      0.115333
     36 H162       -8.6480    2.5050   -5.2760 hc        1 L35      0.115333
     37 H163       -8.2840    3.9370   -6.3380 hc        1 L35      0.115333
     38 HN1         1.7880    2.2110   -1.7810 hn        1 L35      0.173500
     39 HN2        -1.2400    2.1200   -2.9620 hn        1 L35      0.226000
     40 H121        0.9620    0.7980   -1.8800 hn        1 L35      0.173500
     41 H22        -1.7050    1.1880   -1.6460 hn        1 L35      0.226000
     42 O2         -7.2010    3.3530   -3.1830 os        1 L35     -0.112000
@<TRIPOS>BOND
     1    1    2 1   
     2    1    6 1   
     3    1   18 1   
     4    1   25 1   
     5    2    3 1   
     6    2    6 1   
     7    3   24 1   
     8    3   26 1   
     9    4    5 1   
    10    5   23 1   
    11    5   27 1   
    12    6    7 1   
    13    7   20 1   
    14    8    9 1   
    15    8   13 1   
    16    8   42 1   
    17    9   10 1   
    18    9   28 1   
    19    9   29 1   
    20   10   11 1   
    21   10   30 1   
    22   11   12 1   
    23   11   19 1   
    24   12   13 1   
    25   12   31 1   
    26   13   32 1   
    27   14   15 1   
    28   14   16 1   
    29   14   42 1   
    30   15   33 1   
    31   15   34 1   
    32   16   35 1   
    33   16   36 1   
    34   16   37 1   
    35   17   21 1   
    36   17   22 1   
    37   18   38 1   
    38   18   40 1   
    39   19   39 1   
    40   19   41 1   
@<TRIPOS>SUBSTRUCTURE
     1 L35         1 TEMP              0 ****  ****    0 ROOT
