@<TRIPOS>MOLECULE
L37
   48    45     1     0     0
SMALL
bcc


@<TRIPOS>ATOM
      1 N2A         2.1920   -6.7570    0.0190 n3        1 L37     -0.313000
      2 N1          1.4040   -5.0000   -1.4280 n1        1 L37     -0.255000
      3 C2          2.2980   -5.9970   -1.1740 c1        1 L37      0.189000
      4 N3          3.2820   -6.2770   -2.0750 n1        1 L37     -0.326000
      5 C4          3.3720   -5.5710   -3.2110 c1        1 L37      0.160000
      6 O4A         4.3820   -5.8690   -4.1460 oh        1 L37     -0.263000
      7 N5A         2.5940   -3.8020   -4.6520 n3        1 L37     -0.273000
      8 C5          2.4780   -4.5720   -3.4670 c2        1 L37     -0.224000
      9 C6          1.4930   -4.2930   -2.5640 c2        1 L37      0.254000
     10 N7          0.5090   -3.3120   -2.8680 n         1 L37     -0.342000
     11 C8          0.1320   -2.3560   -1.8870 c2        1 L37      0.404000
     12 O8A         0.6500   -2.3770   -0.7880 o         1 L37     -0.329000
     13 N9         -0.8970   -1.4190   -2.1680 n         1 L37     -0.283000
     14 C1B        -1.3190   -0.5070   -1.1660 c2        1 L37      0.012000
     15 C2B        -1.8060   -0.9820    0.0420 c2        1 L37     -0.158000
     16 C3B        -2.1720   -0.0920    1.0400 c1        1 L37     -0.089000
     17 C4B        -2.0510    1.2730    0.8300 c1        1 L37     -0.115000
     18 C5B        -1.5650    1.7480   -0.3780 c1        1 L37     -0.080000
     19 C6B        -1.1990    0.8580   -1.3760 c1        1 L37     -0.174000
     20 C7B        -2.3770    2.2400    1.9460 c2        1 L37      0.333000
     21 O7B        -2.7440    1.8200    3.0250 o         1 L37     -0.412000
     22 N          -2.1860    3.6310    1.7550 n         1 L37     -0.296000
     23 CA         -2.0730    4.4910    2.8770 c3        1 L37     -0.064000
     24 CB         -0.8570    5.3780    2.7120 c3        1 L37     -0.154000
     25 CG          0.3120    4.7740    3.4590 c3        1 L37     -0.219000
     26 CD          1.4910    5.7190    3.3980 c2        1 L37      0.328000
     27 OE1         1.7170    6.5060    4.3550 o         1 L37     -0.609000
     28 OE2         2.2680    5.6940    2.4080 o         1 L37     -0.609000
     29 C          -3.3130    5.3510    2.9800 c2        1 L37      0.338000
     30 O          -4.0260    5.5530    1.9620 o         1 L37     -0.585000
     31 OXT        -3.6180    5.8870    4.0770 o         1 L37     -0.585000
     32 HN21        2.5590   -7.5920    0.0620 hn        1 L37      0.213500
     33 HN22        1.7720   -6.4040    0.7500 hn        1 L37      0.213500
     34 HO4         5.1740   -5.6440   -3.8090 ho        1 L37      0.238000
     35 HN51        2.2840   -2.9420   -4.6710 hn        1 L37      0.157500
     36 HN52        3.0050   -4.1560   -5.3890 hn        1 L37      0.157500
     37 HN7         0.1050   -3.3100   -3.6850 hn        1 L37      0.256000
     38 HN9        -1.3020   -1.4180   -2.9850 hn        1 L37      0.215000
     39 H2B        -1.8900   -1.9430    0.1900 ha        1 L37      0.146000
     40 H3B        -2.5140   -0.4270    1.8910 ha        1 L37      0.138000
     41 H5B        -1.5100    2.7090   -0.5380 ha        1 L37      0.246000
     42 H6B        -0.8560    1.1920   -2.2270 ha        1 L37      0.132000
     43 HN         -2.1530    3.9740    0.9120 hn        1 L37      0.224000
     44 HA         -1.9790    3.9570    3.6900 h1        1 L37      0.106000
     45 HB1        -0.6350    5.4520    1.7620 hc        1 L37      0.086500
     46 HB2        -1.0510    6.2660    3.0720 hc        1 L37      0.086500
     47 HG1         0.5570    3.9220    3.0470 hc        1 L37      0.063000
     48 HG2         0.0610    4.6250    4.3920 hc        1 L37      0.063000
@<TRIPOS>BOND
     1    1    3 1   
     2    1   32 1   
     3    1   33 1   
     4    2    9 1   
     5    3    4 1   
     6    5    6 1   
     7    5    8 1   
     8    6   34 1   
     9    7    8 1   
    10    7   35 1   
    11    7   36 1   
    12    8    9 1   
    13    9   10 1   
    14   10   11 1   
    15   10   37 1   
    16   11   12 1   
    17   11   13 1   
    18   13   14 1   
    19   13   38 1   
    20   14   15 1   
    21   14   19 1   
    22   15   16 1   
    23   15   39 1   
    24   16   40 1   
    25   17   18 1   
    26   17   20 1   
    27   18   41 1   
    28   19   42 1   
    29   20   21 1   
    30   20   22 1   
    31   22   23 1   
    32   22   43 1   
    33   23   24 1   
    34   23   29 1   
    35   23   44 1   
    36   24   25 1   
    37   24   45 1   
    38   24   46 1   
    39   25   26 1   
    40   25   47 1   
    41   25   48 1   
    42   26   27 1   
    43   26   28 1   
    44   29   30 1   
    45   29   31 1   
@<TRIPOS>SUBSTRUCTURE
     1 L37         1 TEMP              0 ****  ****    0 ROOT
