@<TRIPOS>MOLECULE
L37
   49    49     1     0     0
SMALL
bcc


@<TRIPOS>ATOM
      1 N2A         1.7640   -2.0130    2.8640 nv        1 L37     -0.894500
      2 N1          3.2840   -0.2370    2.4450 nb        1 L37     -0.835000
      3 C2          2.2220   -1.0080    2.0080 ca        1 L37      0.938900
      4 N3          1.6320   -0.8980    0.7530 nb        1 L37     -0.853000
      5 C4          2.1850    0.0210   -0.0690 ca        1 L37      0.674600
      6 O4A         1.6610    0.1700   -1.3340 oh        1 L37     -0.633300
      7 C5          3.2740    0.8780    0.2610 ca        1 L37     -0.299000
      8 C6          3.7960    0.7010    1.6000 ca        1 L37      0.650200
      9 N7          4.8490    1.5070    2.0320 ns        1 L37     -0.558400
     10 C8          5.3360    1.6190    3.3680 c         1 L37      0.772100
     11 O8A         5.8450    2.7140    3.6680 o         1 L37     -0.557100
     12 N9          5.4100    0.4890    4.2340 ns        1 L37     -0.389100
     13 C1B         4.6350    0.4860    5.4020 ce        1 L37      0.029500
     14 C2B         4.4710   -0.7800    6.1570 ce        1 L37     -0.166000
     15 C3B         3.2940   -0.9520    6.7990 c2        1 L37     -0.096200
     16 C4B         2.2700    0.1290    7.0090 c3        1 L37     -0.115300
     17 C5B         2.8890    1.4900    6.7860 c2        1 L37     -0.100300
     18 C6B         3.8990    1.4760    5.9350 c1        1 L37     -0.139800
     19 C7B         0.9870   -0.1420    6.2360 c         1 L37      0.679100
     20 O7B         0.8600   -1.1480    5.4890 o         1 L37     -0.722100
     21 N          -0.0150    0.7720    6.3620 nt        1 L37     -0.620000
     22 CA         -2.3460    2.3110   12.5360 ce        1 L37     -0.329200
     23 CB         -1.9560    2.5470   11.2750 c2        1 L37     -0.028200
     24 CG         -0.5470    2.6540   10.8520 c3        1 L37     -0.184200
     25 CD         -0.3420    2.1270    9.4270 c         1 L37      0.913600
     26 OE1         0.8230    1.7650    9.0840 o         1 L37     -0.854300
     27 OE2        -1.3220    2.0800    8.6270 o         1 L37     -0.854300
     28 C          -3.7400    2.2040   12.9600 c         1 L37      0.641300
     29 O          -4.7210    1.8520   12.0680 oh        1 L37     -0.602100
     30 OXT        -4.1840    2.3860   14.1000 o         1 L37     -0.534000
     31 HN21        1.9750   -1.8790    3.8380 hn        1 L37      0.439800
     32 HN22        0.8310   -2.3200    2.6960 hn        1 L37      0.439800
     33 HO4         0.9090   -0.4350   -1.4440 ho        1 L37      0.443000
     34 HN51        3.0680    2.4480   -0.9440 hn        1 L37      0.354300
     35 HN52        4.2210    1.3960   -1.4100 hn        1 L37      0.354300
     36 HN7         5.0550    2.3000    1.4560 hn        1 L37      0.351500
     37 HN9         5.3980   -0.4000    3.7680 hn        1 L37      0.305500
     38 H2B         5.2350   -1.5630    6.0880 ha        1 L37      0.129000
     39 H3B         3.0140   -1.9330    7.2140 ha        1 L37      0.134000
     40 H5B         1.9910    0.1420    8.1160 hc        1 L37      0.156700
     41 H6B         2.5320    2.3160    7.4150 ha        1 L37      0.187000
     42 HN          0.0110    1.4370    7.1180 hn        1 L37      0.336000
     43 HA         -4.3300    1.6750   11.2010 ho        1 L37      0.432000
     44 HB1        -1.6210    2.2020   13.3580 ha        1 L37      0.149000
     45 HB2        -2.6790    2.6750   10.4440 ha        1 L37      0.150000
     46 HG1         0.1400    2.1110   11.5490 hc        1 L37      0.062200
     47 HG2        -0.2460    3.7360   10.8490 hc        1 L37      0.062200
     48 N5A         3.8060    1.8510   -0.6160 nv        1 L37     -0.758200
     49 H2         -0.9080    0.5460    5.9980 hn        1 L37      0.336000
@<TRIPOS>BOND
     1    1    3 1   
     2    1   31 1   
     3    1   32 1   
     4    2    3 ar  
     5    2    8 ar  
     6    3    4 ar  
     7    4    5 ar  
     8    5    6 1   
     9    5    7 ar  
    10    6   33 1   
    11    7    8 ar  
    12    7   48 1   
    13    8    9 1   
    14    9   10 1   
    15    9   36 1   
    16   10   11 2   
    17   10   12 1   
    18   12   13 1   
    19   12   37 1   
    20   13   14 1   
    21   13   18 2   
    22   14   15 2   
    23   14   38 1   
    24   15   16 1   
    25   15   39 1   
    26   16   17 1   
    27   16   19 1   
    28   16   40 1   
    29   17   18 2   
    30   17   41 1   
    31   19   20 2   
    32   19   21 1   
    33   21   42 1   
    34   21   49 1   
    35   22   23 2   
    36   22   28 1   
    37   22   44 1   
    38   23   24 1   
    39   23   45 1   
    40   24   25 1   
    41   24   46 1   
    42   24   47 1   
    43   25   26 1   
    44   25   27 1   
    45   28   29 1   
    46   28   30 2   
    47   29   43 1   
    48   34   48 1   
    49   35   48 1   
@<TRIPOS>SUBSTRUCTURE
     1 L37         1 TEMP              0 ****  ****    0 ROOT
