@<TRIPOS>MOLECULE
L37
   53    51     1     0     0
SMALL
bcc


@<TRIPOS>ATOM
      1 N2A        19.5790  -35.1710 -817.8270 nh        1 L37     -0.851800
      2 N1         22.4750  -32.4200 -815.9920 n1        1 L37     -0.302800
      3 C2         20.2900  -34.0600 -818.0750 c2        1 L37      0.787100
      4 N3         19.7340  -32.9720 -818.6190 ne        1 L37     -0.810300
      5 C4         20.3240  -31.7550 -818.7170 ce        1 L37      0.542700
      6 O4A        19.7910  -30.9230 -819.6680 oh        1 L37     -0.517100
      7 C5         21.3370  -31.1730 -817.9360 cf        1 L37     -0.229700
      8 C6         21.9610  -31.8620 -816.8750 ch        1 L37      0.170500
      9 N7         -7.0500   14.5570  367.7330 n         1 L37     -0.598000
     10 C8         -7.0340   13.8500  366.5810 c         1 L37      0.657100
     11 O8A        -7.9850   13.4800  365.8870 o         1 L37     -0.485100
     12 N9         -5.6600   13.4220  365.9990 n4        1 L37     -0.565600
     13 C1B        -5.2180   14.3630  364.9490 ce        1 L37      0.180300
     14 C2B        -5.8870   14.4180  363.7660 cf        1 L37     -0.080000
     15 C3B        -5.4850   15.3080  362.6940 cf        1 L37      0.005000
     16 C4B        -6.1410   15.3360  361.5150 ce        1 L37     -0.233200
     17 C5B        -3.1270   15.8030  365.5340 c1        1 L37      0.086500
     18 C6B        -4.0930   15.1360  365.2820 cg        1 L37     -0.325300
     19 C7B        -5.7090   16.2520  360.4540 c         1 L37      0.545300
     20 O7B        -4.7870   17.0580  360.4820 o         1 L37     -0.405100
     21 N          -6.5040   16.2070  359.1730 n4        1 L37     -0.673800
     22 CA         -6.1680   15.0040  358.3470 c3        1 L37      0.113800
     23 CB         -7.3240   14.5450  357.4650 c3        1 L37     -0.118400
     24 CG         -8.4290   13.8650  358.2140 cx        1 L37      0.055100
     25 CD         -8.2000   13.2010  359.4880 c         1 L37      0.700600
     26 OE1        -8.7550   14.4700  359.5310 os        1 L37     -0.492900
     27 OE2        -7.8510   12.4740  360.3820 o         1 L37     -0.472500
     28 C          -8.8030   18.7380  357.0680 c1        1 L37      0.921000
     29 O          -9.4440   19.5750  356.5400 o         1 L37     -0.459000
     30 OXT        -8.1530   17.8830  357.6060 o         1 L37     -0.459000
     31 HN21       21.3860  -34.1360 -817.8470 h5        1 L37      0.039800
     32 HN22       20.0470  -35.9910 -817.5080 hn        1 L37      0.472300
     33 HO4        19.0750  -31.3650 -820.1650 ho        1 L37      0.495000
     34 HN51       21.5710  -29.2520 -817.2880 hn        1 L37      0.460133
     35 HN52       22.7670  -29.7770 -818.3340 hn        1 L37      0.460133
     36 HN7        -7.9490   14.7890  368.1130 hn        1 L37      0.377000
     37 HN9        -4.9350   13.3480  366.7220 hn        1 L37      0.479300
     38 H2B        -6.7790   13.7830  363.5810 ha        1 L37      0.191000
     39 H3B        -4.6120   15.9680  362.8800 ha        1 L37      0.181000
     40 H5B        -7.0170   14.6880  361.3150 ha        1 L37      0.186000
     41 H6B        -2.2650   16.3960  365.7620 ha        1 L37      0.216500
     42 HN         -7.5140   16.2010  359.3970 hn        1 L37      0.486300
     43 HA         -5.2800   15.2670  357.7000 hx        1 L37      0.113700
     44 HB1        -5.8680   14.1710  359.0470 hx        1 L37      0.113700
     45 HB2        -7.7570   15.4160  356.8940 hc        1 L37      0.125200
     46 HG1        -6.9070   13.8210  356.7070 hc        1 L37      0.125200
     47 HG2        -9.3230   13.6090  357.6020 h1        1 L37      0.164700
     48 N5A        21.7610  -29.7980 -818.1360 n4        1 L37     -0.649400
     49 H2A3       18.5960  -35.2270 -817.9860 hn        1 L37      0.472300
     50 H72        -6.2360   14.8160  368.2390 hn        1 L37      0.377000
     51 H92        -5.8040   12.4920  365.5750 hn        1 L37      0.479300
     52 H2         -6.3170   17.0610  358.6220 hn        1 L37      0.486300
     53 H5A3       21.2470  -29.3890 -818.9270 hn        1 L37      0.460133
@<TRIPOS>BOND
     1    1    3 1   
     2    1   32 1   
     3    1   49 1   
     4    2    8 3   
     5    3    4 2   
     6    3   31 1   
     7    4    5 1   
     8    5    6 1   
     9    5    7 2   
    10    6   33 1   
    11    7    8 1   
    12    7   48 1   
    13    9   10 1   
    14    9   36 1   
    15    9   50 1   
    16   10   11 2   
    17   10   12 1   
    18   12   13 1   
    19   12   37 1   
    20   12   51 1   
    21   13   14 2   
    22   13   18 1   
    23   14   15 1   
    24   14   38 1   
    25   15   16 2   
    26   15   39 1   
    27   16   19 1   
    28   16   40 1   
    29   17   18 3   
    30   17   41 1   
    31   19   20 2   
    32   19   21 1   
    33   21   22 1   
    34   21   42 1   
    35   21   52 1   
    36   22   23 1   
    37   22   43 1   
    38   22   44 1   
    39   23   24 1   
    40   23   45 1   
    41   23   46 1   
    42   24   25 1   
    43   24   26 1   
    44   24   47 1   
    45   25   26 1   
    46   25   27 2   
    47   28   29 2   
    48   28   30 2   
    49   34   48 1   
    50   35   48 1   
    51   48   53 1   
@<TRIPOS>SUBSTRUCTURE
     1 L37         1 TEMP              0 ****  ****    0 ROOT
