@<TRIPOS>MOLECULE
L37
   49    49     1     0     0
SMALL
bcc


@<TRIPOS>ATOM
      1 N2A        -0.2310    1.1950    0.3700 nh        1 L37     -0.903500
      2 N1          1.7940    0.8080    1.5720 nb        1 L37     -0.760000
      3 C2          1.1720    1.0240    0.3660 ca        1 L37      0.856900
      4 N3          1.8290    1.1410   -0.8500 nb        1 L37     -0.803000
      5 C4          3.1750    1.1230   -0.7920 ca        1 L37      0.626600
      6 O4A         3.8870    1.2260   -1.9700 oh        1 L37     -0.625300
      7 C5          3.9480    0.9950    0.4120 ca        1 L37     -0.114000
      8 C6          3.1580    0.7960    1.5980 ca        1 L37      0.545200
      9 N7          3.7740    0.6340    2.8680 n         1 L37     -0.517400
     10 C8          4.5880   -0.4860    3.1070 c         1 L37      0.776100
     11 O8A         5.1410   -1.1310    2.1780 o         1 L37     -0.670100
     12 N9          4.9350   -0.8560    4.4210 n         1 L37     -0.448100
     13 C1B         4.2770   -0.4710    5.5780 ce        1 L37      0.081500
     14 C2B         4.5510   -1.1840    6.8430 ce        1 L37     -0.200000
     15 C3B         3.5380   -1.2470    7.7370 c2        1 L37     -0.058200
     16 C4B         2.2830   -0.4340    7.6520 c3        1 L37     -0.141300
     17 C5B         2.4300    0.6880    6.6580 c2        1 L37     -0.045300
     18 C6B         3.3240    0.4850    5.6990 c1        1 L37     -0.268800
     19 C7B         1.0500   -1.3140    7.4800 c         1 L37      0.669100
     20 O7B         1.1410   -2.5640    7.4420 o         1 L37     -0.672100
     21 N          -0.1470   -0.6720    7.3330 n         1 L37     -0.624000
     22 CA         -2.0110    3.5020   12.3410 ce        1 L37     -0.328200
     23 CB         -1.8680    3.0930   11.0720 c2        1 L37     -0.028200
     24 CG         -0.6150    3.2080   10.3030 c3        1 L37     -0.184200
     25 CD         -0.4460    2.0470    9.3160 c         1 L37      0.914600
     26 OE1         0.7230    1.7720    8.9120 o         1 L37     -0.854800
     27 OE2        -1.4630    1.4080    8.9180 o         1 L37     -0.854800
     28 C          -3.2500    3.3910   13.1080 c         1 L37      0.641300
     29 O          -4.1900    2.4450   12.7890 oh        1 L37     -0.602100
     30 OXT        -3.5800    4.0720   14.0850 o         1 L37     -0.534000
     31 HN21       -0.6790    0.9310   -0.4800 hn        1 L37      0.409800
     32 HN22       -0.6840    0.8530    1.1910 hn        1 L37      0.409800
     33 HO4         3.2650    1.3360   -2.7070 ho        1 L37      0.439000
     34 HN51        5.7320    0.9810   -0.4850 hn        1 L37      0.392300
     35 HN52        5.7980    0.6310    1.1280 hn        1 L37      0.392300
     36 HN7         3.2570    1.0050    3.6570 hn        1 L37      0.375500
     37 HN9         5.5550   -1.6360    4.4800 hn        1 L37      0.333500
     38 H2B         5.4940   -1.7270    6.9770 ha        1 L37      0.127000
     39 H3B         3.5840   -1.9350    8.5950 ha        1 L37      0.141000
     40 H5B         2.1500    0.1150    8.6470 hc        1 L37      0.164700
     41 H6B         1.8650    1.6100    6.8600 ha        1 L37      0.191000
     42 HN         -0.2250    0.2890    7.6230 hn        1 L37      0.331500
     43 HA         -3.8770    1.9040   12.0500 ho        1 L37      0.433000
     44 HB1        -1.1880    3.9840   12.8930 ha        1 L37      0.149000
     45 HB2        -2.6950    2.6220   10.5030 ha        1 L37      0.150000
     46 HG1        -0.6430    4.1540    9.6960 hc        1 L37      0.061700
     47 HG2         0.2820    3.2590   10.9710 hc        1 L37      0.061700
     48 N5A         5.3350    1.1630    0.4160 nh        1 L37     -0.767200
     49 H2         -0.9730   -1.2170    7.3970 hn        1 L37      0.331500
@<TRIPOS>BOND
     1    1    3 1   
     2    1   31 1   
     3    1   32 1   
     4    2    3 ar  
     5    2    8 ar  
     6    3    4 ar  
     7    4    5 ar  
     8    5    6 1   
     9    5    7 ar  
    10    6   33 1   
    11    7    8 ar  
    12    7   48 1   
    13    8    9 1   
    14    9   10 1   
    15    9   36 1   
    16   10   11 2   
    17   10   12 1   
    18   12   13 1   
    19   12   37 1   
    20   13   14 1   
    21   13   18 2   
    22   14   15 2   
    23   14   38 1   
    24   15   16 1   
    25   15   39 1   
    26   16   17 1   
    27   16   19 1   
    28   16   40 1   
    29   17   18 2   
    30   17   41 1   
    31   19   20 2   
    32   19   21 1   
    33   21   42 1   
    34   21   49 1   
    35   22   23 2   
    36   22   28 1   
    37   22   44 1   
    38   23   24 1   
    39   23   45 1   
    40   24   25 1   
    41   24   46 1   
    42   24   47 1   
    43   25   26 1   
    44   25   27 1   
    45   28   29 1   
    46   28   30 2   
    47   29   43 1   
    48   34   48 1   
    49   35   48 1   
@<TRIPOS>SUBSTRUCTURE
     1 L37         1 TEMP              0 ****  ****    0 ROOT
