@<TRIPOS>MOLECULE
L37
   48    49     1     0     0
SMALL
bcc


@<TRIPOS>ATOM
      1 N2A         0.6520    3.1230    5.1370 nh        1 L37     -0.924500
      2 N1          0.0850    0.8440    4.8140 nb        1 L37     -0.839000
      3 C2          0.4500    1.8520    5.6830 ca        1 L37      0.933900
      4 N3          0.5810    1.7140    7.0570 nb        1 L37     -0.856000
      5 C4          0.2610    0.4920    7.5450 ca        1 L37      0.670600
      6 O4A         0.3520    0.2860    8.9040 oh        1 L37     -0.631300
      7 C5         -0.1480   -0.6250    6.7670 ca        1 L37     -0.285000
      8 C6         -0.2170   -0.3820    5.3370 ca        1 L37      0.653200
      9 N7         -0.6120   -1.4090    4.4930 n         1 L37     -0.546400
     10 C8         -0.5860   -1.3860    3.0540 c         1 L37      0.770100
     11 O8A        -0.2450   -2.4640    2.5200 o         1 L37     -0.601100
     12 N9         -1.0780   -0.2820    2.3670 n         1 L37     -0.412100
     13 C1B        -0.7230    0.0070    1.0240 ca        1 L37      0.022600
     14 C2B        -0.6350    1.3660    0.6380 ca        1 L37     -0.165000
     15 C3B        -0.3500    1.6980   -0.6800 ca        1 L37     -0.080500
     16 C4B        -0.1450    0.7000   -1.6390 ca        1 L37     -0.114600
     17 C5B        -0.2270   -0.6410   -1.2620 ca        1 L37     -0.080500
     18 C6B        -0.5120   -0.9940    0.0580 ca        1 L37     -0.165000
     19 C7B         0.1890    1.1260   -3.0460 c         1 L37      0.648700
     20 O7B         1.0280    2.0470   -3.2010 o         1 L37     -0.657100
     21 N          -0.4060    0.4260   -4.0530 n         1 L37     -0.472900
     22 CA         -0.4150    0.8640   -5.4420 c3        1 L37     -0.047300
     23 CB         -0.0090   -0.2650   -6.4030 c3        1 L37     -0.052400
     24 CG          1.4530   -0.6330   -6.3080 c3        1 L37     -0.182400
     25 CD          1.8070   -1.8760   -7.1340 c         1 L37      0.904600
     26 OE1         1.2370   -2.9780   -6.8730 o         1 L37     -0.874300
     27 OE2         2.7000   -1.7710   -8.0300 o         1 L37     -0.874300
     28 C          -1.8350    1.3910   -5.8490 c         1 L37      0.902600
     29 O          -1.8900    2.2470   -6.7740 o         1 L37     -0.851300
     30 OXT        -2.8490    0.9560   -5.2270 o         1 L37     -0.851300
     31 HN21        0.7920    3.1670    4.1520 hn        1 L37      0.430800
     32 HN22        1.1790    3.7630    5.6840 hn        1 L37      0.430800
     33 HO4         0.6650    1.1000    9.3320 ho        1 L37      0.442000
     34 HN51       -1.3740   -1.9230    7.6520 hn        1 L37      0.359300
     35 HN52        0.1980   -2.1010    8.0590 hn        1 L37      0.359300
     36 HN7        -0.5520   -2.3360    4.8700 hn        1 L37      0.354500
     37 HN9        -1.3220    0.5270    2.8990 hn        1 L37      0.323500
     38 H2B        -0.7970    2.1680    1.3720 ha        1 L37      0.137000
     39 H3B        -0.2700    2.7540   -0.9850 ha        1 L37      0.159500
     40 H5B        -0.0610   -1.4360   -2.0090 ha        1 L37      0.159500
     41 H6B        -0.5640   -2.0590    0.3340 ha        1 L37      0.137000
     42 HN         -1.2060   -0.1270   -3.8190 hn        1 L37      0.314500
     43 HA          0.3170    1.7150   -5.5510 h1        1 L37      0.070700
     44 HB1        -0.6330   -1.1780   -6.2200 hc        1 L37      0.051200
     45 HB2        -0.2410    0.1010   -7.4380 hc        1 L37      0.051200
     46 HG1         2.0830    0.2270   -6.6520 hc        1 L37      0.019200
     47 HG2         1.7260   -0.8510   -5.2440 hc        1 L37      0.019200
     48 N5A        -0.4320   -1.9010    7.3050 nh        1 L37     -0.759200
@<TRIPOS>BOND
     1    1    3 1   
     2    1   31 1   
     3    1   32 1   
     4    2    3 ar  
     5    2    8 ar  
     6    3    4 ar  
     7    4    5 ar  
     8    5    6 1   
     9    5    7 ar  
    10    6   33 1   
    11    7    8 ar  
    12    7   48 1   
    13    8    9 1   
    14    9   10 1   
    15    9   36 1   
    16   10   11 2   
    17   10   12 1   
    18   12   13 1   
    19   12   37 1   
    20   13   14 ar  
    21   13   18 ar  
    22   14   15 ar  
    23   14   38 1   
    24   15   16 ar  
    25   15   39 1   
    26   16   17 ar  
    27   16   19 1   
    28   17   18 ar  
    29   17   40 1   
    30   18   41 1   
    31   19   20 2   
    32   19   21 1   
    33   21   22 1   
    34   21   42 1   
    35   22   23 1   
    36   22   28 1   
    37   22   43 1   
    38   23   24 1   
    39   23   44 1   
    40   23   45 1   
    41   24   25 1   
    42   24   46 1   
    43   24   47 1   
    44   25   26 1   
    45   25   27 1   
    46   28   29 1   
    47   28   30 1   
    48   34   48 1   
    49   35   48 1   
@<TRIPOS>SUBSTRUCTURE
     1 L37         1 TEMP              0 ****  ****    0 ROOT
