@<TRIPOS>MOLECULE
L39
   72    73     1     0     0
SMALL
bcc


@<TRIPOS>ATOM
      1 I1         -7.4180    4.1790   -5.6680 i         1 L39      0.042000
      2 C18        -1.1860   -0.5040    0.1110 c3        1 L39     -0.207000
      3 C13         0.0870    0.2310   -0.1690 c3        1 L39     -0.041000
      4 C12         0.8110   -0.4790   -0.9270 c3        1 L39     -0.144000
      5 C11         1.4060   -1.7690   -0.1920 c3        1 L39     -0.155000
      6 C9          2.2770   -1.4120    1.2740 c3        1 L39     -0.089000
      7 C10         2.7620   -2.6710    1.9760 c3        1 L39     -0.004000
      8 C19         1.5660   -3.6070    2.0890 c3        1 L39     -0.202000
      9 C1          3.8030   -3.3680    1.0490 c3        1 L39     -0.149000
     10 C2          4.3610   -4.6270    1.6380 c3        1 L39     -0.154000
     11 C3          4.9010   -4.4300    3.0410 c3        1 L39      0.034000
     12 O1          5.2580   -5.6600    3.5560 oh        1 L39     -0.327000
     13 C4          3.8400   -3.7420    4.0340 c3        1 L39     -0.159000
     14 C5          3.2960   -2.4670    3.3790 c2        1 L39     -0.095000
     15 C6          2.4830   -1.2140    4.3340 c1        1 L39     -0.165000
     16 C7          1.8960   -0.0470    3.5000 c2        1 L39     -0.126000
     17 C8          1.3300   -0.5820    2.0350 c3        1 L39     -0.086000
     18 C14         0.7770    0.6300    1.2310 c3        1 L39     -0.106000
     19 C15        -0.2320    1.2570    1.8450 c3        1 L39     -0.209000
     20 C16        -0.8120    2.2120    0.5390 c1        1 L39      0.233000
     21 O16        -1.1510    3.3720    0.6020 o         1 L39     -0.294000
     22 C17        -0.2210    1.4850   -0.7330 c2        1 L39     -0.147000
     23 C20        -1.1950    1.3200   -1.8790 c3        1 L39     -0.135000
     24 C21        -0.4380    1.1110   -3.1450 c3        1 L39     -0.207000
     25 C22        -2.0610    2.5900   -2.0030 c2        1 L39      0.241000
     26 O22        -1.6000    3.6770   -1.6720 o         1 L39     -0.296000
     27 C23        -3.4340    2.5220   -2.7260 c3        1 L39     -0.208000
     28 C24        -3.8310    3.9300   -3.2040 c3        1 L39     -0.151000
     29 C25        -5.2910    3.9320   -3.6140 c3        1 L39     -0.097000
     30 C27        -6.0370    4.9990   -2.8290 c3        1 L39     -0.217000
     31 C26        -5.3980    4.2250   -5.0860 c3        1 L39     -0.307000
     32 H1         -1.4070   -1.0720   -0.6490 hc        1 L39      0.079000
     33 H2         -1.0740   -1.0580    0.9110 hc        1 L39      0.079000
     34 H3         -1.9090    0.1400    0.2600 hc        1 L39      0.079000
     35 H4          1.5460    0.0610   -1.2490 hc        1 L39      0.085500
     36 H5          0.2680   -0.7740   -1.7000 hc        1 L39      0.085500
     37 H6          0.6670   -2.3730    0.0240 hc        1 L39      0.084000
     38 H7          2.0150   -2.2290   -0.8120 hc        1 L39      0.084000
     39 H8          3.0750   -0.8520    1.0430 hc        1 L39      0.090000
     40 H9          1.8160   -4.3940    2.6120 hc        1 L39      0.077333
     41 H10         0.8260   -3.1400    2.5340 hc        1 L39      0.077333
     42 H11         1.2820   -3.8900    1.1850 hc        1 L39      0.077333
     43 H12         4.5340   -2.7510    0.8800 hc        1 L39      0.084500
     44 H13         3.3710   -3.5840    0.2000 hc        1 L39      0.084500
     45 H14         3.6560   -5.2990    1.6660 hc        1 L39      0.096000
     46 H15         5.0800   -4.9490    1.0670 hc        1 L39      0.096000
     47 H16         5.6930   -3.8710    2.9940 h1        1 L39      0.076000
     48 H17         5.9510   -5.5600    4.1160 ho        1 L39      0.198000
     49 H18         4.2510   -3.5560    4.8990 hc        1 L39      0.092000
     50 H19         3.1310   -4.3430    4.2840 hc        1 L39      0.092000
     51 H20         2.7400   -1.0670    5.2680 ha        1 L39      0.122000
     52 H21         2.5170    0.7130    3.4850 ha        1 L39      0.089000
     53 H22         1.1270    0.3610    3.9740 ha        1 L39      0.089000
     54 H23         0.5560   -1.1600    2.2320 hc        1 L39      0.100000
     55 H24         1.5010    1.2670    1.0650 hc        1 L39      0.093000
     56 H25        -0.0950    1.6790    2.7140 hc        1 L39      0.117000
     57 H26        -0.9160    0.5800    2.0720 hc        1 L39      0.117000
     58 H27         0.4950    2.0030   -1.1540 ha        1 L39      0.137000
     59 H28        -1.7750    0.5410   -1.7090 hc        1 L39      0.104000
     60 H29        -0.8830    1.6020   -3.8800 hc        1 L39      0.084333
     61 H30        -0.4150    0.1680   -3.3550 hc        1 L39      0.084333
     62 H31         0.4860    1.4470   -3.0370 hc        1 L39      0.084333
     63 H34        -4.1150    2.1830   -2.1050 hc        1 L39      0.116000
     64 H35        -3.3680    1.9210   -3.5010 hc        1 L39      0.116000
     65 H36        -3.2780    4.1820   -3.9670 hc        1 L39      0.095000
     66 H37        -3.6970    4.5650   -2.4840 hc        1 L39      0.095000
     67 H38        -5.6780    3.0680   -3.4310 hc        1 L39      0.095000
     68 H39        -5.9860    4.7940   -1.8700 hc        1 L39      0.081667
     69 H40        -5.6320    5.8700   -2.9970 hc        1 L39      0.081667
     70 H41        -6.9840    5.0150   -3.1120 hc        1 L39      0.081667
     71 H42        -4.9000    3.5520   -5.5880 h1        1 L39      0.112500
     72 H43        -5.0230    5.1180   -5.2710 h1        1 L39      0.112500
@<TRIPOS>BOND
     1    1   31 1   
     2    2    3 1   
     3    2   32 1   
     4    2   33 1   
     5    2   34 1   
     6    3    4 1   
     7    3   18 1   
     8    3   22 1   
     9    4    5 1   
    10    4   35 1   
    11    4   36 1   
    12    5    6 1   
    13    5   37 1   
    14    5   38 1   
    15    6    7 1   
    16    6   17 1   
    17    6   39 1   
    18    7    8 1   
    19    7    9 1   
    20    7   14 1   
    21    8   40 1   
    22    8   41 1   
    23    8   42 1   
    24    9   10 1   
    25    9   43 1   
    26    9   44 1   
    27   10   11 1   
    28   10   45 1   
    29   10   46 1   
    30   11   12 1   
    31   11   13 1   
    32   11   47 1   
    33   12   48 1   
    34   13   14 1   
    35   13   49 1   
    36   13   50 1   
    37   14   15 1   
    38   15   51 1   
    39   16   17 1   
    40   16   52 1   
    41   16   53 1   
    42   17   18 1   
    43   17   54 1   
    44   18   19 1   
    45   18   55 1   
    46   19   20 1   
    47   19   56 1   
    48   19   57 1   
    49   20   21 1   
    50   22   23 1   
    51   22   58 1   
    52   23   24 1   
    53   23   25 1   
    54   23   59 1   
    55   24   60 1   
    56   24   61 1   
    57   24   62 1   
    58   25   26 1   
    59   25   27 1   
    60   27   28 1   
    61   27   63 1   
    62   27   64 1   
    63   28   29 1   
    64   28   65 1   
    65   28   66 1   
    66   29   30 1   
    67   29   31 1   
    68   29   67 1   
    69   30   68 1   
    70   30   69 1   
    71   30   70 1   
    72   31   71 1   
    73   31   72 1   
@<TRIPOS>SUBSTRUCTURE
     1 L39         1 TEMP              0 ****  ****    0 ROOT
