@<TRIPOS>MOLECULE
L39
   72    69     1     0     0
SMALL
bcc


@<TRIPOS>ATOM
      1 I1          2.4980   -3.7180    5.0830 i         1 L39      0.049000
      2 C18         7.1780   -0.5540    7.3240 c3        1 L39     -0.272500
      3 C13        10.8100    1.9750    4.0590 c2        1 L39     -0.034000
      4 C12        10.8840    0.6690    4.7240 c3        1 L39     -0.127000
      5 C11        10.4730    0.7500    6.1820 c3        1 L39     -0.138000
      6 C9         10.8290    1.9930    6.9260 c2        1 L39     -0.075000
      7 C10        10.8890    1.9830    8.2860 c2        1 L39     -0.092000
      8 C19         7.5160    0.8190   10.8140 c3        1 L39     -0.272500
      9 C1         10.6390    0.7480    9.0870 c3        1 L39     -0.104000
     10 C2         11.9220    0.0420    9.4910 c3        1 L39     -0.239000
     11 C3         12.4010   -0.8480    8.3950 c1        1 L39     -0.020000
     12 O1         13.7180   -0.8350    8.2790 oh        1 L39     -0.231000
     13 C4         10.9940    3.2410   10.4950 c3        1 L39     -0.177000
     14 C5         11.1790    3.2130    9.0240 c2        1 L39     -0.071000
     15 C6         11.6070    4.3090    8.3670 c2        1 L39     -0.167000
     16 C7         11.8170    4.3130    6.9050 c3        1 L39     -0.125000
     17 C8         10.9440    3.2910    6.1820 c3        1 L39     -0.056000
     18 C14        11.4550    3.1470    4.7530 c3        1 L39     -0.088000
     19 C15        11.1210    4.3540    3.8570 c3        1 L39     -0.219000
     20 C16        10.3910    3.7740    2.6540 c2        1 L39      0.255000
     21 O16        10.0050    4.4160    1.6780 o         1 L39     -0.297000
     22 C17        10.2360    2.3200    2.8870 c2        1 L39     -0.243000
     23 C20         6.6580   -1.5900    2.8320 c2        1 L39     -0.244500
     24 C21         7.0660   -2.1420    3.9760 c2        1 L39     -0.127000
     25 C22         7.5370   -0.7460    2.0020 c2        1 L39      0.285000
     26 O22         8.7160   -0.5110    2.3160 o         1 L39     -0.320000
     27 C24         7.5300    0.7200    0.0220 c2        1 L39     -0.127000
     28 C25         2.5140   -1.0000    3.9340 c2        1 L39     -0.175000
     29 C27         2.7130    0.1530    4.5720 c2        1 L39     -0.198000
     30 C26         1.5480   -2.0200    4.3660 c3        1 L39     -0.280000
     31 H1          7.0730   -0.9610    6.2930 hc        1 L39      0.068375
     32 H2          6.3210   -0.8910    7.9460 hc        1 L39      0.068375
     33 H3          7.1930    0.5570    7.2850 hc        1 L39      0.068375
     34 H4          8.1280   -0.9210    7.7710 hc        1 L39      0.068375
     35 H5         11.9440    0.2960    4.6530 hc        1 L39      0.107500
     36 H6         10.2310   -0.0800    4.1940 hc        1 L39      0.107500
     37 H7          9.3530    0.6290    6.2500 hc        1 L39      0.107500
     38 H8         10.9320   -0.1420    6.7000 hc        1 L39      0.107500
     39 H9          7.5670    0.4340    9.7700 hc        1 L39      0.068375
     40 H10         8.1090    0.1560   11.4820 hc        1 L39      0.068375
     41 H11         6.4580    0.8350   11.1520 hc        1 L39      0.068375
     42 H12         7.9330    1.8490   10.8500 hc        1 L39      0.068375
     43 H13        10.0660    1.0150   10.0180 hc        1 L39      0.095500
     44 H14         9.9790    0.0330    8.5230 hc        1 L39      0.095500
     45 H15        11.7060   -0.6400   10.3610 hc        1 L39      0.105000
     46 H16        12.6860    0.7910    9.8310 hc        1 L39      0.105000
     47 H17        13.9540   -1.4510    7.5630 ho        1 L39      0.249000
     48 H18        11.6040    2.4390   10.9830 hc        1 L39      0.081000
     49 H19         9.9180    3.0760   10.7550 hc        1 L39      0.081000
     50 H20        11.3070    4.2260   10.9220 hc        1 L39      0.081000
     51 H21        11.8520    5.2420    8.8970 ha        1 L39      0.126000
     52 H22        11.6000    5.3300    6.4820 hc        1 L39      0.090000
     53 H23        12.9050    4.0990    6.7050 hc        1 L39      0.090000
     54 H24         9.8900    3.7030    6.1350 hc        1 L39      0.103000
     55 H25        12.5680    2.9850    4.7740 hc        1 L39      0.110000
     56 H26        12.0470    4.8840    3.5270 hc        1 L39      0.115000
     57 H27        10.4630    5.0910    4.3790 hc        1 L39      0.115000
     58 H28         9.7140    1.6620    2.1870 ha        1 L39      0.175000
     59 H29         5.6320   -1.7350    2.4530 ha        1 L39      0.133500
     60 H30         8.0880   -1.9990    4.3590 ha        1 L39      0.127750
     61 H31         6.4070   -2.7660    4.5960 ha        1 L39      0.127750
     62 H34         3.9500   -2.0060    0.8980 ha        1 L39      0.002000
     63 H35         3.7780   -1.3550    0.8210 ha        1 L39      0.002000
     64 H36         5.9230   -0.5850    0.5290 ha        1 L39      0.133500
     65 H37         8.5280    1.1150    0.2670 ha        1 L39      0.127750
     66 H38         7.0670    1.1320   -0.8850 ha        1 L39      0.127750
     67 H39         3.0790   -1.2420    3.0150 ha        1 L39      0.130000
     68 H40         2.1700    0.4310    5.4860 ha        1 L39      0.118500
     69 H41         3.4380    0.8980    4.2180 ha        1 L39      0.118500
     70 H42         0.8850   -1.6520    5.1830 h1        1 L39      0.117500
     71 H43         0.9130   -2.3490    3.5100 h1        1 L39      0.117500
     72 C23         6.9240   -0.1950    0.7800 c2        1 L39     -0.244500
@<TRIPOS>BOND
     1    1   30 1   
     2    2   31 1   
     3    2   32 1   
     4    2   33 1   
     5    2   34 1   
     6    3    4 1   
     7    3   18 1   
     8    3   22 1   
     9    4    5 1   
    10    4   35 1   
    11    4   36 1   
    12    5    6 1   
    13    5   37 1   
    14    5   38 1   
    15    6    7 1   
    16    6   17 1   
    17    7    9 1   
    18    7   14 1   
    19    8   39 1   
    20    8   40 1   
    21    8   41 1   
    22    8   42 1   
    23    9   10 1   
    24    9   43 1   
    25    9   44 1   
    26   10   11 1   
    27   10   45 1   
    28   10   46 1   
    29   11   12 1   
    30   12   47 1   
    31   13   14 1   
    32   13   48 1   
    33   13   49 1   
    34   13   50 1   
    35   14   15 1   
    36   15   16 1   
    37   15   51 1   
    38   16   17 1   
    39   16   52 1   
    40   16   53 1   
    41   17   18 1   
    42   17   54 1   
    43   18   19 1   
    44   18   55 1   
    45   19   20 1   
    46   19   56 1   
    47   19   57 1   
    48   20   21 1   
    49   20   22 1   
    50   22   58 1   
    51   23   24 1   
    52   23   25 1   
    53   23   59 1   
    54   24   60 1   
    55   24   61 1   
    56   25   26 1   
    57   25   72 1   
    58   27   65 1   
    59   27   66 1   
    60   27   72 1   
    61   28   29 1   
    62   28   30 1   
    63   28   67 1   
    64   29   68 1   
    65   29   69 1   
    66   30   70 1   
    67   30   71 1   
    68   62   63 1   
    69   64   72 1   
@<TRIPOS>SUBSTRUCTURE
     1 L39         1 TEMP              0 ****  ****    0 ROOT
