@<TRIPOS>MOLECULE
L39
   72    75     1     0     0
SMALL
bcc


@<TRIPOS>ATOM
      1 I1          8.2860   -0.3870   -0.0850 i         1 L39     -0.258900
      2 C18        -2.0340   -0.6850   -1.5260 c3        1 L39     -0.089100
      3 C13        -2.1890   -0.5740   -0.0190 c3        1 L39     -0.041000
      4 C12        -3.0130   -1.7260    0.5320 c3        1 L39     -0.065400
      5 C11        -4.4340   -1.6760   -0.0060 c3        1 L39     -0.076400
      6 C9         -5.1430   -0.3430    0.2110 c3        1 L39     -0.049700
      7 C10        -6.5380   -0.3160   -0.4550 c3        1 L39      0.000200
      8 C19        -6.4610   -0.7370   -1.9200 c3        1 L39     -0.084100
      9 C1         -7.4420   -1.2970    0.3100 c3        1 L39     -0.070400
     10 C2         -8.8940   -1.2170   -0.1010 c3        1 L39     -0.075400
     11 C3         -9.4220    0.1960    0.1060 c3        1 L39      0.145100
     12 O1        -10.7690    0.2010   -0.3510 oh        1 L39     -0.599800
     13 C4         -8.5820    1.2020   -0.6770 c3        1 L39     -0.076200
     14 C5         -7.1270    1.0710   -0.3770 c2        1 L39     -0.103400
     15 C6         -6.4020    2.1630   -0.0930 c2        1 L39     -0.169200
     16 C7         -4.9520    2.1530    0.1960 c3        1 L39     -0.043200
     17 C8         -4.2880    0.8530   -0.2330 c3        1 L39     -0.046700
     18 C14        -2.9230    0.7260    0.4090 c3        1 L39     -0.066700
     19 C15        -1.8990    1.8290    0.1820 c3        1 L39     -0.180400
     20 C16        -0.5710    1.1430    0.4240 c         1 L39      0.572100
     21 O16         0.5200    1.7110    0.4360 o         1 L39     -0.533100
     22 C17        -0.8010   -0.3550    0.6320 c3        1 L39     -0.157700
     23 C20         0.3630   -1.1960    0.1290 c3        1 L39     -0.145700
     24 C21         0.0970   -2.6870    0.2140 c3        1 L39     -0.089100
     25 C22         1.5990   -0.9050    0.9720 c         1 L39      0.580100
     26 O22         1.5870   -1.0340    2.1990 o         1 L39     -0.535100
     27 C24         4.0620   -0.4610    1.0420 c3        1 L39     -0.072400
     28 C25         5.2910   -0.0530    0.2350 c3        1 L39     -0.057700
     29 C27         5.2560    1.4270   -0.0870 c3        1 L39     -0.099100
     30 C26         6.5350   -0.4110    1.0200 c3        1 L39      0.072500
     31 H1         -1.5180   -1.6380   -1.7940 hc        1 L39      0.039700
     32 H2         -3.0260   -0.6750   -2.0390 hc        1 L39      0.039700
     33 H3         -1.4290    0.1690   -1.9180 hc        1 L39      0.039700
     34 H4         -2.5520   -2.7080    0.2490 hc        1 L39      0.046200
     35 H5         -3.0260   -1.6730    1.6530 hc        1 L39      0.046200
     36 H6         -4.4080   -1.9200   -1.1010 hc        1 L39      0.044700
     37 H7         -5.0270   -2.4830    0.5000 hc        1 L39      0.044700
     38 H8         -5.3060   -0.2270    1.3220 hc        1 L39      0.050700
     39 H9         -6.3010   -1.8390   -2.0020 hc        1 L39      0.038033
     40 H10        -7.4130   -0.4890   -2.4490 hc        1 L39      0.038033
     41 H11        -5.6230   -0.2120   -2.4380 hc        1 L39      0.038033
     42 H12        -7.0760   -2.3430    0.1350 hc        1 L39      0.045200
     43 H13        -7.3590   -1.0870    1.4090 hc        1 L39      0.045200
     44 H14        -9.0160   -1.5040   -1.1770 hc        1 L39      0.056700
     45 H15        -9.5040   -1.9320    0.5090 hc        1 L39      0.056700
     46 H16        -9.4030    0.4570    1.2020 h1        1 L39      0.036700
     47 H17       -11.0920    1.1040   -0.2540 ho        1 L39      0.399000
     48 H18        -8.7520    1.0380   -1.7760 hc        1 L39      0.052700
     49 H19        -8.9410    2.2400   -0.4400 hc        1 L39      0.052700
     50 H20        -6.8760    3.1570   -0.0470 ha        1 L39      0.122000
     51 H21        -4.4520    3.0110   -0.3290 hc        1 L39      0.049700
     52 H22        -4.8040    2.3110    1.3000 hc        1 L39      0.049700
     53 H23        -4.1900    0.8560   -1.3530 hc        1 L39      0.060700
     54 H24        -3.0910    0.6600    1.5260 hc        1 L39      0.053700
     55 H25        -1.9370    2.2260   -0.8630 hc        1 L39      0.077700
     56 H26        -2.0410    2.6870    0.8840 hc        1 L39      0.077700
     57 H27        -0.8960   -0.5300    1.7430 hc        1 L39      0.097700
     58 H28         0.5750   -0.9180   -0.9410 hc        1 L39      0.064700
     59 H29        -0.2860   -2.9550    1.2290 hc        1 L39      0.045033
     60 H30        -0.6500   -3.0030   -0.5510 hc        1 L39      0.045033
     61 H31         1.0430   -3.2530    0.0300 hc        1 L39      0.045033
     62 H34         2.9380   -1.1380   -0.6900 hc        1 L39      0.076700
     63 H35         2.5880    0.5720   -0.1830 hc        1 L39      0.076700
     64 H36         3.9260    0.2370    1.9090 hc        1 L39      0.055700
     65 H37         4.2130   -1.4880    1.4690 hc        1 L39      0.055700
     66 H38         5.2850   -0.6330   -0.7310 hc        1 L39      0.055700
     67 H39         4.3560    1.6680   -0.7040 hc        1 L39      0.042367
     68 H40         5.2120    2.0330    0.8510 hc        1 L39      0.042367
     69 H41         6.1660    1.7270   -0.6610 hc        1 L39      0.042367
     70 H42         6.4520   -1.4440    1.4310 h1        1 L39      0.073200
     71 H43         6.6760    0.3000    1.8660 h1        1 L39      0.073200
     72 C23         2.8060   -0.4650    0.1980 c3        1 L39     -0.179400
@<TRIPOS>BOND
     1    1   30 1   
     2    2    3 1   
     3    2   31 1   
     4    2   32 1   
     5    2   33 1   
     6    3    4 1   
     7    3   18 1   
     8    3   22 1   
     9    4    5 1   
    10    4   34 1   
    11    4   35 1   
    12    5    6 1   
    13    5   36 1   
    14    5   37 1   
    15    6    7 1   
    16    6   17 1   
    17    6   38 1   
    18    7    8 1   
    19    7    9 1   
    20    7   14 1   
    21    8   39 1   
    22    8   40 1   
    23    8   41 1   
    24    9   10 1   
    25    9   42 1   
    26    9   43 1   
    27   10   11 1   
    28   10   44 1   
    29   10   45 1   
    30   11   12 1   
    31   11   13 1   
    32   11   46 1   
    33   12   47 1   
    34   13   14 1   
    35   13   48 1   
    36   13   49 1   
    37   14   15 2   
    38   15   16 1   
    39   15   50 1   
    40   16   17 1   
    41   16   51 1   
    42   16   52 1   
    43   17   18 1   
    44   17   53 1   
    45   18   19 1   
    46   18   54 1   
    47   19   20 1   
    48   19   55 1   
    49   19   56 1   
    50   20   21 2   
    51   20   22 1   
    52   22   23 1   
    53   22   57 1   
    54   23   24 1   
    55   23   25 1   
    56   23   58 1   
    57   24   59 1   
    58   24   60 1   
    59   24   61 1   
    60   25   26 2   
    61   25   72 1   
    62   27   28 1   
    63   27   64 1   
    64   27   65 1   
    65   27   72 1   
    66   28   29 1   
    67   28   30 1   
    68   28   66 1   
    69   29   67 1   
    70   29   68 1   
    71   29   69 1   
    72   30   70 1   
    73   30   71 1   
    74   62   72 1   
    75   63   72 1   
@<TRIPOS>SUBSTRUCTURE
     1 L39         1 TEMP              0 ****  ****    0 ROOT
