@<TRIPOS>MOLECULE
L3A
   34    32     1     0     0
SMALL
bcc


@<TRIPOS>ATOM
      1 P          -0.9810   -0.1450    0.2480 p4        1 L3A      1.927900
      2 C1          1.3700   -1.3550   -0.4580 c3        1 L3A     -0.190700
      3 N1          1.3810    0.1290    1.4280 nh        1 L3A     -0.463100
      4 C2          0.8360   -0.0590    0.1350 c2        1 L3A     -0.463800
      5 C4         -1.6430    1.4950    0.7470 c3        1 L3A     -0.470600
      6 C5         -3.1350    1.3780    1.0230 c3        1 L3A     -0.176700
      7 C6         -3.3620    1.2180    2.5080 c         1 L3A      0.918600
      8 C7         -3.8400    2.6310    0.5360 c3        1 L3A     -0.069100
      9 C8          2.7310   -1.0890   -1.1380 c3        1 L3A     -0.059700
     10 O31        -1.3670   -1.1630    1.2590 o         1 L3A     -0.892300
     11 O32        -1.5820   -0.5500   -1.1670 oh        1 L3A     -0.811400
     12 O61        -3.0100    2.1340    3.3030 o         1 L3A     -0.834300
     13 O62        -3.9510    0.1910    2.9500 o         1 L3A     -0.834300
     14 C81         2.5140   -0.8490   -2.6420 c3        1 L3A     -0.089100
     15 C82         3.6500   -2.3050   -0.9390 c3        1 L3A     -0.089100
     16 H1          1.4860   -2.0200    0.2580 hc        1 L3A      0.065200
     17 H1A         0.7330   -1.6980   -1.1240 hc        1 L3A      0.065200
     18 HN1         1.8620   -0.6130    1.6680 hn        1 L3A      0.196700
     19 HN1A        1.9330    0.8640    1.4230 hn        1 L3A      0.196700
     20 H2          1.0920    0.6950   -0.4410 h4        1 L3A      0.000800
     21 H4         -1.1830    1.8010    1.5590 hc        1 L3A      0.135700
     22 H4A        -1.4940    2.1430    0.0230 hc        1 L3A      0.135700
     23 H5         -3.4950    0.5960    0.5510 hc        1 L3A      0.050700
     24 H7         -3.8170    2.6590   -0.4460 hc        1 L3A      0.023367
     25 H7A        -4.7750    2.6210    0.8420 hc        1 L3A      0.023367
     26 H7B        -3.3860    3.4240    0.8980 hc        1 L3A      0.023367
     27 H8          3.1470   -0.2940   -0.7360 hc        1 L3A      0.038700
     28 H81         3.1550   -0.1280   -2.4510 hc        1 L3A      0.030700
     29 H81A        2.6140   -1.8260   -2.6440 hc        1 L3A      0.030700
     30 H81B        3.1180   -0.9540   -3.4150 hc        1 L3A      0.030700
     31 H82         3.9040   -2.3730    0.0090 hc        1 L3A      0.030700
     32 H82A        4.4590   -2.1980   -1.4880 hc        1 L3A      0.030700
     33 H82B        3.1760   -3.1230   -1.2110 hc        1 L3A      0.030700
     34 H19        -2.1410   -1.2370   -1.0670 ho        1 L3A      0.457000
@<TRIPOS>BOND
     1    1    5 1   
     2    1   10 2   
     3    1   11 1   
     4    2    4 1   
     5    2    9 1   
     6    2   16 1   
     7    2   17 1   
     8    3    4 2   
     9    3   18 1   
    10    3   19 1   
    11    4   20 1   
    12    5    6 1   
    13    5   21 1   
    14    5   22 1   
    15    6    7 1   
    16    6    8 1   
    17    6   23 1   
    18    7   12 1   
    19    7   13 1   
    20    8   24 1   
    21    8   25 1   
    22    8   26 1   
    23    9   14 1   
    24    9   15 1   
    25    9   27 1   
    26   11   34 1   
    27   14   28 1   
    28   14   29 1   
    29   14   30 1   
    30   15   31 1   
    31   15   32 1   
    32   15   33 1   
@<TRIPOS>SUBSTRUCTURE
     1 L3A         1 TEMP              0 ****  ****    0 ROOT
