@<TRIPOS>MOLECULE
L3A
   34    33     1     0     0
SMALL
bcc


@<TRIPOS>ATOM
      1 P          -0.0730    0.0060    0.4830 p5        1 L3A      1.518100
      2 C1         -2.6850   -0.3610    0.4030 c3        1 L3A     -0.084400
      3 N1         -1.0870   -2.1340   -0.4140 n3        1 L3A     -0.879800
      4 C2         -1.3840   -0.7240   -0.3130 c3        1 L3A     -0.116700
      5 C4          1.1340    0.0780   -0.5830 c3        1 L3A     -0.470600
      6 C5          2.4610    0.4130    0.0770 c3        1 L3A     -0.176700
      7 C6          3.5900   -0.5810   -0.3360 c         1 L3A      0.918600
      8 C7          2.9270    1.8160   -0.2410 c3        1 L3A     -0.069100
      9 C8         -3.6650    0.3980   -0.4810 c3        1 L3A     -0.067700
     10 O31         0.0350   -0.4430    1.8720 o         1 L3A     -0.890300
     11 O32        -0.5690    1.5500    0.6540 oh        1 L3A     -0.810400
     12 O61         4.7450   -0.3560    0.1200 o         1 L3A     -0.834300
     13 O62         3.2980   -1.5540   -1.0880 o         1 L3A     -0.834300
     14 C81        -4.2530   -0.5050   -1.5460 c3        1 L3A     -0.088100
     15 C82        -4.7710    0.9970    0.3650 c3        1 L3A     -0.088100
     16 H1         -3.2070   -1.2790    0.7900 hc        1 L3A      0.047700
     17 H1A        -2.4410    0.2700    1.3010 hc        1 L3A      0.047700
     18 HN1        -0.9900   -2.5200    0.5080 hn        1 L3A      0.351800
     19 HN1A       -1.8130   -2.6250   -0.9000 hn        1 L3A      0.351800
     20 H2         -1.4510   -0.3380   -1.3730 h1        1 L3A      0.090700
     21 H4          1.3140   -0.9070   -1.1280 hc        1 L3A      0.135700
     22 H4A         0.9460    0.8120   -1.4090 hc        1 L3A      0.135700
     23 H5          2.3490    0.3030    1.1920 hc        1 L3A      0.049700
     24 H7          2.2270    2.5870    0.1650 hc        1 L3A      0.023367
     25 H7A         3.9390    1.9700    0.2090 hc        1 L3A      0.023367
     26 H7B         3.0080    1.9600   -1.3450 hc        1 L3A      0.023367
     27 H8         -3.1140    1.2410   -0.9870 hc        1 L3A      0.057700
     28 H81        -3.4410   -0.9880   -2.1410 hc        1 L3A      0.029533
     29 H81A       -4.8740   -1.3080   -1.0810 hc        1 L3A      0.029533
     30 H81B       -4.9010    0.0840   -2.2390 hc        1 L3A      0.029533
     31 H82        -4.3460    1.7180    1.1040 hc        1 L3A      0.029533
     32 H82A       -5.5020    1.5390   -0.2810 hc        1 L3A      0.029533
     33 H82B       -5.3160    0.1980    0.9220 hc        1 L3A      0.029533
     34 H19        -0.5560    1.8600    1.5540 ho        1 L3A      0.456000
@<TRIPOS>BOND
     1    1    4 1   
     2    1    5 1   
     3    1   10 2   
     4    1   11 1   
     5    2    4 1   
     6    2    9 1   
     7    2   16 1   
     8    2   17 1   
     9    3    4 1   
    10    3   18 1   
    11    3   19 1   
    12    4   20 1   
    13    5    6 1   
    14    5   21 1   
    15    5   22 1   
    16    6    7 1   
    17    6    8 1   
    18    6   23 1   
    19    7   12 1   
    20    7   13 1   
    21    8   24 1   
    22    8   25 1   
    23    8   26 1   
    24    9   14 1   
    25    9   15 1   
    26    9   27 1   
    27   11   34 1   
    28   14   28 1   
    29   14   29 1   
    30   14   30 1   
    31   15   31 1   
    32   15   32 1   
    33   15   33 1   
@<TRIPOS>SUBSTRUCTURE
     1 L3A         1 TEMP              0 ****  ****    0 ROOT
