@<TRIPOS>MOLECULE
L3G
   79    85     1     0     0
SMALL
bcc


@<TRIPOS>ATOM
      1 C1          0.0640   -0.0950   -0.0290 cc        1 L3G      0.422500
      2 C2          1.5130   -0.0800    0.0310 ca        1 L3G     -0.497500
      3 C3         -0.7590   -0.1800   -1.2270 ca        1 L3G     -0.100900
      4 N1         -0.4460   -0.0130    1.2280 nd        1 L3G     -0.506100
      5 C4          1.8170    0.0090    1.4510 ca        1 L3G      0.475800
      6 C5          2.6220   -0.0990   -0.8720 ca        1 L3G      0.767200
      7 C6         -1.7350    0.7930   -1.4740 ca        1 L3G     -0.142000
      8 C7         -0.5990   -1.2360   -2.1290 ca        1 L3G     -0.129000
      9 N2          0.5720    0.0570    2.1080 na        1 L3G      0.000200
     10 N3          3.0900    0.0520    1.9540 nb        1 L3G     -0.747000
     11 N4          3.9020   -0.0500   -0.3650 nb        1 L3G     -0.803000
     12 N5          2.4210   -0.1860   -2.2250 nh        1 L3G     -0.963500
     13 C8         -2.5210    0.7190   -2.6220 ca        1 L3G      0.066100
     14 C9         -1.3790   -1.3180   -3.2780 ca        1 L3G     -0.140000
     15 C11         4.0340    0.0150    0.9870 ca        1 L3G      0.696900
     16 C12        -2.3570   -0.3450   -3.5640 ca        1 L3G      0.059600
     17 O1         -3.4740    1.6790   -2.9370 os        1 L3G     -0.351900
     18 C13        -2.4850    1.0270    9.5070 c3        1 L3G      0.125900
     19 C14        -1.2730   -0.9830    9.8090 c3        1 L3G      0.125900
     20 N6         -3.1690   -0.3830   -4.7070 n         1 L3G     -0.462100
     21 C15        -4.0000    2.4100   -1.8330 c3        1 L3G      0.116700
     22 C16        -2.4180    0.9050    7.9960 c3        1 L3G     -0.114400
     23 C17        -1.1490   -1.2010    8.3100 c3        1 L3G     -0.114400
     24 C18        -2.9720   -1.1570   -5.8420 c         1 L3G      0.702300
     25 C19        -1.1380    0.1520    7.5830 c3        1 L3G      0.193500
     26 C20        -3.9650   -0.9890   -6.9330 cc        1 L3G     -0.144300
     27 O2         -2.0470   -1.9820   -5.9550 o         1 L3G     -0.579100
     28 N7         -1.0350    0.0680    6.1200 n3        1 L3G     -0.735600
     29 N8         -4.5250    0.2410   -7.3460 na        1 L3G     -0.067400
     30 C21        -4.4970   -2.0390   -7.6810 cd        1 L3G     -0.097200
     31 C22        -0.4870    1.2960    5.5570 c3        1 L3G      0.173300
     32 C23        -0.3620   -1.1220    5.6250 c3        1 L3G      0.173300
     33 C24        -5.3920   -0.0330   -8.4130 ca        1 L3G     -0.026200
     34 C25        -4.0350    1.5370   -7.0060 c3        1 L3G      0.019600
     35 C26        -5.4170   -1.4620   -8.6310 ca        1 L3G     -0.113800
     36 C27        -0.4270    1.2930    4.0310 c3        1 L3G     -0.091900
     37 C28        -0.2810   -1.1860    4.1000 c3        1 L3G     -0.091900
     38 C29        -6.1840    0.8260   -9.1960 ca        1 L3G     -0.148000
     39 C30        -6.2420   -1.9970   -9.6230 ca        1 L3G     -0.070000
     40 C10         0.3910    0.0830    3.5600 c3        1 L3G      0.078000
     41 C31        -6.9840    0.2560  -10.1720 ca        1 L3G     -0.100000
     42 C32        -7.0160   -1.1360  -10.3850 ca        1 L3G     -0.161000
     43 O3         -2.4360   -0.2400   10.1520 os        1 L3G     -0.413600
     44 H6         -1.8750    1.6140   -0.7540 ha        1 L3G      0.153000
     45 H7          0.1400   -2.0270   -1.9230 ha        1 L3G      0.150000
     46 H5N1        3.1840   -0.1300   -2.8520 hn        1 L3G      0.447300
     47 H5N2        1.4960   -0.1160   -2.5720 hn        1 L3G      0.447300
     48 H9         -1.2250   -2.1670   -3.9660 ha        1 L3G      0.179000
     49 H11         5.0860    0.0460    1.3480 h5        1 L3G      0.051100
     50 H132       -3.4710    1.4570    9.8310 h1        1 L3G      0.047200
     51 H141       -1.4070   -1.9610   10.3440 h1        1 L3G      0.047200
     52 H142       -0.3630   -0.4570   10.2050 h1        1 L3G      0.047200
     53 HA         -3.9480    0.2410   -4.6910 hn        1 L3G      0.337500
     54 H151       -3.2530    3.1660   -1.4860 h1        1 L3G      0.047367
     55 H152       -4.9010    2.9190   -2.2620 h1        1 L3G      0.047367
     56 H153       -4.2880    1.7300   -0.9970 h1        1 L3G      0.047367
     57 H161       -2.4350    1.9310    7.5490 hc        1 L3G      0.058200
     58 H162       -3.3150    0.3480    7.6210 hc        1 L3G      0.058200
     59 H171       -0.2030   -1.7660    8.1120 hc        1 L3G      0.058200
     60 H172       -2.0140   -1.8180    7.9520 hc        1 L3G      0.058200
     61 H19        -0.2530    0.7350    7.9960 h1        1 L3G      0.022700
     62 H21        -4.2580   -3.0940   -7.5670 ha        1 L3G      0.172000
     63 H221       -1.1530    2.1460    5.8800 h1        1 L3G      0.034700
     64 H222        0.5510    1.5070    5.9540 h1        1 L3G      0.034700
     65 H231       -0.9520   -2.0200    5.9670 h1        1 L3G      0.034700
     66 H232        0.6850   -1.2140    6.0420 h1        1 L3G      0.034700
     67 H251       -4.5590    1.9130   -6.0840 h1        1 L3G      0.055367
     68 H252       -2.9290    1.5030   -6.8090 h1        1 L3G      0.055367
     69 H253       -4.2320    2.2540   -7.8470 h1        1 L3G      0.055367
     70 H271       -1.4620    1.2500    3.6030 hc        1 L3G      0.065200
     71 H272        0.0510    2.2470    3.6950 hc        1 L3G      0.065200
     72 H281        0.3110   -2.0940    3.8180 hc        1 L3G      0.065200
     73 H282       -1.3090   -1.2910    3.6650 hc        1 L3G      0.065200
     74 H29        -6.1700    1.9120   -9.0360 ha        1 L3G      0.134000
     75 H30        -6.2690   -3.0830   -9.7900 ha        1 L3G      0.138000
     76 H10         1.4310    0.1580    4.0010 h1        1 L3G      0.088700
     77 H31        -7.6130    0.9040  -10.8000 ha        1 L3G      0.132000
     78 H32        -7.6700   -1.5390  -11.1720 ha        1 L3G      0.133000
     79 H131       -1.6480    1.6720    9.8890 h1        1 L3G      0.047200
@<TRIPOS>BOND
     1    1    2 1   
     2    1    3 1   
     3    1    4 2   
     4    2    5 ar  
     5    2    6 ar  
     6    3    7 ar  
     7    3    8 ar  
     8    4    9 1   
     9    5    9 1   
    10    5   10 ar  
    11    6   11 ar  
    12    6   12 1   
    13    7   13 ar  
    14    7   44 1   
    15    8   14 ar  
    16    8   45 1   
    17    9   40 1   
    18   10   15 ar  
    19   11   15 ar  
    20   12   46 1   
    21   12   47 1   
    22   13   16 ar  
    23   13   17 1   
    24   14   16 ar  
    25   14   48 1   
    26   15   49 1   
    27   16   20 1   
    28   17   21 1   
    29   18   22 1   
    30   18   43 1   
    31   18   50 1   
    32   18   79 1   
    33   19   23 1   
    34   19   43 1   
    35   19   51 1   
    36   19   52 1   
    37   20   24 1   
    38   20   53 1   
    39   21   54 1   
    40   21   55 1   
    41   21   56 1   
    42   22   25 1   
    43   22   57 1   
    44   22   58 1   
    45   23   25 1   
    46   23   59 1   
    47   23   60 1   
    48   24   26 1   
    49   24   27 2   
    50   25   28 1   
    51   25   61 1   
    52   26   29 1   
    53   26   30 2   
    54   28   31 1   
    55   28   32 1   
    56   29   33 1   
    57   29   34 1   
    58   30   35 1   
    59   30   62 1   
    60   31   36 1   
    61   31   63 1   
    62   31   64 1   
    63   32   37 1   
    64   32   65 1   
    65   32   66 1   
    66   33   35 ar  
    67   33   38 ar  
    68   34   67 1   
    69   34   68 1   
    70   34   69 1   
    71   35   39 ar  
    72   36   40 1   
    73   36   70 1   
    74   36   71 1   
    75   37   40 1   
    76   37   72 1   
    77   37   73 1   
    78   38   41 ar  
    79   38   74 1   
    80   39   42 ar  
    81   39   75 1   
    82   40   76 1   
    83   41   42 ar  
    84   41   77 1   
    85   42   78 1   
@<TRIPOS>SUBSTRUCTURE
     1 L3G         1 TEMP              0 ****  ****    0 ROOT
