@<TRIPOS>MOLECULE
L3G
   79    72     1     0     0
SMALL
bcc


@<TRIPOS>ATOM
      1 C1          0.6430    0.2650    0.0910 c2        1 L3G     -0.031000
      2 C2          2.0250    0.1320    0.0820 c1        1 L3G     -0.286000
      3 C3         -0.3560    0.2970   -0.8960 c1        1 L3G     -0.016000
      4 N1          0.2370    0.3010    1.3770 n2        1 L3G     -0.042000
      5 C4          2.4480    0.0890    1.3620 c1        1 L3G      0.086000
      6 C5          2.9510    0.1250   -0.9560 c1        1 L3G      0.245000
      7 C6         -0.7730   -0.9770   -1.2610 c1        1 L3G     -0.144000
      8 C7         -0.8210    1.4120   -1.5930 c1        1 L3G     -0.129000
      9 N2          1.3500    0.1920    2.1760 n1        1 L3G     -0.135000
     10 N3          3.7810    0.0370    1.6350 n1        1 L3G     -0.217000
     11 N4          4.2480    0.0750   -0.6850 n1        1 L3G     -0.277000
     12 N5          3.3450    0.2790   -2.3240 n3        1 L3G     -0.361000
     13 C8         -1.6660   -1.1440   -2.3350 c1        1 L3G      0.023000
     14 C9         -1.7100    1.2510   -2.6630 c1        1 L3G     -0.139000
     15 C11         4.6800    0.0300    0.6260 c1        1 L3G      0.033000
     16 C12        -2.1320   -0.0290   -3.0330 c1        1 L3G      0.065000
     17 O1         -2.0060   -2.4600   -2.7800 os        1 L3G     -0.232000
     18 C13         4.4160   -0.8930    9.5250 c3        1 L3G     -0.024500
     19 C14         3.2710    1.2540    9.6860 c3        1 L3G     -0.024500
     20 N6         -2.9480   -0.2030   -4.1780 n         1 L3G     -0.314000
     21 C15        -1.0510   -3.0350   -3.6220 c3        1 L3G     -0.073000
     22 C16         4.1810   -0.9150    8.0180 c3        1 L3G     -0.193000
     23 C17         3.0360    1.2450    8.1920 c3        1 L3G     -0.193000
     24 C18        -2.9760    0.8110   -5.2050 c2        1 L3G      0.375000
     25 C19         3.0100   -0.1420    7.6290 c3        1 L3G     -0.003000
     26 C20        -3.8670    0.6320   -6.4300 c2        1 L3G     -0.100000
     27 O2         -2.2690    1.8620   -5.0810 o         1 L3G     -0.336000
     28 N7          2.9580   -0.0630    6.1320 n3        1 L3G     -0.261000
     29 N8         -3.8850   -0.0680   -7.6190 n2        1 L3G     -0.150000
     30 C21        -5.0330    1.3800   -6.3550 c1        1 L3G     -0.114000
     31 C22         2.2410   -1.2600    5.5930 c3        1 L3G     -0.060500
     32 C23         2.3310    1.2100    5.7340 c3        1 L3G     -0.060500
     33 C24        -5.0650    0.2430   -8.2860 c1        1 L3G      0.010000
     34 C25        -3.0390   -1.1320   -8.2330 c2        1 L3G     -0.085000
     35 C26        -5.7730    1.1350   -7.5100 c1        1 L3G     -0.097000
     36 C27         2.0120   -1.1750    4.0670 c3        1 L3G     -0.176500
     37 C28         2.1010    1.3080    4.2070 c3        1 L3G     -0.176500
     38 C29        -5.6070   -0.2120   -9.5140 c1        1 L3G     -0.143000
     39 C30        -7.0250    1.5900   -7.9340 c1        1 L3G     -0.074000
     40 C10         1.3710    0.1110    3.6600 c2        1 L3G      0.062000
     41 C31        -6.8530    0.2410   -9.9370 c1        1 L3G     -0.130000
     42 C32        -7.5640    1.1360   -9.1570 c1        1 L3G     -0.130000
     43 O3          4.4390    0.4720   10.0720 os        1 L3G     -0.270000
     44 H6         -0.4480   -1.7520   -0.7740 ha        1 L3G      0.153000
     45 H7         -0.5200    2.3220   -1.3300 ha        1 L3G      0.150000
     46 H5N1        4.2260    0.2280   -2.5530 hn        1 L3G      0.242500
     47 H5N2        2.7000    0.3660   -2.9840 hn        1 L3G      0.242500
     48 H9         -2.0530    2.0750   -3.1750 ha        1 L3G      0.178000
     49 H11         5.6380   -0.0070    0.8260 ha        1 L3G      0.189000
     50 H131        3.7000   -1.3940    9.9610 h1        1 L3G      0.086250
     51 H132        5.2880   -1.3380    9.7220 h1        1 L3G      0.086250
     52 H141        2.4860    0.8860   10.1280 h1        1 L3G      0.086250
     53 H142        3.4030    2.2170    9.9930 h1        1 L3G      0.086250
     54 HA         -3.4760   -0.9480   -4.2530 hn        1 L3G      0.255000
     55 H151       -1.5060   -3.7070   -4.2410 h1        1 L3G      0.087000
     56 H152       -0.3700   -3.4960   -3.0830 h1        1 L3G      0.087000
     57 H153       -0.6080   -2.3080   -4.1750 h1        1 L3G      0.087000
     58 H161        4.0560   -1.8440    7.7310 hc        1 L3G      0.098250
     59 H162        4.9680   -0.5480    7.5680 hc        1 L3G      0.098250
     60 H171        2.1840    1.6760    8.0060 hc        1 L3G      0.098250
     61 H172        3.7100    1.7250    7.7790 hc        1 L3G      0.098250
     62 H19         2.2400   -0.5820    7.9380 h1        1 L3G      0.060000
     63 H21        -5.2490    2.0630   -5.6500 DU        1 L3G      0.169000
     64 H221        1.4030   -1.3360    6.0240 h1        1 L3G      0.072250
     65 H222        2.7880   -2.0830    5.7930 h1        1 L3G      0.072250
     66 H231        1.5200    1.2890    6.1630 h1        1 L3G      0.072250
     67 H232        2.9260    1.9680    6.0220 h1        1 L3G      0.072250
     68 H251       -2.4070   -1.4770   -7.5610 ha        1 L3G      0.094333
     69 H252       -3.6240   -1.8810   -8.5580 ha        1 L3G      0.094333
     70 H253       -2.5310   -0.7500   -9.0030 ha        1 L3G      0.094333
     71 H271        1.4150   -1.9480    3.7790 hc        1 L3G      0.109000
     72 H272        2.9030   -1.2570    3.5970 hc        1 L3G      0.109000
     73 H281        1.5420    2.1720    4.0030 hc        1 L3G      0.109000
     74 H282        2.9860    1.3820    3.7520 hc        1 L3G      0.109000
     75 H29        -5.1180   -0.8270  -10.0510 ha        1 L3G      0.135000
     76 H30        -7.5120    2.2010   -7.4020 ha        1 L3G      0.138000
     77 H10         0.3970    0.1260    4.0100 ha        1 L3G      0.117000
     78 H31        -7.2370   -0.0850  -10.8100 ha        1 L3G      0.132500
     79 H32        -8.4790    1.4680   -9.4640 ha        1 L3G      0.132500
@<TRIPOS>BOND
     1    1    2 1   
     2    1    3 1   
     3    1    4 1   
     4    2    6 1   
     5    3    8 1   
     6    4    9 1   
     7    5   10 1   
     8    6   12 1   
     9    7   13 1   
    10    7   44 1   
    11    8   45 1   
    12   11   15 1   
    13   12   46 1   
    14   12   47 1   
    15   13   17 1   
    16   14   16 1   
    17   14   48 1   
    18   15   49 1   
    19   16   20 1   
    20   17   21 1   
    21   18   22 1   
    22   18   43 1   
    23   18   50 1   
    24   18   51 1   
    25   19   23 1   
    26   19   43 1   
    27   19   52 1   
    28   19   53 1   
    29   20   24 1   
    30   20   54 1   
    31   21   55 1   
    32   21   56 1   
    33   21   57 1   
    34   22   25 1   
    35   22   58 1   
    36   22   59 1   
    37   23   25 1   
    38   23   60 1   
    39   23   61 1   
    40   24   26 1   
    41   24   27 1   
    42   25   28 1   
    43   25   62 1   
    44   26   29 1   
    45   26   30 1   
    46   28   31 1   
    47   28   32 1   
    48   29   33 1   
    49   30   35 1   
    50   31   36 1   
    51   31   64 1   
    52   31   65 1   
    53   32   37 1   
    54   32   66 1   
    55   32   67 1   
    56   33   38 1   
    57   34   68 1   
    58   34   69 1   
    59   34   70 1   
    60   35   39 1   
    61   36   40 1   
    62   36   71 1   
    63   36   72 1   
    64   37   40 1   
    65   37   73 1   
    66   37   74 1   
    67   38   75 1   
    68   39   76 1   
    69   40   77 1   
    70   41   42 1   
    71   41   78 1   
    72   42   79 1   
@<TRIPOS>SUBSTRUCTURE
     1 L3G         1 TEMP              0 ****  ****    0 ROOT
