@<TRIPOS>MOLECULE
L3G
   79    85     1     0     0
SMALL
bcc


@<TRIPOS>ATOM
      1 C1          0.0640   -0.0880   -0.0290 cc        1 L3G      0.422500
      2 C2          1.5130   -0.0770    0.0300 ca        1 L3G     -0.497500
      3 C3         -0.7590   -0.1740   -1.2280 ca        1 L3G     -0.100900
      4 N1         -0.4450   -0.0020    1.2280 nd        1 L3G     -0.506100
      5 C4          1.8170    0.0140    1.4500 ca        1 L3G      0.475800
      6 C5          2.6220   -0.1020   -0.8720 ca        1 L3G      0.767200
      7 C6         -1.7320    0.8020   -1.4760 ca        1 L3G     -0.142000
      8 C7         -0.6020   -1.2320   -2.1260 ca        1 L3G     -0.129000
      9 N2          0.5720    0.0690    2.1070 na        1 L3G      0.000200
     10 N3          3.0910    0.0550    1.9530 nb        1 L3G     -0.747000
     11 N4          3.9020   -0.0550   -0.3650 nb        1 L3G     -0.803000
     12 N5          2.4200   -0.1910   -2.2250 nv        1 L3G     -0.963500
     13 C8         -2.5180    0.7270   -2.6250 ca        1 L3G      0.066100
     14 C9         -1.3830   -1.3150   -3.2760 ca        1 L3G     -0.140000
     15 C11         4.0350    0.0130    0.9870 ca        1 L3G      0.696900
     16 C12        -2.3570   -0.3390   -3.5650 ca        1 L3G      0.059600
     17 O1         -3.4670    1.6890   -2.9420 os        1 L3G     -0.351900
     18 C13        -2.4920    1.0050    9.5080 c3        1 L3G      0.125900
     19 C14        -1.2590   -0.9940    9.8080 c3        1 L3G      0.125900
     20 N6         -3.1690   -0.3770   -4.7070 ns        1 L3G     -0.462100
     21 C15        -3.9910    2.4260   -1.8410 c3        1 L3G      0.116700
     22 C16        -2.4240    0.8830    7.9970 c3        1 L3G     -0.114400
     23 C17        -1.1340   -1.2100    8.3090 c3        1 L3G     -0.114400
     24 C18        -2.9760   -1.1560   -5.8400 c         1 L3G      0.702300
     25 C19        -1.1360    0.1430    7.5830 c3        1 L3G      0.193500
     26 C20        -3.9670   -0.9860   -6.9320 cc        1 L3G     -0.144300
     27 O2         -2.0540   -1.9850   -5.9500 o         1 L3G     -0.579100
     28 N7         -1.0330    0.0610    6.1200 n3        1 L3G     -0.735600
     29 N8         -4.5230    0.2440   -7.3480 na        1 L3G     -0.067400
     30 C21        -4.5040   -2.0370   -7.6770 cd        1 L3G     -0.097200
     31 C22        -0.4980    1.2950    5.5570 c3        1 L3G      0.173300
     32 C23        -0.3490   -1.1210    5.6240 c3        1 L3G      0.173300
     33 C24        -5.3910   -0.0290   -8.4140 ca        1 L3G     -0.026200
     34 C25        -4.0260    1.5390   -7.0120 c3        1 L3G      0.019600
     35 C26        -5.4210   -1.4590   -8.6280 ca        1 L3G     -0.113800
     36 C27        -0.4380    1.2930    4.0310 c3        1 L3G     -0.091900
     37 C28        -0.2680   -1.1840    4.0990 c3        1 L3G     -0.091900
     38 C29        -6.1790    0.8310   -9.2000 ca        1 L3G     -0.148000
     39 C30        -6.2480   -1.9930   -9.6190 ca        1 L3G     -0.070000
     40 C10         0.3920    0.0920    3.5590 c3        1 L3G      0.078000
     41 C31        -6.9810    0.2610  -10.1740 ca        1 L3G     -0.100000
     42 C32        -7.0190   -1.1310  -10.3830 ca        1 L3G     -0.161000
     43 O3         -2.4290   -0.2630   10.1520 os        1 L3G     -0.413600
     44 H6         -1.8700    1.6250   -0.7590 ha        1 L3G      0.153000
     45 H7          0.1340   -2.0250   -1.9190 ha        1 L3G      0.150000
     46 H5N1        1.4960   -0.1190   -2.5730 hn        1 L3G      0.447300
     47 H5N2        3.1840   -0.1390   -2.8520 hn        1 L3G      0.447300
     48 H9         -1.2320   -2.1660   -3.9620 ha        1 L3G      0.179000
     49 H11         5.0860    0.0420    1.3470 h5        1 L3G      0.051100
     50 H132       -3.4820    1.4240    9.8320 h1        1 L3G      0.047200
     51 H141       -0.3550   -0.4580   10.2040 h1        1 L3G      0.047200
     52 H142       -1.3840   -1.9730   10.3430 h1        1 L3G      0.047200
     53 HA         -3.9450    0.2500   -4.6940 hn        1 L3G      0.337500
     54 H151       -4.2820    1.7480   -1.0020 h1        1 L3G      0.047367
     55 H152       -4.8900    2.9360   -2.2710 h1        1 L3G      0.047367
     56 H153       -3.2420    3.1790   -1.4960 h1        1 L3G      0.047367
     57 H161       -2.4520    1.9090    7.5500 hc        1 L3G      0.058200
     58 H162       -3.3160    0.3180    7.6220 hc        1 L3G      0.058200
     59 H171       -1.9920   -1.8350    7.9510 hc        1 L3G      0.058200
     60 H172       -0.1820   -1.7650    8.1110 hc        1 L3G      0.058200
     61 H19        -0.2580    0.7350    7.9950 h1        1 L3G      0.022700
     62 H21        -4.2700   -3.0920   -7.5590 ha        1 L3G      0.172000
     63 H221       -1.1710    2.1380    5.8810 h1        1 L3G      0.034700
     64 H222        0.5380    1.5160    5.9540 h1        1 L3G      0.034700
     65 H231        0.6990   -1.2040    6.0400 h1        1 L3G      0.034700
     66 H232       -0.9300   -2.0250    5.9650 h1        1 L3G      0.034700
     67 H251       -2.9210    1.5010   -6.8150 h1        1 L3G      0.055367
     68 H252       -4.2210    2.2540   -7.8560 h1        1 L3G      0.055367
     69 H253       -4.5490    1.9210   -6.0910 h1        1 L3G      0.055367
     70 H271        0.0300    2.2530    3.6950 hc        1 L3G      0.065450
     71 H272       -1.4730    1.2400    3.6040 hc        1 L3G      0.065450
     72 H281        0.3330   -2.0860    3.8170 hc        1 L3G      0.065450
     73 H282       -1.2950   -1.2990    3.6640 hc        1 L3G      0.065450
     74 H29        -6.1610    1.9170   -9.0430 ha        1 L3G      0.134000
     75 H30        -6.2800   -3.0790   -9.7830 ha        1 L3G      0.138000
     76 H10         1.4310    0.1760    4.0000 h1        1 L3G      0.088700
     77 H31        -7.6080    0.9100  -10.8040 ha        1 L3G      0.132000
     78 H32        -7.6750   -1.5330  -11.1690 ha        1 L3G      0.133000
     79 H131       -1.6610    1.6570    9.8900 h1        1 L3G      0.047200
@<TRIPOS>BOND
     1    1    2 1   
     2    1    3 1   
     3    1    4 2   
     4    2    5 ar  
     5    2    6 ar  
     6    3    7 ar  
     7    3    8 ar  
     8    4    9 1   
     9    5    9 1   
    10    5   10 ar  
    11    6   11 ar  
    12    6   12 1   
    13    7   13 ar  
    14    7   44 1   
    15    8   14 ar  
    16    8   45 1   
    17    9   40 1   
    18   10   15 ar  
    19   11   15 ar  
    20   12   46 1   
    21   12   47 1   
    22   13   16 ar  
    23   13   17 1   
    24   14   16 ar  
    25   14   48 1   
    26   15   49 1   
    27   16   20 1   
    28   17   21 1   
    29   18   22 1   
    30   18   43 1   
    31   18   50 1   
    32   18   79 1   
    33   19   23 1   
    34   19   43 1   
    35   19   51 1   
    36   19   52 1   
    37   20   24 1   
    38   20   53 1   
    39   21   54 1   
    40   21   55 1   
    41   21   56 1   
    42   22   25 1   
    43   22   57 1   
    44   22   58 1   
    45   23   25 1   
    46   23   59 1   
    47   23   60 1   
    48   24   26 1   
    49   24   27 2   
    50   25   28 1   
    51   25   61 1   
    52   26   29 1   
    53   26   30 2   
    54   28   31 1   
    55   28   32 1   
    56   29   33 1   
    57   29   34 1   
    58   30   35 1   
    59   30   62 1   
    60   31   36 1   
    61   31   63 1   
    62   31   64 1   
    63   32   37 1   
    64   32   65 1   
    65   32   66 1   
    66   33   35 ar  
    67   33   38 ar  
    68   34   67 1   
    69   34   68 1   
    70   34   69 1   
    71   35   39 ar  
    72   36   40 1   
    73   36   70 1   
    74   36   71 1   
    75   37   40 1   
    76   37   72 1   
    77   37   73 1   
    78   38   41 ar  
    79   38   74 1   
    80   39   42 ar  
    81   39   75 1   
    82   40   76 1   
    83   41   42 ar  
    84   41   77 1   
    85   42   78 1   
@<TRIPOS>SUBSTRUCTURE
     1 L3G         1 TEMP              0 ****  ****    0 ROOT
