@<TRIPOS>MOLECULE
L3G
   79    85     1     0     0
SMALL
bcc


@<TRIPOS>ATOM
      1 C1          1.0930   -1.5330   -0.0380 cc        1 L3G      0.422500
      2 C2          1.5570   -2.9070   -0.0750 ca        1 L3G     -0.497500
      3 C3         -0.2910   -1.0820    0.0080 ca        1 L3G     -0.100900
      4 N1          2.1580   -0.6900   -0.0570 nd        1 L3G     -0.506100
      5 C4          3.0070   -2.7980   -0.1070 ca        1 L3G      0.474800
      6 C5          1.0020   -4.2250   -0.1130 ca        1 L3G      0.767200
      7 C6         -0.7660   -0.1880   -0.9600 ca        1 L3G     -0.142000
      8 C7         -1.1500   -1.5170    1.0210 ca        1 L3G     -0.129000
      9 N2          3.2900   -1.4180   -0.1100 na        1 L3G      0.000200
     10 N3          3.8490   -3.8780   -0.1500 nb        1 L3G     -0.747000
     11 N4          1.8500   -5.3090   -0.1620 nb        1 L3G     -0.803000
     12 N5         -0.3550   -4.4120   -0.0820 nh        1 L3G     -0.963500
     13 C8         -2.0910    0.2430   -0.9230 ca        1 L3G      0.066100
     14 C9         -2.4740   -1.0920    1.0660 ca        1 L3G     -0.140000
     15 C11         3.1860   -5.0560   -0.1700 ca        1 L3G      0.696900
     16 C12        -2.9880   -0.2080    0.0970 ca        1 L3G      0.060600
     17 O1         -2.6250    1.0940   -1.8800 os        1 L3G     -0.351900
     18 C13         9.5600    3.6350   -0.5450 c3        1 L3G      0.125900
     19 C14        10.1220    2.4290    1.4120 c3        1 L3G      0.125900
     20 N6         -4.3130    0.2500    0.0980 n         1 L3G     -0.462100
     21 C15        -1.6880    1.9280   -2.5560 c3        1 L3G      0.116700
     22 C16         8.1260    3.1410   -0.5030 c3        1 L3G     -0.114400
     23 C17         8.7120    1.8790    1.5480 c3        1 L3G     -0.114400
     24 C18        -5.3750   -0.2760    0.8220 c         1 L3G      0.702300
     25 C19         8.0640    1.7520    0.1610 c3        1 L3G      0.193500
     26 C20        -6.6940    0.3760    0.6210 cc        1 L3G     -0.144300
     27 O2         -5.2530   -1.2150    1.6280 o         1 L3G     -0.579100
     28 N7          6.6870    1.2400    0.1650 n3        1 L3G     -0.735600
     29 N8         -7.2020    0.8290   -0.6170 na        1 L3G     -0.067400
     30 C21        -7.5980    0.6520    1.6470 cd        1 L3G     -0.097200
     31 C22         6.3430    0.6360   -1.1160 c3        1 L3G      0.173300
     32 C23         6.3600    0.3830    1.2930 c3        1 L3G      0.173300
     33 C24        -8.4790    1.3550   -0.3760 ca        1 L3G     -0.026200
     34 C25        -6.6920    0.4840   -1.9040 c3        1 L3G      0.019600
     35 C26        -8.7460    1.2830    1.0440 ca        1 L3G     -0.113800
     36 C27         4.8960    0.1530   -1.1930 c3        1 L3G     -0.091900
     37 C28         4.9180   -0.1240    1.2750 c3        1 L3G     -0.091900
     38 C29        -9.4210    1.9170   -1.2560 ca        1 L3G     -0.148000
     39 C30        -9.9490    1.7840    1.5470 ca        1 L3G     -0.070000
     40 C10         4.6320   -0.8390   -0.0520 c3        1 L3G      0.078000
     41 C31       -10.6020    2.3980   -0.7160 ca        1 L3G     -0.100000
     42 C32       -10.8650    2.3350    0.6660 ca        1 L3G     -0.161000
     43 O3         10.1490    3.6860    0.7490 os        1 L3G     -0.413600
     44 H6         -0.0850    0.1700   -1.7460 ha        1 L3G      0.153000
     45 H7         -0.7740   -2.1890    1.8090 ha        1 L3G      0.150000
     46 H5N1       -0.7400   -5.3190   -0.1780 hn        1 L3G      0.447300
     47 H5N2       -0.9460   -3.6200   -0.1520 hn        1 L3G      0.447300
     48 H9         -3.1220   -1.4560    1.8820 ha        1 L3G      0.179000
     49 H11         3.8280   -5.9630   -0.2030 h5        1 L3G      0.051100
     50 H132        9.6080    4.6970   -0.9060 h1        1 L3G      0.047200
     51 H141       10.7760    1.7010    0.8600 h1        1 L3G      0.047200
     52 H142       10.5640    2.6440    2.4210 h1        1 L3G      0.047200
     53 HA         -4.4940    1.0180   -0.5140 hn        1 L3G      0.337500
     54 H151       -0.9910    2.4210   -1.8360 h1        1 L3G      0.047367
     55 H152       -1.1170    1.3290   -3.3070 h1        1 L3G      0.047367
     56 H153       -2.3330    2.6850   -3.0690 h1        1 L3G      0.047367
     57 H161        7.7270    3.0990   -1.5480 hc        1 L3G      0.058200
     58 H162        7.4950    3.8610    0.0790 hc        1 L3G      0.058200
     59 H171        8.1040    2.5680    2.1900 hc        1 L3G      0.058200
     60 H172        8.7690    0.8810    2.0530 hc        1 L3G      0.058200
     61 H19         8.7280    1.0560   -0.4450 h1        1 L3G      0.022700
     62 H21        -7.4600    0.4290    2.7020 ha        1 L3G      0.172000
     63 H221        7.0230   -0.2360   -1.3590 h1        1 L3G      0.034700
     64 H222        6.4950    1.4160   -1.9140 h1        1 L3G      0.034700
     65 H231        7.0500   -0.5100    1.3530 h1        1 L3G      0.034700
     66 H232        6.4910    0.9870    2.2350 h1        1 L3G      0.034700
     67 H251       -5.9410    1.2540   -2.2350 h1        1 L3G      0.055367
     68 H252       -6.1940   -0.5220   -1.8760 h1        1 L3G      0.055367
     69 H253       -7.5290    0.4550   -2.6520 h1        1 L3G      0.055367
     70 H271        4.7410   -0.3390   -2.1870 hc        1 L3G      0.065200
     71 H272        4.1940    1.0230   -1.1200 hc        1 L3G      0.065200
     72 H281        4.2080    0.7330    1.4100 hc        1 L3G      0.065200
     73 H282        4.7830   -0.8270    2.1360 hc        1 L3G      0.065200
     74 H29        -9.2240    1.9750   -2.3340 ha        1 L3G      0.134000
     75 H30       -10.1560    1.7370    2.6260 ha        1 L3G      0.138000
     76 H10         5.3500   -1.7080   -0.1570 h1        1 L3G      0.088700
     77 H31       -11.3580    2.8420   -1.3810 ha        1 L3G      0.132000
     78 H32       -11.8180    2.7320    1.0440 ha        1 L3G      0.133000
     79 H131       10.1840    2.9800   -1.2120 h1        1 L3G      0.047200
@<TRIPOS>BOND
     1    1    2 1   
     2    1    3 1   
     3    1    4 2   
     4    2    5 ar  
     5    2    6 ar  
     6    3    7 ar  
     7    3    8 ar  
     8    4    9 1   
     9    5    9 1   
    10    5   10 ar  
    11    6   11 ar  
    12    6   12 1   
    13    7   13 ar  
    14    7   44 1   
    15    8   14 ar  
    16    8   45 1   
    17    9   40 1   
    18   10   15 ar  
    19   11   15 ar  
    20   12   46 1   
    21   12   47 1   
    22   13   16 ar  
    23   13   17 1   
    24   14   16 ar  
    25   14   48 1   
    26   15   49 1   
    27   16   20 1   
    28   17   21 1   
    29   18   22 1   
    30   18   43 1   
    31   18   50 1   
    32   18   79 1   
    33   19   23 1   
    34   19   43 1   
    35   19   51 1   
    36   19   52 1   
    37   20   24 1   
    38   20   53 1   
    39   21   54 1   
    40   21   55 1   
    41   21   56 1   
    42   22   25 1   
    43   22   57 1   
    44   22   58 1   
    45   23   25 1   
    46   23   59 1   
    47   23   60 1   
    48   24   26 1   
    49   24   27 2   
    50   25   28 1   
    51   25   61 1   
    52   26   29 1   
    53   26   30 2   
    54   28   31 1   
    55   28   32 1   
    56   29   33 1   
    57   29   34 1   
    58   30   35 1   
    59   30   62 1   
    60   31   36 1   
    61   31   63 1   
    62   31   64 1   
    63   32   37 1   
    64   32   65 1   
    65   32   66 1   
    66   33   35 ar  
    67   33   38 ar  
    68   34   67 1   
    69   34   68 1   
    70   34   69 1   
    71   35   39 ar  
    72   36   40 1   
    73   36   70 1   
    74   36   71 1   
    75   37   40 1   
    76   37   72 1   
    77   37   73 1   
    78   38   41 ar  
    79   38   74 1   
    80   39   42 ar  
    81   39   75 1   
    82   40   76 1   
    83   41   42 ar  
    84   41   77 1   
    85   42   78 1   
@<TRIPOS>SUBSTRUCTURE
     1 L3G         1 TEMP              0 ****  ****    0 ROOT
