@<TRIPOS>MOLECULE
L3G
   81    87     1     0     0
SMALL
bcc


@<TRIPOS>ATOM
      1 C1          0.5200    0.1860   -0.1960 cc        1 L3G      0.339500
      2 C2          1.9550    0.0670   -0.0560 ca        1 L3G     -0.411500
      3 C3         -0.2860    0.2950   -1.4060 ca        1 L3G     -0.021900
      4 N1         -0.0550    0.1520    1.0450 nd        1 L3G     -0.408100
      5 C4          2.1600   -0.0580    1.4040 ca        1 L3G      0.453800
      6 C5          3.1400    0.0620   -0.8130 ca        1 L3G      0.547200
      7 C6         -1.2610    1.2910   -1.4900 ca        1 L3G     -0.166000
      8 C7         -0.1500   -0.6420   -2.4430 ca        1 L3G     -0.200000
      9 N2          0.8760    0.0060    1.9780 na        1 L3G      0.061200
     10 N3          3.3890   -0.1970    1.9790 nb        1 L3G     -0.605000
     11 N4          4.3630   -0.0750   -0.2610 nb        1 L3G     -0.680000
     12 N5          3.0760    0.2280   -2.2830 n4        1 L3G     -0.832300
     13 C8         -2.1270    1.3370   -2.5930 ca        1 L3G      0.188100
     14 C9         -1.0040   -0.6080   -3.5400 ca        1 L3G     -0.035000
     15 C11         4.4160   -0.2020    1.1070 ca        1 L3G      0.690900
     16 C12        -2.0060    0.3740   -3.6330 ca        1 L3G     -0.072400
     17 O1         -3.1110    2.2760   -2.7590 os        1 L3G     -0.354900
     18 C13        -2.8690    0.8730    9.0540 c3        1 L3G      0.123400
     19 C14        -2.0980   -1.3480    9.2970 c3        1 L3G      0.123400
     20 N6         -2.9380    0.3870   -4.7560 n4        1 L3G     -0.539200
     21 C15        -3.3640    3.1700   -1.6650 c3        1 L3G      0.114700
     22 C16        -2.5690    0.8760    7.5640 c3        1 L3G     -0.114900
     23 C17        -1.7620   -1.4580    7.8180 c3        1 L3G     -0.114900
     24 C18        -3.6720   -0.9370   -5.0140 c         1 L3G      0.591300
     25 C19        -1.3940   -0.0740    7.2630 c3        1 L3G      0.191500
     26 C20        -4.5100   -0.9520   -6.1800 cc        1 L3G     -0.282300
     27 O2         -3.4350   -1.8530   -4.2370 o         1 L3G     -0.440100
     28 N7         -1.0660   -0.0490    5.8300 n3        1 L3G     -0.743600
     29 N8         -4.9070    0.1810   -6.9700 na        1 L3G     -0.058400
     30 C21        -4.8980   -2.1550   -6.8020 cd        1 L3G      0.064800
     31 C22        -0.1960    1.0690    5.4960 c3        1 L3G      0.173300
     32 C23        -0.5820   -1.3020    5.2780 c3        1 L3G      0.173300
     33 C24        -5.6360   -0.3640   -8.0610 ca        1 L3G      0.003800
     34 C25        -5.3830    1.3870   -6.3450 c3        1 L3G     -0.023400
     35 C26        -5.6070   -1.8080   -7.9970 ca        1 L3G     -0.152800
     36 C27         0.0190    1.2240    3.9880 c3        1 L3G     -0.094400
     37 C28        -0.3650   -1.2360    3.7620 c3        1 L3G     -0.094400
     38 C29        -6.2680    0.2890   -9.1290 ca        1 L3G     -0.154000
     39 C30        -6.2070   -2.5680   -9.0090 ca        1 L3G     -0.037000
     40 C10         0.5910   -0.0850    3.4340 c3        1 L3G      0.064000
     41 C31        -6.8550   -0.4980  -10.1110 ca        1 L3G     -0.040000
     42 C32        -6.8270   -1.9050  -10.0550 ca        1 L3G     -0.140000
     43 O3         -3.1600   -0.4340    9.5310 os        1 L3G     -0.401600
     44 H6         -1.3740    2.0230   -0.6720 ha        1 L3G      0.185000
     45 H7          0.5620   -1.4780   -2.3470 ha        1 L3G      0.156000
     46 H5N1        2.0940    0.1700   -2.5810 hn        1 L3G      0.476467
     47 H5N2        3.6280   -0.5070   -2.7470 hn        1 L3G      0.476467
     48 H9         -0.9190   -1.3900   -4.3160 ha        1 L3G      0.171000
     49 H11         5.4420   -0.3180    1.5330 h5        1 L3G      0.113100
     50 H141       -2.4870   -2.3250    9.6910 h1        1 L3G      0.056700
     51 H142       -1.1930   -1.0350    9.8840 h1        1 L3G      0.056700
     52 HA         -2.4270    0.6360   -5.6120 hn        1 L3G      0.470300
     53 H151       -2.4770    3.8270   -1.4980 h1        1 L3G      0.076367
     54 H152       -4.2400    3.7650   -2.0330 h1        1 L3G      0.076367
     55 H153       -3.6280    2.5940   -0.7460 h1        1 L3G      0.076367
     56 H161       -3.4760    0.5420    6.9980 hc        1 L3G      0.056700
     57 H162       -2.3260    1.9210    7.2460 hc        1 L3G      0.056700
     58 H171       -2.6490   -1.8670    7.2690 hc        1 L3G      0.056700
     59 H172       -0.9070   -2.1730    7.7000 hc        1 L3G      0.056700
     60 H19        -0.4990    0.2890    7.8600 h1        1 L3G      0.032700
     61 H21        -4.6700   -3.1630   -6.4470 ha        1 L3G      0.190000
     62 H221       -0.6820    2.0130    5.8760 h1        1 L3G      0.050950
     63 H222        0.8160    0.9810    5.9930 h1        1 L3G      0.050950
     64 H231       -1.3620   -2.0950    5.4650 h1        1 L3G      0.050950
     65 H232        0.3820   -1.6380    5.7630 h1        1 L3G      0.050950
     66 H251       -6.2050    1.8480   -6.9610 h1        1 L3G      0.062367
     67 H252       -4.5370    2.1270   -6.3000 h1        1 L3G      0.062367
     68 H253       -5.7880    1.2040   -5.3140 h1        1 L3G      0.062367
     69 H271       -0.9540    1.4670    3.4880 hc        1 L3G      0.067200
     70 H272        0.7290    2.0720    3.8170 hc        1 L3G      0.067200
     71 H281        0.0620   -2.2150    3.4260 hc        1 L3G      0.067200
     72 H282       -1.3500   -1.0850    3.2480 hc        1 L3G      0.067200
     73 H29        -6.2950    1.3870   -9.1950 ha        1 L3G      0.157000
     74 H30        -6.1790   -3.6680   -8.9670 ha        1 L3G      0.162000
     75 H10         1.5930   -0.2870    3.9210 h1        1 L3G      0.103700
     76 H31        -7.3610   -0.0080  -10.9620 ha        1 L3G      0.165000
     77 H32        -7.3100   -2.4810  -10.8620 ha        1 L3G      0.168000
     78 H131       -2.0070    1.3020    9.6320 h1        1 L3G      0.056700
     79 H53         3.4670    1.1440   -2.5400 hn        1 L3G      0.476467
     80 H62        -3.6500    1.1150   -4.5830 hn        1 L3G      0.470300
     81 H132       -3.8030    1.4570    9.2750 h1        1 L3G      0.056700
@<TRIPOS>BOND
     1    1    2 1   
     2    1    3 1   
     3    1    4 2   
     4    2    5 ar  
     5    2    6 ar  
     6    3    7 ar  
     7    3    8 ar  
     8    4    9 1   
     9    5    9 1   
    10    5   10 ar  
    11    6   11 ar  
    12    6   12 1   
    13    7   13 ar  
    14    7   44 1   
    15    8   14 ar  
    16    8   45 1   
    17    9   40 1   
    18   10   15 ar  
    19   11   15 ar  
    20   12   46 1   
    21   12   47 1   
    22   12   79 1   
    23   13   16 ar  
    24   13   17 1   
    25   14   16 ar  
    26   14   48 1   
    27   15   49 1   
    28   16   20 1   
    29   17   21 1   
    30   18   22 1   
    31   18   43 1   
    32   18   78 1   
    33   18   81 1   
    34   19   23 1   
    35   19   43 1   
    36   19   50 1   
    37   19   51 1   
    38   20   24 1   
    39   20   52 1   
    40   20   80 1   
    41   21   53 1   
    42   21   54 1   
    43   21   55 1   
    44   22   25 1   
    45   22   56 1   
    46   22   57 1   
    47   23   25 1   
    48   23   58 1   
    49   23   59 1   
    50   24   26 1   
    51   24   27 2   
    52   25   28 1   
    53   25   60 1   
    54   26   29 1   
    55   26   30 2   
    56   28   31 1   
    57   28   32 1   
    58   29   33 1   
    59   29   34 1   
    60   30   35 1   
    61   30   61 1   
    62   31   36 1   
    63   31   62 1   
    64   31   63 1   
    65   32   37 1   
    66   32   64 1   
    67   32   65 1   
    68   33   35 ar  
    69   33   38 ar  
    70   34   66 1   
    71   34   67 1   
    72   34   68 1   
    73   35   39 ar  
    74   36   40 1   
    75   36   69 1   
    76   36   70 1   
    77   37   40 1   
    78   37   71 1   
    79   37   72 1   
    80   38   41 ar  
    81   38   73 1   
    82   39   42 ar  
    83   39   74 1   
    84   40   75 1   
    85   41   42 ar  
    86   41   76 1   
    87   42   77 1   
@<TRIPOS>SUBSTRUCTURE
     1 L3G         1 TEMP              0 ****  ****    0 ROOT
