@<TRIPOS>MOLECULE
L3L
   37    39     1     0     0
SMALL
bcc


@<TRIPOS>ATOM
      1 C1         -0.2830   -0.4870   -0.0620 ca        1 L3L     -0.101000
      2 C2          1.1020   -0.4840   -0.2080 ca        1 L3L     -0.059000
      3 C3         -0.8680   -0.3520    1.2010 ca        1 L3L     -0.045000
      4 C4          1.3820   -0.1940    2.1690 ca        1 L3L     -0.118600
      5 C5          1.9600   -0.3340    0.9070 ca        1 L3L     -0.138600
      6 C6         -0.0310   -0.2120    2.2970 ca        1 L3L     -0.084300
      7 C7          1.9420   -0.0350    3.5640 c         1 L3L      0.714100
      8 C8          3.3890   -0.3770    0.5800 c         1 L3L      0.568700
      9 C9         -0.4020   -0.0700    3.7540 c3        1 L3L      0.121300
     10 C10         1.6530    1.4420    6.3480 c3        1 L3L     -0.095400
     11 C11         1.6760   -1.0530    6.5380 c3        1 L3L     -0.095400
     12 C12         1.6500    1.5180    7.8740 c3        1 L3L      0.166800
     13 C13         1.6740   -0.8970    8.0590 c3        1 L3L      0.166800
     14 C14         0.9640    0.1460    5.8900 c3        1 L3L      0.119700
     15 N15         2.2530    0.3570    8.4950 n7        1 L3L     -0.825200
     16 N16         0.8820    0.0370    4.4440 n         1 L3L     -0.434800
     17 N17         4.3830    0.1200    1.5880 nz        1 L3L     -0.748400
     18 O18         3.1530    0.0350    3.8700 o         1 L3L     -0.704500
     19 O19         3.8940   -0.7640   -0.4680 o         1 L3L     -0.426100
     20 H1         -0.9230   -0.6040   -0.9540 ha        1 L3L      0.176000
     21 H2          1.5440   -0.6080   -1.2140 ha        1 L3L      0.177000
     22 H3         -1.9640   -0.3610    1.3190 ha        1 L3L      0.175000
     23 H11         1.1530   -2.0080    6.2780 hc        1 L3L      0.062700
     24 H11A        2.7300   -1.1120    6.1590 hc        1 L3L      0.062700
     25 H12         0.5850    1.6820    8.2160 h1        1 L3L      0.040200
     26 H12A        2.2510    2.4190    8.1890 h1        1 L3L      0.040200
     27 H13         0.6120   -1.0280    8.4240 h1        1 L3L      0.040200
     28 H13A        2.2930   -1.7270    8.5040 h1        1 L3L      0.040200
     29 H14        -0.1070    0.1650    6.2620 h1        1 L3L      0.067700
     30 HN15        2.2170    0.4330    9.4940 hn        1 L3L      0.382800
     31 HN17        4.4570   -0.5620    2.3650 hn        1 L3L      0.480467
     32 HN1A        5.3020    0.2490    1.1540 hn        1 L3L      0.480467
     33 H9         -1.0200    0.8540    3.9320 h1        1 L3L      0.095700
     34 H17        -0.9730   -0.9690    4.1190 h1        1 L3L      0.095700
     35 H10         2.7060    1.4630    5.9630 hc        1 L3L      0.062700
     36 H173        4.0590    1.0000    2.0100 hn        1 L3L      0.480467
     37 H10A        1.1130    2.3370    5.9460 hc        1 L3L      0.062700
@<TRIPOS>BOND
     1    1    2 ar  
     2    1    3 ar  
     3    1   20 1   
     4    2    5 ar  
     5    2   21 1   
     6    3    6 ar  
     7    3   22 1   
     8    4    5 ar  
     9    4    6 ar  
    10    4    7 1   
    11    5    8 1   
    12    6    9 1   
    13    7   16 1   
    14    7   18 2   
    15    8   17 1   
    16    8   19 2   
    17    9   16 1   
    18    9   33 1   
    19    9   34 1   
    20   10   12 1   
    21   10   14 1   
    22   10   35 1   
    23   10   37 1   
    24   11   13 1   
    25   11   14 1   
    26   11   23 1   
    27   11   24 1   
    28   12   15 1   
    29   12   25 1   
    30   12   26 1   
    31   13   15 1   
    32   13   27 1   
    33   13   28 1   
    34   14   16 1   
    35   14   29 1   
    36   15   30 1   
    37   17   31 1   
    38   17   32 1   
    39   17   36 1   
@<TRIPOS>SUBSTRUCTURE
     1 L3L         1 TEMP              0 ****  ****    0 ROOT
