@<TRIPOS>MOLECULE
L3L
   37    39     1     0     0
SMALL
bcc


@<TRIPOS>ATOM
      1 C1         -0.2890   -0.3900   -0.0690 ca        1 L3L     -0.101000
      2 C2          1.0950   -0.4280   -0.2130 ca        1 L3L     -0.059000
      3 C3         -0.8730   -0.2510    1.1940 ca        1 L3L     -0.045000
      4 C4          1.3800   -0.1700    2.1670 ca        1 L3L     -0.118600
      5 C5          1.9550   -0.3150    0.9040 ca        1 L3L     -0.138600
      6 C6         -0.0330   -0.1470    2.2930 ca        1 L3L     -0.084300
      7 C7          1.9420   -0.0420    3.5650 c         1 L3L      0.714100
      8 C8          3.3840   -0.3970    0.5790 c         1 L3L      0.568700
      9 C9         -0.4030   -0.0090    3.7500 c3        1 L3L      0.121300
     10 C10         1.6910    1.4160    6.3620 c3        1 L3L     -0.095400
     11 C11         1.6410   -1.0810    6.5280 c3        1 L3L     -0.095400
     12 C12         1.6880    1.4770    7.8890 c3        1 L3L      0.166800
     13 C13         1.6410   -0.9400    8.0500 c3        1 L3L      0.166800
     14 C14         0.9650    0.1450    5.8910 c3        1 L3L      0.119700
     15 N15         2.2550    0.2920    8.4990 n3        1 L3L     -0.825200
     16 N16         0.8820    0.0520    4.4440 n         1 L3L     -0.434800
     17 N17         4.3900    0.0590    1.5940 n4        1 L3L     -0.748400
     18 O18         3.1540   -0.0120    3.8730 o         1 L3L     -0.704500
     19 O19         3.8780   -0.7880   -0.4730 o         1 L3L     -0.426100
     20 H1         -0.9310   -0.4780   -0.9630 ha        1 L3L      0.176000
     21 H2          1.5350   -0.5540   -1.2200 ha        1 L3L      0.177000
     22 H3         -1.9690   -0.2280    1.3100 ha        1 L3L      0.175000
     23 H11         2.6930   -1.1670    6.1490 hc        1 L3L      0.062700
     24 H11A        1.0900   -2.0170    6.2580 hc        1 L3L      0.062700
     25 H12         0.6270    1.6690    8.2310 h1        1 L3L      0.040200
     26 H12A        2.3140    2.3560    8.2130 h1        1 L3L      0.040200
     27 H13         2.2340   -1.7920    8.4880 h1        1 L3L      0.040200
     28 H13A        0.5750   -1.0440    8.4120 h1        1 L3L      0.040200
     29 H14        -0.1050    0.1910    6.2610 h1        1 L3L      0.067700
     30 HN15        2.2200    0.3590    9.4990 hn        1 L3L      0.382800
     31 HN17        4.4410   -0.6340    2.3640 hn        1 L3L      0.480467
     32 HN1A        5.3140    0.1630    1.1630 hn        1 L3L      0.480467
     33 H9         -1.0010   -0.8940    4.1050 h1        1 L3L      0.095700
     34 H17        -0.9920    0.9320    3.9370 h1        1 L3L      0.095700
     35 H10         2.7450    1.4090    5.9790 hc        1 L3L      0.062700
     36 H173        4.0920    0.9440    2.0250 hn        1 L3L      0.480467
     37 H10A        1.1780    2.3300    5.9690 hc        1 L3L      0.062700
@<TRIPOS>BOND
     1    1    2 ar  
     2    1    3 ar  
     3    1   20 1   
     4    2    5 ar  
     5    2   21 1   
     6    3    6 ar  
     7    3   22 1   
     8    4    5 ar  
     9    4    6 ar  
    10    4    7 1   
    11    5    8 1   
    12    6    9 1   
    13    7   16 1   
    14    7   18 2   
    15    8   17 1   
    16    8   19 2   
    17    9   16 1   
    18    9   33 1   
    19    9   34 1   
    20   10   12 1   
    21   10   14 1   
    22   10   35 1   
    23   10   37 1   
    24   11   13 1   
    25   11   14 1   
    26   11   23 1   
    27   11   24 1   
    28   12   15 1   
    29   12   25 1   
    30   12   26 1   
    31   13   15 1   
    32   13   27 1   
    33   13   28 1   
    34   14   16 1   
    35   14   29 1   
    36   15   30 1   
    37   17   31 1   
    38   17   32 1   
    39   17   36 1   
@<TRIPOS>SUBSTRUCTURE
     1 L3L         1 TEMP              0 ****  ****    0 ROOT
