@<TRIPOS>MOLECULE
L3L
   36    38     1     0     0
SMALL
bcc


@<TRIPOS>ATOM
      1 C1         -3.6830    2.0270    0.7340 ca        1 L3L     -0.111000
      2 C2         -3.8750    0.6530    0.6500 ca        1 L3L     -0.095000
      3 C3         -2.4190    2.5910    0.5070 ca        1 L3L     -0.104000
      4 C4         -1.5640    0.3360    0.0940 ca        1 L3L     -0.134600
      5 C5         -2.8150   -0.2160    0.3210 ca        1 L3L     -0.061600
      6 C6         -1.3750    1.7420    0.1990 ca        1 L3L     -0.093300
      7 C7         -0.2310   -0.2730   -0.2360 c         1 L3L      0.711100
      8 C8         -3.1360   -1.6770    0.2840 c         1 L3L      0.657700
      9 C9          0.0740    2.0650   -0.0730 c3        1 L3L      0.122300
     10 C10         2.6890   -0.2830   -1.4190 c3        1 L3L     -0.135400
     11 C11         2.6070    0.1270    1.0520 c3        1 L3L     -0.135400
     12 C12         4.2120   -0.3500   -1.3050 c3        1 L3L      0.152800
     13 C13         4.1330    0.0370    1.0700 c3        1 L3L      0.152800
     14 C14         2.1240    0.6320   -0.3200 c3        1 L3L      0.121700
     15 N15         4.7230   -0.7350   -0.0040 n3        1 L3L     -0.798200
     16 N16         0.6870    0.7800   -0.4110 n         1 L3L     -0.462800
     17 N17        -2.6420   -2.4380   -0.7470 n         1 L3L     -0.631000
     18 O18         0.0380   -1.4760   -0.3770 o         1 L3L     -0.630500
     19 O19        -3.9180   -2.1720    1.1240 o         1 L3L     -0.609100
     20 H1         -4.5300    2.6820    0.9890 ha        1 L3L      0.144000
     21 H2         -4.8670    0.2150    0.8550 ha        1 L3L      0.164000
     22 H3         -2.2690    3.6780    0.5790 ha        1 L3L      0.144000
     23 H10A        2.2430   -1.3080   -1.3220 hc        1 L3L      0.060950
     24 H11         2.1560   -0.8790    1.2580 hc        1 L3L      0.060950
     25 H11A        2.2740    0.8260    1.8610 hc        1 L3L      0.060950
     26 H12         4.6010   -1.0790   -2.0690 h1        1 L3L      0.053450
     27 H12A        4.6400    0.6640   -1.5480 h1        1 L3L      0.053450
     28 H13         4.5580    1.0800    1.0080 h1        1 L3L      0.053450
     29 H13A        4.4600   -0.4090    2.0500 h1        1 L3L      0.053450
     30 H14         2.5590    1.6670   -0.4790 h1        1 L3L      0.054700
     31 HN15        4.5550   -1.7140    0.1500 hn        1 L3L      0.355800
     32 HN17       -1.8430   -2.1220   -1.2450 hn        1 L3L      0.313500
     33 HN1A       -2.7720   -3.4210   -0.6880 hn        1 L3L      0.313500
     34 H9          0.1800    2.7680   -0.9440 h1        1 L3L      0.067200
     35 H17         0.5600    2.5280    0.8310 h1        1 L3L      0.067200
     36 H10         2.4160    0.1150   -2.4290 hc        1 L3L      0.060950
@<TRIPOS>BOND
     1    1    2 ar  
     2    1    3 ar  
     3    1   20 1   
     4    2    5 ar  
     5    2   21 1   
     6    3    6 ar  
     7    3   22 1   
     8    4    5 ar  
     9    4    6 ar  
    10    4    7 1   
    11    5    8 1   
    12    6    9 1   
    13    7   16 1   
    14    7   18 2   
    15    8   17 1   
    16    8   19 2   
    17    9   16 1   
    18    9   34 1   
    19    9   35 1   
    20   10   12 1   
    21   10   14 1   
    22   10   23 1   
    23   10   36 1   
    24   11   13 1   
    25   11   14 1   
    26   11   24 1   
    27   11   25 1   
    28   12   15 1   
    29   12   26 1   
    30   12   27 1   
    31   13   15 1   
    32   13   28 1   
    33   13   29 1   
    34   14   16 1   
    35   14   30 1   
    36   15   31 1   
    37   17   32 1   
    38   17   33 1   
@<TRIPOS>SUBSTRUCTURE
     1 L3L         1 TEMP              0 ****  ****    0 ROOT
