@<TRIPOS>MOLECULE
L3L
   36    35     1     0     0
SMALL
bcc


@<TRIPOS>ATOM
      1 C1         -1.1500   -0.4220   -3.7580 c1        1 L3L     -0.051000
      2 C2          0.2070   -0.4120   -3.9910 c1        1 L3L     -0.037500
      3 C3         -1.6380   -0.2640   -2.4570 c1        1 L3L     -0.051000
      4 C4          0.6060   -0.0850   -1.6170 cg        1 L3L     -0.078200
      5 C5          1.0960   -0.2440   -2.9290 cg        1 L3L     -0.010200
      6 C6         -0.7430   -0.0950   -1.3860 c1        1 L3L     -0.060100
      7 C7          1.3220    0.0040   -0.2510 c         1 L3L      0.627300
      8 C8          2.5680   -0.0800   -3.1220 c         1 L3L      0.606300
      9 C9         -0.9670    0.1540    0.1270 c3        1 L3L      0.100100
     10 C10         0.5300   -0.6880    2.9940 c3        1 L3L     -0.092400
     11 C11        -0.4200    1.5550    2.6450 c3        1 L3L     -0.092400
     12 C12        -0.8770   -1.2660    3.0950 c3        1 L3L      0.162800
     13 C13        -1.8280    0.9690    2.7480 c3        1 L3L      0.162800
     14 C14         0.5760    0.5570    2.1900 c3        1 L3L      0.122700
     15 N15        -1.8620   -0.2730    3.5440 n3        1 L3L     -0.822200
     16 N16         0.3180    0.2190    0.7620 n         1 L3L     -0.480800
     17 N17         3.1120   -0.0920   -4.4190 n         1 L3L     -0.631000
     18 O18         2.5410    0.0170   -0.0740 o         1 L3L     -0.601100
     19 O19         3.3060   -0.0060   -2.1510 o         1 L3L     -0.610100
     20 H1         -1.7980   -0.5430   -4.5330 ha        1 L3L      0.085500
     21 H2          0.5420   -0.5220   -4.8890 ha        1 L3L      0.106500
     22 H3         -2.5930   -0.2730   -2.2940 ha        1 L3L      0.085500
     23 H10         1.1000   -1.3350    2.5920 hc        1 L3L      0.060950
     24 H10A        0.8610   -0.4920    3.9060 hc        1 L3L      0.060950
     25 H11        -0.1520    1.8900    3.5230 hc        1 L3L      0.060950
     26 H11A       -0.4330    2.3250    1.9890 hc        1 L3L      0.060950
     27 H12        -0.8690   -2.0200    3.7340 h1        1 L3L      0.027450
     28 H12A       -1.1600   -1.6180    2.1580 h1        1 L3L      0.027450
     29 H13        -2.4060    1.6190    3.1620 h1        1 L3L      0.027450
     30 H13A       -2.1640    0.7750    1.8350 h1        1 L3L      0.027450
     31 H14         1.4510    0.9400    2.2630 h1        1 L3L      0.080700
     32 HN15       -2.7340   -0.6490    3.5110 hn        1 L3L      0.365800
     33 HN17        3.9790   -0.2580   -4.5340 hn        1 L3L      0.314000
     34 HN1A        2.6010    0.1450   -5.1260 hn        1 L3L      0.314000
     35 H9         -1.4670   -0.5540    0.4960 h1        1 L3L      0.066200
     36 H17        -1.4560    1.0210    0.2590 h1        1 L3L      0.066200
@<TRIPOS>BOND
     1    1    3 3   
     2    1   20 1   
     3    2    5 3   
     4    2   21 1   
     5    3   22 1   
     6    4    6 3   
     7    4    7 1   
     8    5    8 1   
     9    6    9 1   
    10    7   16 1   
    11    7   18 2   
    12    8   17 1   
    13    8   19 2   
    14    9   16 1   
    15    9   35 1   
    16    9   36 1   
    17   10   12 1   
    18   10   14 1   
    19   10   23 1   
    20   10   24 1   
    21   11   13 1   
    22   11   14 1   
    23   11   25 1   
    24   11   26 1   
    25   12   15 1   
    26   12   27 1   
    27   12   28 1   
    28   13   15 1   
    29   13   29 1   
    30   13   30 1   
    31   14   16 1   
    32   14   31 1   
    33   15   32 1   
    34   17   33 1   
    35   17   34 1   
@<TRIPOS>SUBSTRUCTURE
     1 L3L         1 TEMP              0 ****  ****    0 ROOT
