@<TRIPOS>MOLECULE
L3O
   25    24     1     0     0
SMALL
bcc


@<TRIPOS>ATOM
      1 CZ         -1.0050   -0.4630    0.5650 c3        1 L3O     -0.016900
      2 OZ         -0.8930   -1.8070    0.1280 oh        1 L3O     -0.641800
      3 CA          0.1760    0.3560   -0.0240 c3        1 L3O      0.151500
      4 CB          1.4850   -0.2470    0.5080 c3        1 L3O     -0.067400
      5 CG          2.7240    0.2440   -0.2270 c3        1 L3O     -0.068700
      6 CD1         3.9630   -0.0220    0.6060 c3        1 L3O     -0.084100
      7 CD2         2.8600   -0.4210   -1.5810 c3        1 L3O     -0.084100
      8 N           0.0840    1.7870    0.2190 n3        1 L3O     -0.903800
      9 C          -2.3690    0.1510    0.1620 c         1 L3O      0.889600
     10 O          -3.0790   -0.5190   -0.6410 o         1 L3O     -0.836300
     11 OXT        -2.6950    1.2680    0.6530 o         1 L3O     -0.836300
     12 HZ         -0.9220   -0.4910    1.6850 h1        1 L3O      0.037700
     13 HA         -1.5960   -1.9500   -0.5270 ho        1 L3O      0.425000
     14 HB          0.1530    0.2090   -1.1440 h1        1 L3O      0.050700
     15 HB1C        1.5860   -0.0110    1.6000 hc        1 L3O      0.039700
     16 HB2C        1.4090   -1.3620    0.4100 hc        1 L3O      0.039700
     17 HN1        -0.7840    2.1210   -0.1690 hn        1 L3O      0.350800
     18 HN2         0.0380    1.9480    1.2090 hn        1 L3O      0.350800
     19 HG          2.6370    1.3560   -0.3840 hc        1 L3O      0.064700
     20 HD11        4.8790    0.3110    0.0610 hc        1 L3O      0.023200
     21 HD12        3.9060    0.5290    1.5750 hc        1 L3O      0.023200
     22 HD13        4.0600   -1.1130    0.8250 hc        1 L3O      0.023200
     23 HD21        1.9620   -0.2090   -2.2090 hc        1 L3O      0.023200
     24 HD22        3.7650   -0.0380   -2.1130 hc        1 L3O      0.023200
     25 HD23        2.9580   -1.5270   -1.4680 hc        1 L3O      0.023200
@<TRIPOS>BOND
     1    1    2 1   
     2    1    3 1   
     3    1    9 1   
     4    1   12 1   
     5    2   13 1   
     6    3    4 1   
     7    3    8 1   
     8    3   14 1   
     9    4    5 1   
    10    4   15 1   
    11    4   16 1   
    12    5    6 1   
    13    5    7 1   
    14    5   19 1   
    15    6   20 1   
    16    6   21 1   
    17    6   22 1   
    18    7   23 1   
    19    7   24 1   
    20    7   25 1   
    21    8   17 1   
    22    8   18 1   
    23    9   10 1   
    24    9   11 1   
@<TRIPOS>SUBSTRUCTURE
     1 L3O         1 TEMP              0 ****  ****    0 ROOT
