@<TRIPOS>MOLECULE
L3O
   25    24     1     0     0
SMALL
bcc


@<TRIPOS>ATOM
      1 CZ         -0.3080   -0.7070   -2.0140 c3        1 L3O     -0.017900
      2 OZ         -1.4390   -1.5410   -1.7920 oh        1 L3O     -0.642800
      3 CA          0.4170   -0.4840   -0.7070 c3        1 L3O      0.153500
      4 CB         -0.2350    0.6460    0.0490 c3        1 L3O     -0.070400
      5 CG         -0.0880    0.3940    1.5760 c3        1 L3O     -0.060700
      6 CD1         0.4830    1.6680    2.2640 c3        1 L3O     -0.085600
      7 CD2        -1.4660    0.0580    2.1770 c3        1 L3O     -0.085600
      8 N           1.8020   -0.1530   -0.9720 n3        1 L3O     -0.903800
      9 C           0.6220   -1.3750   -2.9970 c         1 L3O      0.889600
     10 O           1.0740   -0.7290   -3.9710 o         1 L3O     -0.836300
     11 OXT         0.9380   -2.5830   -2.8430 o         1 L3O     -0.836300
     12 HZ         -0.6010    0.1480   -2.3740 h1        1 L3O      0.037700
     13 HA         -1.9660   -1.5270   -2.5110 ho        1 L3O      0.425000
     14 HB          0.3750   -1.3020   -0.1690 h1        1 L3O      0.049700
     15 HB1C        0.2010    1.4930   -0.1870 hc        1 L3O      0.041700
     16 HB2C       -1.1980    0.6920   -0.1870 hc        1 L3O      0.041700
     17 HN1         2.3500   -0.7710   -0.5620 hn        1 L3O      0.350800
     18 HN2         1.9840    0.6780   -0.6450 hn        1 L3O      0.350800
     19 HG          0.5250   -0.3600    1.7240 hc        1 L3O      0.055700
     20 HD11        1.3720    1.8650    1.8990 hc        1 L3O      0.023867
     21 HD12       -0.1160    2.4270    2.0970 hc        1 L3O      0.023867
     22 HD13        0.5530    1.5120    3.2360 hc        1 L3O      0.023867
     23 HD21       -2.0990    0.7740    1.9610 hc        1 L3O      0.023867
     24 HD22       -1.3870   -0.0260    3.1510 hc        1 L3O      0.023867
     25 HD23       -1.7920   -0.7970    1.7960 hc        1 L3O      0.023867
@<TRIPOS>BOND
     1    1    2 1   
     2    1    3 1   
     3    1    9 1   
     4    1   12 1   
     5    2   13 1   
     6    3    4 1   
     7    3    8 1   
     8    3   14 1   
     9    4    5 1   
    10    4   15 1   
    11    4   16 1   
    12    5    6 1   
    13    5    7 1   
    14    5   19 1   
    15    6   20 1   
    16    6   21 1   
    17    6   22 1   
    18    7   23 1   
    19    7   24 1   
    20    7   25 1   
    21    8   17 1   
    22    8   18 1   
    23    9   10 1   
    24    9   11 1   
@<TRIPOS>SUBSTRUCTURE
     1 L3O         1 TEMP              0 ****  ****    0 ROOT
