@<TRIPOS>MOLECULE
L41
   54    55     1     0     0
SMALL
bcc


@<TRIPOS>ATOM
      1 C1          0.1350    0.0520    0.0090 ca        1 L41     -0.161300
      2 C2          1.5340   -0.0660    0.0730 ca        1 L41      0.199100
      3 C3         -0.6090   -0.1180    1.2010 ca        1 L41      0.234100
      4 C4         -0.5580    0.3570   -1.2730 c3        1 L41     -0.016100
      5 C5          2.1790   -0.3440    1.2940 ca        1 L41     -0.255000
      6 O6          2.1990    0.1100   -1.1160 os        1 L41     -0.317900
      7 C7          0.0240   -0.4010    2.4350 ca        1 L41     -0.304600
      8 O8         -1.9590    0.0130    1.0390 oh        1 L41     -0.502100
      9 C9         -1.1150   -0.8960   -1.9240 c3        1 L41     -0.075400
     10 C10         1.4260   -0.5070    2.4420 ca        1 L41     -0.025000
     11 C11         3.6340    0.0460   -1.0590 c3        1 L41      0.127400
     12 C12        -0.7240   -0.5830    3.6840 c         1 L41      0.598700
     13 C13        -1.8100   -0.5730   -3.2210 c3        1 L41     -0.091100
     14 C14         4.1130    0.3080   -2.4750 c3        1 L41     -0.092400
     15 C15         0.0490   -0.9220    4.9220 c3        1 L41     -0.195100
     16 O16        -1.9610   -0.4670    3.7500 o         1 L41     -0.588100
     17 C17         5.6300    0.2540   -2.5070 c3        1 L41      0.132400
     18 O18         6.0130    0.5160   -3.8620 os        1 L41     -0.343900
     19 C19         7.3960    0.4570   -4.0360 ca        1 L41      0.002100
     20 C20         8.1180    1.6560   -4.1220 ca        1 L41     -0.105000
     21 C21         8.0280   -0.7780   -4.2080 ca        1 L41     -0.105000
     22 C22         9.4790    1.6170   -4.3830 ca        1 L41     -0.194500
     23 C23         9.3940   -0.8230   -4.4670 ca        1 L41     -0.194500
     24 C24        10.1300    0.3720   -4.5500 ca        1 L41      0.165100
     25 O25        11.4730    0.4480   -4.7850 os        1 L41     -0.283900
     26 C26        12.1690   -0.7980   -4.9160 c3        1 L41     -0.013600
     27 C27        13.6810   -0.4590   -5.0910 c         1 L41      0.926600
     28 O28        14.1260   -0.4480   -6.2680 o         1 L41     -0.817800
     29 O29        14.3540   -0.2860   -4.0420 o         1 L41     -0.817800
     30 H4         -1.4000    1.0730   -1.0720 hc        1 L41      0.057700
     31 H4A         0.1580    0.8590   -1.9780 hc        1 L41      0.057700
     32 H5          3.2720   -0.4360    1.3450 ha        1 L41      0.146000
     33 HO8        -2.4160   -0.0660    1.8920 ho        1 L41      0.459000
     34 H9         -1.8350   -1.3860   -1.2160 hc        1 L41      0.043700
     35 H9A        -0.2800   -1.6210   -2.1130 hc        1 L41      0.043700
     36 H10         1.9540   -0.7260    3.3840 ha        1 L41      0.133000
     37 H11         3.9460   -0.9730   -0.7080 h1        1 L41      0.043700
     38 H11A        4.0150    0.8280   -0.3510 h1        1 L41      0.043700
     39 H13        -2.6590    0.1330   -3.0480 hc        1 L41      0.030700
     40 H13A       -1.1010   -0.0990   -3.9420 hc        1 L41      0.030700
     41 H13B       -2.2160   -1.5040   -3.6850 hc        1 L41      0.030700
     42 H14         3.7570    1.3110   -2.8240 hc        1 L41      0.070200
     43 H14A        3.6870   -0.4570   -3.1750 hc        1 L41      0.070200
     44 H15        -0.6500   -1.0550    5.7850 hc        1 L41      0.064700
     45 H15A        0.6180   -1.8720    4.7720 hc        1 L41      0.064700
     46 H15B        0.7640   -0.1000    5.1650 hc        1 L41      0.064700
     47 H17         6.0760    1.0330   -1.8350 h1        1 L41      0.031700
     48 H17A        6.0060   -0.7580   -2.2000 h1        1 L41      0.031700
     49 H20         7.5980    2.6150   -3.9930 ha        1 L41      0.127500
     50 H21         7.4420   -1.7060   -4.1440 ha        1 L41      0.127500
     51 H22        10.0720    2.5390   -4.4620 ha        1 L41      0.148000
     52 H23         9.8930   -1.7920   -4.6080 ha        1 L41      0.148000
     53 H26        11.7840   -1.3410   -5.8160 h1        1 L41      0.022200
     54 H26A       12.0200   -1.4090   -3.9920 h1        1 L41      0.022200
@<TRIPOS>BOND
     1    1    2 ar  
     2    1    3 ar  
     3    1    4 1   
     4    2    5 ar  
     5    2    6 1   
     6    3    7 ar  
     7    3    8 1   
     8    4    9 1   
     9    4   30 1   
    10    4   31 1   
    11    5   10 ar  
    12    5   32 1   
    13    6   11 1   
    14    7   10 ar  
    15    7   12 1   
    16    8   33 1   
    17    9   13 1   
    18    9   34 1   
    19    9   35 1   
    20   10   36 1   
    21   11   14 1   
    22   11   37 1   
    23   11   38 1   
    24   12   15 1   
    25   12   16 2   
    26   13   39 1   
    27   13   40 1   
    28   13   41 1   
    29   14   17 1   
    30   14   42 1   
    31   14   43 1   
    32   15   44 1   
    33   15   45 1   
    34   15   46 1   
    35   17   18 1   
    36   17   47 1   
    37   17   48 1   
    38   18   19 1   
    39   19   20 ar  
    40   19   21 ar  
    41   20   22 ar  
    42   20   49 1   
    43   21   23 ar  
    44   21   50 1   
    45   22   24 ar  
    46   22   51 1   
    47   23   24 ar  
    48   23   52 1   
    49   24   25 1   
    50   25   26 1   
    51   26   27 1   
    52   26   53 1   
    53   26   54 1   
    54   27   28 1   
    55   27   29 1   
@<TRIPOS>SUBSTRUCTURE
     1 L41         1 TEMP              0 ****  ****    0 ROOT
