@<TRIPOS>MOLECULE
L41
   54    55     1     0     0
SMALL
bcc


@<TRIPOS>ATOM
      1 C1         -4.8780   -0.6090   -0.2560 ca        1 L41     -0.161300
      2 C2         -3.6690    0.0630   -0.0080 ca        1 L41      0.199100
      3 C3         -6.0910    0.0810   -0.0170 ca        1 L41      0.234100
      4 C4         -4.8960   -2.0060   -0.7660 c3        1 L41     -0.016100
      5 C5         -3.6640    1.3890    0.4660 ca        1 L41     -0.255000
      6 O6         -2.5270   -0.6590   -0.2590 os        1 L41     -0.317900
      7 C7         -6.1040    1.4130    0.4600 ca        1 L41     -0.304600
      8 O8         -7.2120   -0.6530   -0.2860 oh        1 L41     -0.502100
      9 C9         -5.1250   -3.0110    0.3490 c3        1 L41     -0.075400
     10 C10        -4.8650    2.0370    0.6910 ca        1 L41     -0.025000
     11 C11        -1.2810    0.0290   -0.0600 c3        1 L41      0.127400
     12 C12        -7.3460    2.1500    0.7170 c         1 L41      0.598700
     13 C13        -5.1380   -4.4210   -0.1820 c3        1 L41     -0.091100
     14 C14        -0.1990   -0.9650   -0.4380 c3        1 L41     -0.092400
     15 C15        -7.2380    3.5420    1.2610 c3        1 L41     -0.195100
     16 O16        -8.4720    1.6640    0.5030 o         1 L41     -0.588100
     17 C17         1.1610   -0.3160   -0.2500 c3        1 L41      0.132400
     18 O18         2.1310   -1.3050   -0.6160 os        1 L41     -0.343900
     19 C19         3.4350   -0.8160   -0.5290 ca        1 L41      0.002100
     20 C20         3.9620   -0.0390   -1.5720 ca        1 L41     -0.105000
     21 C21         4.2260   -1.1870    0.5620 ca        1 L41     -0.105000
     22 C22         5.2850    0.3710   -1.5190 ca        1 L41     -0.194500
     23 C23         5.5560   -0.7810    0.6180 ca        1 L41     -0.194500
     24 C24         6.0920    0.0060   -0.4160 ca        1 L41      0.164100
     25 O25         7.3740    0.4730   -0.4580 os        1 L41     -0.283900
     26 C26         8.2050    0.1610    0.6670 c3        1 L41     -0.012600
     27 C27         9.5740    0.8700    0.4330 c         1 L41      0.926600
     28 O28         9.6600    2.0790    0.7700 o         1 L41     -0.818300
     29 O29        10.5080    0.1570   -0.0180 o         1 L41     -0.818300
     30 H4         -5.7170   -2.1080   -1.5270 hc        1 L41      0.058200
     31 H4A        -3.9240   -2.2340   -1.2800 hc        1 L41      0.058200
     32 H5         -2.7190    1.9150    0.6590 ha        1 L41      0.146000
     33 HO8        -8.0110   -0.1190   -0.1500 ho        1 L41      0.459000
     34 H9         -4.3160   -2.9040    1.1190 hc        1 L41      0.043700
     35 H9A        -6.1020   -2.7830    0.8510 hc        1 L41      0.043700
     36 H10        -4.8350    3.0750    1.0620 ha        1 L41      0.133000
     37 H11        -1.2470    0.9360   -0.7190 h1        1 L41      0.043700
     38 H11A       -1.1940    0.3340    1.0160 h1        1 L41      0.043700
     39 H13        -5.3090   -5.1460    0.6500 hc        1 L41      0.030700
     40 H13A       -5.9520   -4.5510   -0.9360 hc        1 L41      0.030700
     41 H13B       -4.1650   -4.6680   -0.6700 hc        1 L41      0.030700
     42 H14        -0.2780   -1.8830    0.1990 hc        1 L41      0.070200
     43 H14A       -0.3260   -1.2880   -1.5040 hc        1 L41      0.070200
     44 H15        -6.6920    4.1950    0.5370 hc        1 L41      0.064700
     45 H15A       -8.2580    3.9680    1.4270 hc        1 L41      0.064700
     46 H15B       -6.6900    3.5330    2.2340 hc        1 L41      0.064700
     47 H17         1.2760    0.5840   -0.9090 h1        1 L41      0.031200
     48 H17A        1.3210   -0.0140    0.8190 h1        1 L41      0.031200
     49 H20         3.3240    0.2340   -2.4230 ha        1 L41      0.127500
     50 H21         3.7960   -1.8040    1.3640 ha        1 L41      0.127500
     51 H22         5.7270    0.9790   -2.3200 ha        1 L41      0.148000
     52 H23         6.1830   -1.0780    1.4710 ha        1 L41      0.148000
     53 H26         7.7300    0.5500    1.6030 h1        1 L41      0.022200
     54 H26A        8.3430   -0.9470    0.7260 h1        1 L41      0.022200
@<TRIPOS>BOND
     1    1    2 ar  
     2    1    3 ar  
     3    1    4 1   
     4    2    5 ar  
     5    2    6 1   
     6    3    7 ar  
     7    3    8 1   
     8    4    9 1   
     9    4   30 1   
    10    4   31 1   
    11    5   10 ar  
    12    5   32 1   
    13    6   11 1   
    14    7   10 ar  
    15    7   12 1   
    16    8   33 1   
    17    9   13 1   
    18    9   34 1   
    19    9   35 1   
    20   10   36 1   
    21   11   14 1   
    22   11   37 1   
    23   11   38 1   
    24   12   15 1   
    25   12   16 2   
    26   13   39 1   
    27   13   40 1   
    28   13   41 1   
    29   14   17 1   
    30   14   42 1   
    31   14   43 1   
    32   15   44 1   
    33   15   45 1   
    34   15   46 1   
    35   17   18 1   
    36   17   47 1   
    37   17   48 1   
    38   18   19 1   
    39   19   20 ar  
    40   19   21 ar  
    41   20   22 ar  
    42   20   49 1   
    43   21   23 ar  
    44   21   50 1   
    45   22   24 ar  
    46   22   51 1   
    47   23   24 ar  
    48   23   52 1   
    49   24   25 1   
    50   25   26 1   
    51   26   27 1   
    52   26   53 1   
    53   26   54 1   
    54   27   28 1   
    55   27   29 1   
@<TRIPOS>SUBSTRUCTURE
     1 L41         1 TEMP              0 ****  ****    0 ROOT
