@<TRIPOS>MOLECULE
L41
   54    55     1     0     0
SMALL
bcc


@<TRIPOS>ATOM
      1 C1          0.1260    0.0590    0.0070 ca        1 L41     -0.161300
      2 C2          1.5240   -0.0670    0.0830 ca        1 L41      0.199100
      3 C3         -0.6250   -0.0640    1.2000 ca        1 L41      0.234100
      4 C4         -0.5570    0.3250   -1.2880 c3        1 L41     -0.016100
      5 C5          2.1600   -0.3090    1.3160 ca        1 L41     -0.255000
      6 O6          2.1960    0.0620   -1.1090 os        1 L41     -0.317900
      7 C7         -0.0010   -0.3080    2.4470 ca        1 L41     -0.304600
      8 O8         -1.9730    0.0730    1.0270 oh        1 L41     -0.502100
      9 C9         -1.1220   -0.9450   -1.8990 c3        1 L41     -0.075400
     10 C10         1.4000   -0.4250    2.4650 ca        1 L41     -0.025000
     11 C11         3.6300   -0.0130   -1.0420 c3        1 L41      0.127400
     12 C12        -0.7560   -0.4410    3.6970 c         1 L41      0.598700
     13 C13        -1.8080   -0.6610   -3.2090 c3        1 L41     -0.091100
     14 C14         4.1180    0.1950   -2.4630 c3        1 L41     -0.092400
     15 C15         0.0070   -0.7420    4.9510 c3        1 L41     -0.195100
     16 O16        -1.9930   -0.3150    3.7520 o         1 L41     -0.588100
     17 C17         5.6350    0.1220   -2.4860 c3        1 L41      0.132400
     18 O18         6.0260    0.3200   -3.8500 os        1 L41     -0.343900
     19 C19         7.4130    0.3210   -4.0020 ca        1 L41      0.002100
     20 C20         8.1470    1.4810   -3.7140 ca        1 L41     -0.105000
     21 C21         8.0380   -0.8140   -4.5250 ca        1 L41     -0.105000
     22 C22         9.5130    1.5030   -3.9480 ca        1 L41     -0.194500
     23 C23         9.4080   -0.7960   -4.7670 ca        1 L41     -0.194500
     24 C24        10.1560    0.3570   -4.4730 ca        1 L41      0.164100
     25 O25        11.5040    0.4820   -4.6520 os        1 L41     -0.283900
     26 C26        12.1940   -0.6770   -5.1380 c3        1 L41     -0.012600
     27 C27        13.7110   -0.3220   -5.1740 c         1 L41      0.926600
     28 O28        14.1870    0.0090   -6.2910 o         1 L41     -0.818300
     29 O29        14.3570   -0.4540   -4.1030 o         1 L41     -0.818300
     30 H4         -1.3950    1.0550   -1.1170 hc        1 L41      0.058200
     31 H4A         0.1650    0.7970   -2.0070 hc        1 L41      0.058200
     32 H5          3.2530   -0.4070    1.3760 ha        1 L41      0.146000
     33 HO8        -2.4350    0.0270    1.8800 ho        1 L41      0.459000
     34 H9         -1.8490   -1.4040   -1.1780 hc        1 L41      0.043700
     35 H9A        -0.2920   -1.6820   -2.0580 hc        1 L41      0.043700
     36 H10         1.9210   -0.6160    3.4170 ha        1 L41      0.133000
     37 H11         3.9310   -1.0220   -0.6540 h1        1 L41      0.043700
     38 H11A        4.0150    0.7890   -0.3600 h1        1 L41      0.043700
     39 H13        -2.6510    0.0580   -3.0650 hc        1 L41      0.030700
     40 H13A       -1.0920   -0.2180   -3.9420 hc        1 L41      0.030700
     41 H13B       -2.2190   -1.6040   -3.6430 hc        1 L41      0.030700
     42 H14         3.7760    1.1900   -2.8480 hc        1 L41      0.070200
     43 H14A        3.6870   -0.5890   -3.1380 hc        1 L41      0.070200
     44 H15        -0.6970   -0.8390    5.8140 hc        1 L41      0.064700
     45 H15A        0.5700   -1.7010    4.8380 hc        1 L41      0.064700
     46 H15B        0.7280    0.0830    5.1680 hc        1 L41      0.064700
     47 H17         6.0880    0.9240   -1.8450 h1        1 L41      0.031200
     48 H17A        5.9970   -0.8790   -2.1340 h1        1 L41      0.031200
     49 H20         7.6340    2.3640   -3.3090 ha        1 L41      0.127500
     50 H21         7.4420   -1.7100   -4.7530 ha        1 L41      0.127500
     51 H22        10.1160    2.3960   -3.7330 ha        1 L41      0.148000
     52 H23         9.9010   -1.6840   -5.1870 ha        1 L41      0.148000
     53 H26        11.8240   -0.9200   -6.1660 h1        1 L41      0.022200
     54 H26A       12.0190   -1.5360   -4.4420 h1        1 L41      0.022200
@<TRIPOS>BOND
     1    1    2 ar  
     2    1    3 ar  
     3    1    4 1   
     4    2    5 ar  
     5    2    6 1   
     6    3    7 ar  
     7    3    8 1   
     8    4    9 1   
     9    4   30 1   
    10    4   31 1   
    11    5   10 ar  
    12    5   32 1   
    13    6   11 1   
    14    7   10 ar  
    15    7   12 1   
    16    8   33 1   
    17    9   13 1   
    18    9   34 1   
    19    9   35 1   
    20   10   36 1   
    21   11   14 1   
    22   11   37 1   
    23   11   38 1   
    24   12   15 1   
    25   12   16 2   
    26   13   39 1   
    27   13   40 1   
    28   13   41 1   
    29   14   17 1   
    30   14   42 1   
    31   14   43 1   
    32   15   44 1   
    33   15   45 1   
    34   15   46 1   
    35   17   18 1   
    36   17   47 1   
    37   17   48 1   
    38   18   19 1   
    39   19   20 ar  
    40   19   21 ar  
    41   20   22 ar  
    42   20   49 1   
    43   21   23 ar  
    44   21   50 1   
    45   22   24 ar  
    46   22   51 1   
    47   23   24 ar  
    48   23   52 1   
    49   24   25 1   
    50   25   26 1   
    51   26   27 1   
    52   26   53 1   
    53   26   54 1   
    54   27   28 1   
    55   27   29 1   
@<TRIPOS>SUBSTRUCTURE
     1 L41         1 TEMP              0 ****  ****    0 ROOT
