@<TRIPOS>MOLECULE
L42
   50    51     1     0     0
SMALL
bcc


@<TRIPOS>ATOM
      1 OBM        -0.0310   -0.0390    0.4150 oh        1 L42     -0.648800
      2 CBE         1.3530    0.2010    0.3690 c3        1 L42      0.355900
      3 CBF         1.9910   -0.0110    1.7670 c3        1 L42      0.005500
      4 NBN         1.4460    0.8640    2.8470 ny        1 L42     -0.660800
      5 CBK        -0.0170    0.6610    3.1040 c         1 L42      0.568100
      6 CBL        -0.9240    1.7420    2.6160 c3        1 L42     -0.188100
      7 OBS        -0.3460   -0.3550    3.7010 o         1 L42     -0.433100
      8 OBQ         1.8150   -0.7660   -0.5400 os        1 L42     -0.430600
      9 CBI         3.2450   -0.9170   -0.6390 c3        1 L42      0.074100
     10 CBJ         3.4450   -2.1450   -1.5420 c3        1 L42      0.149400
     11 OBR         4.7590   -2.1580   -2.0420 oh        1 L42     -0.619800
     12 CBH         3.9260   -1.0930    0.7410 c3        1 L42      0.226100
     13 OBP         3.4680   -2.2180    1.3910 os        1 L42     -0.620500
     14 SBW         4.3040   -3.7650    1.4590 s6        1 L42      1.721300
     15 OBV         4.7240   -3.8290    2.7700 o         1 L42     -0.739867
     16 OBU         5.2630   -3.5230    0.4760 o         1 L42     -0.739867
     17 OBT         3.2570   -4.5930    1.0850 o         1 L42     -0.739867
     18 CBG         3.5210    0.1690    1.5570 c3        1 L42      0.112100
     19 OBO         4.1950    0.2010    2.7990 os        1 L42     -0.371600
     20 CBX         4.4360    1.5160    3.2870 c3        1 L42      0.314900
     21 OCH         5.6480    1.8760    2.6530 os        1 L42     -0.310900
     22 CCD         6.2790    2.9720    3.2140 ce        1 L42      0.081900
     23 CCE         7.0960    3.7770    2.1760 c         1 L42      0.937800
     24 OCG         6.4200    4.2550    1.2300 o         1 L42     -0.787800
     25 OCF         8.3190    3.9250    2.3980 o         1 L42     -0.787800
     26 CCC         6.1020    3.3310    4.4990 c2        1 L42     -0.392200
     27 CCA         5.1510    2.6760    5.4300 c3        1 L42      0.182300
     28 OCB         5.7450    2.3180    6.6710 oh        1 L42     -0.619800
     29 CBY         4.5140    1.4130    4.8160 c3        1 L42      0.084100
     30 OBZ         3.1560    1.2950    5.2510 oh        1 L42     -0.669800
     31 HBM        -0.1990   -0.9450    0.1090 ho        1 L42      0.457000
     32 HBE         1.5120    1.2490   -0.0100 h2        1 L42      0.064700
     33 HBF         1.8040   -1.0860    2.0990 hx        1 L42      0.181700
     34 HBN         1.9890    0.6230    3.7050 hn        1 L42      0.472300
     35 HBG         3.7420    1.0950    0.9580 h1        1 L42      0.078700
     36 HBL1       -0.5750    2.7520    2.9440 hc        1 L42      0.101033
     37 HBL2       -1.9510    1.5580    3.0210 hc        1 L42      0.101033
     38 HBL3       -0.9680    1.7070    1.4940 hc        1 L42      0.101033
     39 HBI         3.6590    0.0020   -1.1400 h1        1 L42      0.057700
     40 HBJ1        2.7750   -2.0610   -2.4390 h1        1 L42      0.062200
     41 HBJ2        3.2060   -3.0790   -0.9650 h1        1 L42      0.062200
     42 HBH         5.0440   -1.1130    0.6030 h1        1 L42      0.102700
     43 HBR         5.3270   -2.5540   -1.3590 ho        1 L42      0.455000
     44 HBX         3.6430    2.2570    2.9820 h2        1 L42      0.009700
     45 HBY         5.0900    0.4910    5.1080 h1        1 L42      0.095700
     46 HCC         6.6730    4.1750    4.9100 ha        1 L42      0.160000
     47 HCA         4.3260    3.3930    5.7220 h1        1 L42      0.059700
     48 HCB         6.6550    2.0510    6.4900 ho        1 L42      0.418000
     49 HBZ         3.1930    1.1050    6.1960 ho        1 L42      0.433000
     50 HBN2        1.6230    1.8450    2.6170 hn        1 L42      0.472300
@<TRIPOS>BOND
     1    1    2 1   
     2    1   31 1   
     3    2    3 1   
     4    2    8 1   
     5    2   32 1   
     6    3    4 1   
     7    3   18 1   
     8    3   33 1   
     9    4    5 1   
    10    4   34 1   
    11    4   50 1   
    12    5    6 1   
    13    5    7 2   
    14    6   36 1   
    15    6   37 1   
    16    6   38 1   
    17    8    9 1   
    18    9   10 1   
    19    9   12 1   
    20    9   39 1   
    21   10   11 1   
    22   10   40 1   
    23   10   41 1   
    24   11   43 1   
    25   12   13 1   
    26   12   18 1   
    27   12   42 1   
    28   13   14 1   
    29   14   15 1   
    30   14   16 1   
    31   14   17 1   
    32   18   19 1   
    33   18   35 1   
    34   19   20 1   
    35   20   21 1   
    36   20   29 1   
    37   20   44 1   
    38   21   22 1   
    39   22   23 1   
    40   22   26 2   
    41   23   24 1   
    42   23   25 1   
    43   26   27 1   
    44   26   46 1   
    45   27   28 1   
    46   27   29 1   
    47   27   47 1   
    48   28   48 1   
    49   29   30 1   
    50   29   45 1   
    51   30   49 1   
@<TRIPOS>SUBSTRUCTURE
     1 L42         1 TEMP              0 ****  ****    0 ROOT
