@<TRIPOS>MOLECULE
L42
   50    51     1     0     0
SMALL
bcc


@<TRIPOS>ATOM
      1 OBM         0.8300    0.8420   -0.6200 oh        1 L42     -0.623800
      2 CBE         2.0610    0.6740    0.0360 c3        1 L42      0.345900
      3 CBF         1.8540    0.3890    1.5460 c3        1 L42      0.062500
      4 NBN         1.2300    1.5210    2.2860 n4        1 L42     -0.705800
      5 CBK        -0.0700    1.9840    1.7340 c         1 L42      0.585100
      6 CBL        -0.0370    3.2550    0.9500 c3        1 L42     -0.190100
      7 OBS        -1.0690    1.3150    1.9910 o         1 L42     -0.501100
      8 OBQ         2.6010   -0.4580   -0.6070 os        1 L42     -0.435600
      9 CBI         3.8540   -0.9090   -0.0760 c3        1 L42      0.093100
     10 CBJ         4.1930   -2.1770   -0.8780 c3        1 L42      0.151400
     11 OBR         5.5590   -2.4820   -0.7210 oh        1 L42     -0.628800
     12 CBH         3.8040   -1.1850    1.4400 c3        1 L42      0.193100
     13 OBP         3.0390   -2.2940    1.7390 os        1 L42     -0.585500
     14 SBW         3.7970   -3.6410    2.5680 s6        1 L42      1.718300
     15 OBV         4.4980   -2.9810    3.5750 o         1 L42     -0.748200
     16 OBU         4.5980   -4.0960    1.5210 o         1 L42     -0.748200
     17 OBT         2.7090   -4.4090    2.9310 o         1 L42     -0.748200
     18 CBG         3.2410    0.0640    2.1520 c3        1 L42      0.112100
     19 OBO         3.0310   -0.2210    3.5320 os        1 L42     -0.409600
     20 CBX         3.7440    0.5760    4.4600 c3        1 L42      0.290900
     21 OCH         3.2720    1.8870    4.1730 os        1 L42     -0.392900
     22 CCD         4.2030    2.8710    3.8850 ce        1 L42      0.009900
     23 CCE         3.5900    4.0610    3.1720 c         1 L42      0.933800
     24 OCG         2.6090    3.8610    2.3690 o         1 L42     -0.799300
     25 OCF         4.0820    5.1940    3.3560 o         1 L42     -0.799300
     26 CCC         5.4950    2.7750    4.2330 c2        1 L42     -0.285200
     27 CCA         6.0480    1.5620    4.8990 c3        1 L42      0.183300
     28 OCB         7.4340    1.4170    4.6500 oh        1 L42     -0.581800
     29 CBY         5.2630    0.3220    4.4280 c3        1 L42      0.094100
     30 OBZ         5.5550   -0.7330    5.3160 oh        1 L42     -0.604800
     31 HBM         0.5160   -0.0290   -0.9080 ho        1 L42      0.442000
     32 HBE         2.6720    1.6030   -0.1400 h2        1 L42      0.087700
     33 HBF         1.1980   -0.5270    1.6610 hx        1 L42      0.137700
     34 HBN         1.9330    2.3570    2.3310 hn        1 L42      0.495800
     35 HBG         3.9390    0.9340    2.0100 h1        1 L42      0.065700
     36 HBL1        0.4210    3.0470   -0.0530 hc        1 L42      0.106700
     37 HBL2       -1.0810    3.6240    0.8130 hc        1 L42      0.106700
     38 HBL3        0.5840    4.0380    1.4660 hc        1 L42      0.106700
     39 HBI         4.6260   -0.1110   -0.2690 h1        1 L42      0.044700
     40 HBJ1        4.0410   -1.9760   -1.9710 h1        1 L42      0.062200
     41 HBJ2        3.5370   -3.0200   -0.5370 h1        1 L42      0.062200
     42 HBH         4.8710   -1.3370    1.7900 h1        1 L42      0.057700
     43 HBR         5.6330   -3.0910    0.0340 ho        1 L42      0.453000
     44 HBX         3.3080    0.2760    5.4600 h2        1 L42      0.112700
     45 HBY         5.5730    0.0500    3.3790 h1        1 L42      0.047700
     46 HCC         6.1880    3.6070    4.0440 ha        1 L42      0.169000
     47 HCA         5.9840    1.6480    6.0220 h1        1 L42      0.097700
     48 HCB         7.5450    1.2860    3.7010 ho        1 L42      0.395000
     49 HBZ         5.2330   -1.5550    4.9020 ho        1 L42      0.469000
     50 HBN2        1.1070    1.1970    3.2550 hn        1 L42      0.495800
@<TRIPOS>BOND
     1    1    2 1   
     2    1   31 1   
     3    2    3 1   
     4    2    8 1   
     5    2   32 1   
     6    3    4 1   
     7    3   18 1   
     8    3   33 1   
     9    4    5 1   
    10    4   34 1   
    11    4   50 1   
    12    5    6 1   
    13    5    7 2   
    14    6   36 1   
    15    6   37 1   
    16    6   38 1   
    17    8    9 1   
    18    9   10 1   
    19    9   12 1   
    20    9   39 1   
    21   10   11 1   
    22   10   40 1   
    23   10   41 1   
    24   11   43 1   
    25   12   13 1   
    26   12   18 1   
    27   12   42 1   
    28   13   14 1   
    29   14   15 1   
    30   14   16 1   
    31   14   17 1   
    32   18   19 1   
    33   18   35 1   
    34   19   20 1   
    35   20   21 1   
    36   20   29 1   
    37   20   44 1   
    38   21   22 1   
    39   22   23 1   
    40   22   26 2   
    41   23   24 1   
    42   23   25 1   
    43   26   27 1   
    44   26   46 1   
    45   27   28 1   
    46   27   29 1   
    47   27   47 1   
    48   28   48 1   
    49   29   30 1   
    50   29   45 1   
    51   30   49 1   
@<TRIPOS>SUBSTRUCTURE
     1 L42         1 TEMP              0 ****  ****    0 ROOT
