@<TRIPOS>MOLECULE
L42
   49    50     1     0     0
SMALL
bcc


@<TRIPOS>ATOM
      1 OBM        -2.4720    3.0090   -1.4820 oh        1 L42     -0.602800
      2 CBE        -1.9270    1.7210   -1.5260 c3        1 L42      0.325900
      3 CBF        -0.8580    1.4420   -0.4230 c3        1 L42      0.032700
      4 NBN         0.2510    2.3540   -0.5360 n         1 L42     -0.556900
      5 CBK         0.1950    3.6310   -0.0370 c         1 L42      0.668100
      6 CBL         1.4290    4.4900   -0.1810 c3        1 L42     -0.180100
      7 OBS        -0.8290    4.0750    0.5410 o         1 L42     -0.689100
      8 OBQ        -3.0850    0.9160   -1.3320 os        1 L42     -0.457600
      9 CBI        -2.8070   -0.4820   -1.4070 c3        1 L42      0.100100
     10 CBJ        -4.1430   -1.1780   -1.1410 c3        1 L42      0.133400
     11 OBR        -5.1120   -0.8150   -2.1090 oh        1 L42     -0.631800
     12 CBH        -1.7390   -0.9380   -0.3980 c3        1 L42      0.207100
     13 OBP        -2.2250   -0.8740    0.8960 os        1 L42     -0.591500
     14 SBW        -2.1680   -2.2250    1.9920 s6        1 L42      1.705300
     15 OBV        -2.2430   -3.2970    1.0990 o         1 L42     -0.753867
     16 OBU        -0.9600   -2.0900    2.6700 o         1 L42     -0.753867
     17 OBT        -3.3150   -1.9930    2.7460 o         1 L42     -0.753867
     18 CBG        -0.4700   -0.0480   -0.5540 c3        1 L42      0.136100
     19 OBO         0.3780   -0.5650    0.4650 os        1 L42     -0.403600
     20 CBX         1.6440    0.0080    0.6730 c3        1 L42      0.303900
     21 OCH         2.1660    0.2330   -0.6360 os        1 L42     -0.362900
     22 CCD         3.4940    0.6190   -0.6360 ce        1 L42      0.057900
     23 CCE         3.8130    1.5590   -1.7970 c         1 L42      0.926800
     24 OCG         2.9240    2.4060   -2.1000 o         1 L42     -0.821800
     25 OCF         4.9390    1.4630   -2.3490 o         1 L42     -0.821800
     26 CCC         4.3450    0.2290    0.3290 c2        1 L42     -0.348200
     27 CCA         3.9520   -0.5850    1.5150 c3        1 L42      0.191300
     28 OCB         4.8010   -1.7210    1.6490 oh        1 L42     -0.608800
     29 CBY         2.4750   -1.0330    1.4560 c3        1 L42      0.109100
     30 OBZ         2.0010   -1.1230    2.7830 oh        1 L42     -0.623800
     31 HBM        -2.5790    3.2550   -0.5500 ho        1 L42      0.435000
     32 HBE        -1.5150    1.5790   -2.5640 h2        1 L42      0.059700
     33 HBF        -1.3570    1.5850    0.5840 h1        1 L42      0.109700
     34 HBN         1.0560    2.0690   -1.0710 hn        1 L42      0.375500
     35 HBG         0.0070   -0.2280   -1.5570 h1        1 L42      0.050700
     36 HBL1        2.0940    4.1470   -1.0170 hc        1 L42      0.068033
     37 HBL2        1.1110    5.5430   -0.3620 hc        1 L42      0.068033
     38 HBL3        2.0030    4.4420    0.7750 hc        1 L42      0.068033
     39 HBI        -2.4460   -0.7150   -2.4490 h1        1 L42      0.026700
     40 HBJ1       -4.0200   -2.2880   -1.2340 h1        1 L42      0.072200
     41 HBJ2       -4.5030   -0.9150   -0.1100 h1        1 L42      0.072200
     42 HBH        -1.4460   -2.0010   -0.6550 h1        1 L42      0.059700
     43 HBR        -5.1510    0.1500   -2.1080 ho        1 L42      0.408000
     44 HBX         1.5720    0.9750    1.2420 h2        1 L42      0.059700
     45 HBY         2.3930   -2.0320    0.9450 h1        1 L42      0.049700
     46 HCC         5.4050    0.5100    0.2680 ha        1 L42      0.146000
     47 HCA         4.1250   -0.0110    2.4710 h1        1 L42      0.076700
     48 HCB         4.7620   -2.1980    0.8120 ho        1 L42      0.393000
     49 HBZ         1.0650   -1.3990    2.7320 ho        1 L42      0.469000
@<TRIPOS>BOND
     1    1    2 1   
     2    1   31 1   
     3    2    3 1   
     4    2    8 1   
     5    2   32 1   
     6    3    4 1   
     7    3   18 1   
     8    3   33 1   
     9    4    5 1   
    10    4   34 1   
    11    5    6 1   
    12    5    7 2   
    13    6   36 1   
    14    6   37 1   
    15    6   38 1   
    16    8    9 1   
    17    9   10 1   
    18    9   12 1   
    19    9   39 1   
    20   10   11 1   
    21   10   40 1   
    22   10   41 1   
    23   11   43 1   
    24   12   13 1   
    25   12   18 1   
    26   12   42 1   
    27   13   14 1   
    28   14   15 1   
    29   14   16 1   
    30   14   17 1   
    31   18   19 1   
    32   18   35 1   
    33   19   20 1   
    34   20   21 1   
    35   20   29 1   
    36   20   44 1   
    37   21   22 1   
    38   22   23 1   
    39   22   26 2   
    40   23   24 1   
    41   23   25 1   
    42   26   27 1   
    43   26   46 1   
    44   27   28 1   
    45   27   29 1   
    46   27   47 1   
    47   28   48 1   
    48   29   30 1   
    49   29   45 1   
    50   30   49 1   
@<TRIPOS>SUBSTRUCTURE
     1 L42         1 TEMP              0 ****  ****    0 ROOT
