@<TRIPOS>MOLECULE
L42
   50    51     1     0     0
SMALL
bcc


@<TRIPOS>ATOM
      1 OBM         0.6740    0.6830   -0.4940 oh        1 L42     -0.623800
      2 CBE         1.9430    0.5810    0.1000 c3        1 L42      0.345900
      3 CBF         1.8260    0.3050    1.6210 c3        1 L42      0.062500
      4 NBN         1.1870    1.4160    2.3810 n4        1 L42     -0.705800
      5 CBK        -0.1600    1.8100    1.8920 c         1 L42      0.585100
      6 CBL        -0.2270    3.0710    1.0940 c3        1 L42     -0.190100
      7 OBS        -1.1120    1.0970    2.2060 o         1 L42     -0.501100
      8 OBQ         2.5040   -0.5320   -0.5580 os        1 L42     -0.435600
      9 CBI         3.8020   -0.9160   -0.0880 c3        1 L42      0.093100
     10 CBJ         4.1600   -2.1760   -0.8930 c3        1 L42      0.151400
     11 OBR         5.5460   -2.4150   -0.8040 oh        1 L42     -0.628800
     12 CBH         3.8410   -1.1770    1.4310 c3        1 L42      0.193100
     13 OBP         3.1470   -2.3160    1.7800 os        1 L42     -0.585500
     14 SBW         4.0090   -3.6160    2.5820 s6        1 L42      1.718300
     15 OBV         4.7280   -2.9110    3.5460 o         1 L42     -0.748200
     16 OBU         4.7770   -4.0450    1.5000 o         1 L42     -0.748200
     17 OBT         2.9790   -4.4300    3.0070 o         1 L42     -0.748200
     18 CBG         3.2560    0.0530    2.1590 c3        1 L42      0.112100
     19 OBO         3.1300   -0.2240    3.5500 os        1 L42     -0.409600
     20 CBX         3.8500    0.6170    4.4340 c3        1 L42      0.290900
     21 OCH         3.3020    1.9000    4.1580 os        1 L42     -0.392900
     22 CCD         4.1690    2.9230    3.8130 ce        1 L42      0.009900
     23 CCE         3.4650    4.0740    3.1200 c         1 L42      0.933800
     24 OCG         2.4550    3.8180    2.3710 o         1 L42     -0.799300
     25 OCF         3.9110    5.2310    3.2680 o         1 L42     -0.799300
     26 CCC         5.4800    2.8930    4.0960 c2        1 L42     -0.285200
     27 CCA         6.1230    1.7150    4.7440 c3        1 L42      0.183300
     28 OCB         7.5000    1.6330    4.4260 oh        1 L42     -0.581800
     29 CBY         5.3750    0.4340    4.3260 c3        1 L42      0.094100
     30 OBZ         5.7620   -0.5950    5.2090 oh        1 L42     -0.604800
     31 HBM         0.3880   -0.2050   -0.7580 ho        1 L42      0.442000
     32 HBE         2.4990    1.5360   -0.1160 h2        1 L42      0.087700
     33 HBF         1.2220   -0.6400    1.7780 hx        1 L42      0.137700
     34 HBN         1.1280    1.0980    3.3580 hn        1 L42      0.495800
     35 HBG         3.9040    0.9540    1.9730 h1        1 L42      0.065700
     36 HBL1        0.3810    3.8890    1.5700 hc        1 L42      0.106700
     37 HBL2       -1.2940    3.3880    1.0070 hc        1 L42      0.106700
     38 HBL3        0.1890    2.8730    0.0710 hc        1 L42      0.106700
     39 HBI         4.5240   -0.0850   -0.3280 h1        1 L42      0.044700
     40 HBJ1        3.9440   -1.9960   -1.9800 h1        1 L42      0.062200
     41 HBJ2        3.5630   -3.0460   -0.5120 h1        1 L42      0.062200
     42 HBH         4.9310   -1.2730    1.7280 h1        1 L42      0.057700
     43 HBR         5.6860   -3.0100   -0.0480 ho        1 L42      0.453000
     44 HBX         3.4800    0.3080    5.4570 h2        1 L42      0.112700
     45 HBY         5.6450    0.1640    3.2660 h1        1 L42      0.047700
     46 HCC         6.1220    3.7540    3.8630 ha        1 L42      0.169000
     47 HCA         6.1120    1.8120    5.8690 h1        1 L42      0.097700
     48 HCB         7.5690    1.4950    3.4740 ho        1 L42      0.395000
     49 HBZ         5.4590   -1.4360    4.8190 ho        1 L42      0.469000
     50 HBN2        1.8510    2.2840    2.3820 hn        1 L42      0.495800
@<TRIPOS>BOND
     1    1    2 1   
     2    1   31 1   
     3    2    3 1   
     4    2    8 1   
     5    2   32 1   
     6    3    4 1   
     7    3   18 1   
     8    3   33 1   
     9    4    5 1   
    10    4   34 1   
    11    4   50 1   
    12    5    6 1   
    13    5    7 2   
    14    6   36 1   
    15    6   37 1   
    16    6   38 1   
    17    8    9 1   
    18    9   10 1   
    19    9   12 1   
    20    9   39 1   
    21   10   11 1   
    22   10   40 1   
    23   10   41 1   
    24   11   43 1   
    25   12   13 1   
    26   12   18 1   
    27   12   42 1   
    28   13   14 1   
    29   14   15 1   
    30   14   16 1   
    31   14   17 1   
    32   18   19 1   
    33   18   35 1   
    34   19   20 1   
    35   20   21 1   
    36   20   29 1   
    37   20   44 1   
    38   21   22 1   
    39   22   23 1   
    40   22   26 2   
    41   23   24 1   
    42   23   25 1   
    43   26   27 1   
    44   26   46 1   
    45   27   28 1   
    46   27   29 1   
    47   27   47 1   
    48   28   48 1   
    49   29   30 1   
    50   29   45 1   
    51   30   49 1   
@<TRIPOS>SUBSTRUCTURE
     1 L42         1 TEMP              0 ****  ****    0 ROOT
