@<TRIPOS>MOLECULE
L42
   49    48     1     0     0
SMALL
bcc


@<TRIPOS>ATOM
      1 OBM        -3.8600    0.2870   -1.8880 oh        1 L42     -0.330000
      2 CBE        -2.4740    0.2010   -1.9000 c3        1 L42      0.156000
      3 CBF        -1.9790    0.1340   -0.4790 c3        1 L42     -0.077000
      4 NBN        -2.2480    1.4090    0.1720 n         1 L42     -0.332000
      5 CBK        -3.4730    1.6160    0.8490 c2        1 L42      0.298000
      6 CBL        -3.8150    3.0050    1.3920 c3        1 L42     -0.243000
      7 OBS        -4.2950    0.7370    0.8870 o         1 L42     -0.398000
      8 OBQ        -2.0680   -0.9900   -2.7030 os        1 L42     -0.301000
      9 CBI        -0.6450   -1.2570   -2.6340 c3        1 L42     -0.042000
     10 CBJ         0.0950   -0.1620   -3.3660 c3        1 L42     -0.035000
     11 OBR        -0.0640   -0.3370   -4.7670 oh        1 L42     -0.361000
     12 CBH        -0.1320   -1.3250   -1.1980 c3        1 L42      0.100000
     13 OBP        -0.6660   -2.5100   -0.5680 os        1 L42     -0.732000
     14 SBW        -0.1000   -3.8410   -1.0570 s4        1 L42      2.097800
     15 OBV        -1.0110   -4.4840   -2.0570 o         1 L42     -0.668900
     16 OBU         1.2690   -3.6440   -1.6200 os        1 L42     -1.108000
     17 OBT        -0.0970   -4.8670    0.0380 o         1 L42     -0.668900
     18 CBG        -0.5230   -0.1390   -0.4020 c3        1 L42      0.022000
     19 OBO        -0.1600   -0.3700    0.9970 os        1 L42     -0.225000
     20 CBX         1.2320    0.2630    1.2900 c3        1 L42      0.138000
     21 OCH         2.3450   -0.7160    0.7480 os        1 L42     -0.200000
     22 CCD         3.6570   -0.4180    1.0660 c2        1 L42      0.079000
     23 CCE         4.7790   -1.2120    0.4600 c2        1 L42      0.385000
     24 OCG         5.0170   -2.3920    0.8770 o         1 L42     -0.539000
     25 OCF         5.5750   -0.6580   -0.3390 o         1 L42     -0.539000
     26 CCC         3.8730    0.3510    2.5320 c1        1 L42     -0.412000
     27 CCA         2.7420    1.1390    2.9820 c2        1 L42      0.062000
     28 OCB         2.7700    1.2940    4.3920 oh        1 L42     -0.361000
     29 CBY         1.2900    0.4990    2.4530 c3        1 L42     -0.026000
     30 OBZ         0.1620    1.5100    2.7960 oh        1 L42     -0.351000
     31 HBM        -4.1550    0.4440   -2.7160 ho        1 L42      0.231000
     32 HBE        -2.1100    1.0050   -2.3230 h2        1 L42      0.098000
     33 HBF        -2.4750   -0.5930    0.0060 h1        1 L42      0.155000
     34 HBN        -1.6350    2.0830    0.1240 hn        1 L42      0.233000
     35 HBG        -0.0370    0.6390   -0.7330 h1        1 L42      0.094000
     36 HBL1       -3.5940    3.6920    0.7080 hc        1 L42      0.096000
     37 HBL2       -4.7730    3.0480    1.6010 hc        1 L42      0.096000
     38 HBL3       -3.2900    3.1770    2.2120 hc        1 L42      0.096000
     39 HBI        -0.4600   -2.1180   -3.0790 h1        1 L42      0.147000
     40 HBJ1       -0.2760    0.7290   -3.0970 h1        1 L42      0.074000
     41 HBJ2        1.0790   -0.2040   -3.1300 h1        1 L42      0.074000
     42 HBH         0.8220   -1.3850   -1.2130 h1        1 L42      0.107000
     43 HBR         0.6010    0.0750   -5.1940 ho        1 L42      0.250000
     44 HBX         1.2980    1.1060    0.8000 h2        1 L42      0.088000
     45 HBY         1.1230   -0.3230    2.9390 h1        1 L42      0.118000
     46 HCC         4.5180   -0.0120    3.1920 ha        1 L42      0.144000
     47 HCA         2.8260    2.0660    2.6910 h4        1 L42      0.096000
     48 HCB         3.3210    1.9360    4.6020 ho        1 L42      0.208000
     49 HBZ         0.0260    1.5130    3.6580 ho        1 L42      0.206000
@<TRIPOS>BOND
     1    1    2 1   
     2    1   31 1   
     3    2    3 1   
     4    2    8 1   
     5    2   32 1   
     6    3    4 1   
     7    3   18 1   
     8    3   33 1   
     9    4    5 1   
    10    4   34 1   
    11    5    6 1   
    12    5    7 1   
    13    6   36 1   
    14    6   37 1   
    15    6   38 1   
    16    8    9 1   
    17    9   10 1   
    18    9   12 1   
    19    9   39 1   
    20   10   11 1   
    21   10   40 1   
    22   10   41 1   
    23   11   43 1   
    24   12   13 1   
    25   12   18 1   
    26   12   42 1   
    27   13   14 1   
    28   14   15 1   
    29   14   17 1   
    30   18   19 1   
    31   18   35 1   
    32   19   20 1   
    33   20   21 1   
    34   20   29 1   
    35   20   44 1   
    36   21   22 1   
    37   22   23 1   
    38   22   26 1   
    39   23   24 1   
    40   23   25 1   
    41   26   46 1   
    42   27   28 1   
    43   27   29 1   
    44   27   47 1   
    45   28   48 1   
    46   29   30 1   
    47   29   45 1   
    48   30   49 1   
@<TRIPOS>SUBSTRUCTURE
     1 L42         1 TEMP              0 ****  ****    0 ROOT
