@<TRIPOS>MOLECULE
L44
  120   119     1     0     0
SMALL
bcc


@<TRIPOS>ATOM
      1 C1         -0.1550    0.4680   -0.1230 c3        1 L44      0.122400
      2 O1         -0.5180    1.2160    1.0160 oh        1 L44     -0.595800
      3 C2          1.3190    0.0540   -0.1200 c3        1 L44      0.102100
      4 O2          1.7580   -0.1670    1.2290 os        1 L44     -0.435900
      5 C3          2.2510    1.1190   -0.6970 c3        1 L44      0.136400
      6 O3          1.8670    2.3820   -0.1370 os        1 L44     -0.455900
      7 C4          2.6980    3.4450   -0.3840 c         1 L44      0.637100
      8 O4          3.6890    3.2520   -1.0880 o         1 L44     -0.536000
      9 C5          2.2350    4.7000    0.2870 c3        1 L44     -0.127400
     10 C6          2.3770    5.8910   -0.6360 c3        1 L44     -0.079400
     11 C7          2.0370    7.1750    0.0900 c3        1 L44     -0.079400
     12 C8          2.1560    8.3690   -0.8330 c3        1 L44     -0.079400
     13 C9          1.8210    9.6560   -0.1100 c3        1 L44     -0.079400
     14 C10         1.9370   10.8500   -1.0330 c3        1 L44     -0.079400
     15 C11         1.6020   12.1370   -0.3110 c3        1 L44     -0.079400
     16 C12         1.7150   13.3310   -1.2340 c3        1 L44     -0.079400
     17 C13         1.3810   14.6180   -0.5120 c3        1 L44     -0.079400
     18 C14         1.4930   15.8120   -1.4370 c3        1 L44     -0.079400
     19 C15         1.1580   17.0990   -0.7150 c3        1 L44     -0.079400
     20 C16         1.2690   18.2940   -1.6380 c3        1 L44     -0.080400
     21 C17         0.9370   19.5780   -0.9230 c3        1 L44     -0.092100
     22 C18         1.4860   -1.3880    1.7930 c         1 L44      0.642100
     23 O18         0.9460   -2.2480    1.0970 o         1 L44     -0.543000
     24 C19         1.9100   -1.4540    3.2270 c3        1 L44     -0.126400
     25 C20         2.3750   -2.8480    3.5940 c3        1 L44     -0.079400
     26 C21         2.6670   -2.9430    5.0760 c3        1 L44     -0.078400
     27 C22         3.1450   -4.3300    5.4480 c3        1 L44     -0.079400
     28 C23         3.4320   -4.4310    6.9300 c3        1 L44     -0.079400
     29 C24         3.9070   -5.8190    7.3030 c3        1 L44     -0.079400
     30 C25         4.1930   -5.9220    8.7860 c3        1 L44     -0.079400
     31 C26         4.6630   -7.3120    9.1590 c3        1 L44     -0.079400
     32 C27         4.9490   -7.4150   10.6420 c3        1 L44     -0.079400
     33 C28         5.4140   -8.8060   11.0170 c3        1 L44     -0.079400
     34 C29         5.6990   -8.9100   12.4990 c3        1 L44     -0.079400
     35 C30         6.1610  -10.3020   12.8740 c3        1 L44     -0.079400
     36 C31         6.4460  -10.4060   14.3570 c3        1 L44     -0.079400
     37 C32         6.9050  -11.7990   14.7320 c3        1 L44     -0.079400
     38 C33         7.1890  -11.9030   16.2150 c3        1 L44     -0.079400
     39 C34         7.6460  -13.2960   16.5900 c3        1 L44     -0.079400
     40 C35         7.9300  -13.4010   18.0730 c3        1 L44     -0.079400
     41 C36         8.3860  -14.7950   18.4480 c3        1 L44     -0.079400
     42 C37         8.6690  -14.9000   19.9320 c3        1 L44     -0.079400
     43 C38         9.1250  -16.2940   20.3080 c3        1 L44     -0.080400
     44 C39         9.4080  -16.4030   21.7840 c3        1 L44     -0.092100
     45 H1         -0.8080   -0.4470   -0.0820 h1        1 L44      0.056700
     46 H2         -0.3670    1.0550   -1.0550 h1        1 L44      0.056700
     47 H3          0.1500    1.9040    1.1370 ho        1 L44      0.416000
     48 H4          1.4480   -0.8910   -0.7220 h1        1 L44      0.087700
     49 H5          3.3200    0.9030   -0.4350 h1        1 L44      0.068200
     50 H6          2.1310    1.1730   -1.8100 h1        1 L44      0.068200
     51 H9          2.8680    4.8400    1.2050 hc        1 L44      0.079700
     52 H10         1.1700    4.5820    0.6190 hc        1 L44      0.079700
     53 H11         1.6980    5.7650   -1.5200 hc        1 L44      0.057700
     54 H12         3.4280    5.9380   -1.0280 hc        1 L44      0.057700
     55 H13         0.9930    7.1150    0.4950 hc        1 L44      0.041700
     56 H14         2.7260    7.3070    0.9660 hc        1 L44      0.041700
     57 H15         1.4660    8.2390   -1.7080 hc        1 L44      0.042700
     58 H16         3.2000    8.4270   -1.2410 hc        1 L44      0.042700
     59 H17         2.5130    9.7880    0.7640 hc        1 L44      0.039700
     60 H18         0.7780    9.5970    0.3000 hc        1 L44      0.039700
     61 H19         2.9790   10.9090   -1.4430 hc        1 L44      0.040700
     62 H20         1.2450   10.7180   -1.9070 hc        1 L44      0.040700
     63 H21         2.2950   12.2700    0.5620 hc        1 L44      0.039700
     64 H22         0.5600   12.0780    0.1010 hc        1 L44      0.039700
     65 H23         2.7570   13.3900   -1.6460 hc        1 L44      0.039700
     66 H24         1.0220   13.1980   -2.1070 hc        1 L44      0.039700
     67 H25         0.3390   14.5590   -0.1000 hc        1 L44      0.039700
     68 H26         2.0740   14.7520    0.3600 hc        1 L44      0.039700
     69 H27         2.5340   15.8720   -1.8490 hc        1 L44      0.039700
     70 H28         0.7990   15.6790   -2.3080 hc        1 L44      0.039700
     71 H29         1.8520   17.2330    0.1570 hc        1 L44      0.039700
     72 H30         0.1170   17.0400   -0.3020 hc        1 L44      0.039700
     73 H31         2.3110   18.3510   -2.0510 hc        1 L44      0.038700
     74 H32         0.5760   18.1580   -2.5100 hc        1 L44      0.038700
     75 H33         1.6340   19.7440   -0.0660 hc        1 L44      0.032700
     76 H34        -0.1060   19.5500   -0.5260 hc        1 L44      0.032700
     77 H35         1.0250   20.4450   -1.6220 hc        1 L44      0.032700
     78 H36         2.7210   -0.7030    3.4160 hc        1 L44      0.081200
     79 H37         1.0200   -1.1610    3.8480 hc        1 L44      0.081200
     80 H38         3.2980   -3.1030    3.0080 hc        1 L44      0.057700
     81 H39         1.5860   -3.5930    3.3080 hc        1 L44      0.057700
     82 H40         3.4470   -2.1870    5.3570 hc        1 L44      0.041700
     83 H41         1.7400   -2.6960    5.6590 hc        1 L44      0.041700
     84 H42         2.3660   -5.0850    5.1620 hc        1 L44      0.042700
     85 H43         4.0730   -4.5760    4.8670 hc        1 L44      0.042700
     86 H44         2.5050   -4.1820    7.5110 hc        1 L44      0.040200
     87 H45         4.2130   -3.6780    7.2150 hc        1 L44      0.040200
     88 H46         3.1260   -6.5730    7.0180 hc        1 L44      0.040200
     89 H47         4.8340   -6.0690    6.7230 hc        1 L44      0.040200
     90 H48         3.2670   -5.6700    9.3660 hc        1 L44      0.039700
     91 H49         4.9760   -5.1710    9.0710 hc        1 L44      0.039700
     92 H50         5.5890   -7.5640    8.5790 hc        1 L44      0.039700
     93 H51         3.8800   -8.0630    8.8740 hc        1 L44      0.039700
     94 H52         5.7340   -6.6660   10.9270 hc        1 L44      0.039700
     95 H53         4.0230   -7.1600   11.2230 hc        1 L44      0.039700
     96 H54         4.6290   -9.5550   10.7310 hc        1 L44      0.039700
     97 H55         6.3400   -9.0610   10.4370 hc        1 L44      0.039700
     98 H56         6.4870   -8.1630   12.7840 hc        1 L44      0.039700
     99 H57         4.7740   -8.6520   13.0790 hc        1 L44      0.039700
    100 H58         7.0870  -10.5590   12.2940 hc        1 L44      0.039700
    101 H59         5.3740  -11.0490   12.5890 hc        1 L44      0.039700
    102 H60         5.5210  -10.1460   14.9370 hc        1 L44      0.039700
    103 H61         7.2340   -9.6600   14.6420 hc        1 L44      0.039700
    104 H62         6.1170  -12.5440   14.4470 hc        1 L44      0.039700
    105 H63         7.8300  -12.0580   14.1530 hc        1 L44      0.039700
    106 H64         6.2640  -11.6420   16.7940 hc        1 L44      0.039700
    107 H65         7.9780  -11.1590   16.5000 hc        1 L44      0.039700
    108 H66         8.5710  -13.5570   16.0110 hc        1 L44      0.039700
    109 H67         6.8570  -14.0410   16.3050 hc        1 L44      0.039700
    110 H68         8.7200  -12.6570   18.3590 hc        1 L44      0.039700
    111 H69         7.0050  -13.1400   18.6520 hc        1 L44      0.039700
    112 H70         9.3110  -15.0560   17.8700 hc        1 L44      0.039700
    113 H71         7.5960  -15.5390   18.1630 hc        1 L44      0.039700
    114 H72         7.7440  -14.6390   20.5110 hc        1 L44      0.039700
    115 H73         9.4590  -14.1560   20.2180 hc        1 L44      0.039700
    116 H74         8.3350  -17.0360   20.0200 hc        1 L44      0.038700
    117 H75        10.0490  -16.5540   19.7270 hc        1 L44      0.038700
    118 H76         9.7420  -17.4370   22.0400 hc        1 L44      0.032700
    119 H77         8.4920  -16.1710   22.3800 hc        1 L44      0.032700
    120 H78        10.2110  -15.6880   22.0860 hc        1 L44      0.032700
@<TRIPOS>BOND
     1    1    2 1   
     2    1    3 1   
     3    1   45 1   
     4    1   46 1   
     5    2   47 1   
     6    3    4 1   
     7    3    5 1   
     8    3   48 1   
     9    4   22 1   
    10    5    6 1   
    11    5   49 1   
    12    5   50 1   
    13    6    7 1   
    14    7    8 2   
    15    7    9 1   
    16    9   10 1   
    17    9   51 1   
    18    9   52 1   
    19   10   11 1   
    20   10   53 1   
    21   10   54 1   
    22   11   12 1   
    23   11   55 1   
    24   11   56 1   
    25   12   13 1   
    26   12   57 1   
    27   12   58 1   
    28   13   14 1   
    29   13   59 1   
    30   13   60 1   
    31   14   15 1   
    32   14   61 1   
    33   14   62 1   
    34   15   16 1   
    35   15   63 1   
    36   15   64 1   
    37   16   17 1   
    38   16   65 1   
    39   16   66 1   
    40   17   18 1   
    41   17   67 1   
    42   17   68 1   
    43   18   19 1   
    44   18   69 1   
    45   18   70 1   
    46   19   20 1   
    47   19   71 1   
    48   19   72 1   
    49   20   21 1   
    50   20   73 1   
    51   20   74 1   
    52   21   75 1   
    53   21   76 1   
    54   21   77 1   
    55   22   23 2   
    56   22   24 1   
    57   24   25 1   
    58   24   78 1   
    59   24   79 1   
    60   25   26 1   
    61   25   80 1   
    62   25   81 1   
    63   26   27 1   
    64   26   82 1   
    65   26   83 1   
    66   27   28 1   
    67   27   84 1   
    68   27   85 1   
    69   28   29 1   
    70   28   86 1   
    71   28   87 1   
    72   29   30 1   
    73   29   88 1   
    74   29   89 1   
    75   30   31 1   
    76   30   90 1   
    77   30   91 1   
    78   31   32 1   
    79   31   92 1   
    80   31   93 1   
    81   32   33 1   
    82   32   94 1   
    83   32   95 1   
    84   33   34 1   
    85   33   96 1   
    86   33   97 1   
    87   34   35 1   
    88   34   98 1   
    89   34   99 1   
    90   35   36 1   
    91   35  100 1   
    92   35  101 1   
    93   36   37 1   
    94   36  102 1   
    95   36  103 1   
    96   37   38 1   
    97   37  104 1   
    98   37  105 1   
    99   38   39 1   
   100   38  106 1   
   101   38  107 1   
   102   39   40 1   
   103   39  108 1   
   104   39  109 1   
   105   40   41 1   
   106   40  110 1   
   107   40  111 1   
   108   41   42 1   
   109   41  112 1   
   110   41  113 1   
   111   42   43 1   
   112   42  114 1   
   113   42  115 1   
   114   43   44 1   
   115   43  116 1   
   116   43  117 1   
   117   44  118 1   
   118   44  119 1   
   119   44  120 1   
@<TRIPOS>SUBSTRUCTURE
     1 L44         1 TEMP              0 ****  ****    0 ROOT
