@<TRIPOS>MOLECULE
L44
  120   119     1     0     0
SMALL
bcc


@<TRIPOS>ATOM
      1 C1         -4.8810    4.9220   -1.3680 c3        1 L44      0.122400
      2 O1         -4.9110    3.7710   -2.1820 oh        1 L44     -0.595800
      3 C2         -4.2470    4.6690    0.0020 c3        1 L44      0.102100
      4 O2         -3.2190    3.6730   -0.1170 os        1 L44     -0.435900
      5 C3         -5.2330    4.1330    1.0390 c3        1 L44      0.136400
      6 O3         -6.0020    3.0960    0.4130 os        1 L44     -0.455900
      7 C4         -6.8090    2.3470    1.2300 c         1 L44      0.637100
      8 O4         -6.8440    2.6320    2.4280 o         1 L44     -0.536000
      9 C5         -7.5230    1.2610    0.4880 c3        1 L44     -0.127400
     10 C6         -8.9570    1.1350    0.9590 c3        1 L44     -0.079400
     11 C7         -9.6320   -0.0520    0.3060 c3        1 L44     -0.079400
     12 C8        -11.0720   -0.1730    0.7580 c3        1 L44     -0.079400
     13 C9        -11.7500   -1.3620    0.1110 c3        1 L44     -0.079400
     14 C10       -13.1900   -1.4840    0.5610 c3        1 L44     -0.079400
     15 C11       -13.8680   -2.6730   -0.0850 c3        1 L44     -0.079400
     16 C12       -15.3090   -2.7950    0.3650 c3        1 L44     -0.079400
     17 C13       -15.9870   -3.9840   -0.2800 c3        1 L44     -0.079400
     18 C14       -17.4270   -4.1060    0.1700 c3        1 L44     -0.079400
     19 C15       -18.1060   -5.2950   -0.4750 c3        1 L44     -0.079400
     20 C16       -19.5470   -5.4180   -0.0260 c3        1 L44     -0.080400
     21 C17       -20.2260   -6.6000   -0.6660 c3        1 L44     -0.092100
     22 C18        -1.9790    4.0870   -0.5320 c         1 L44      0.642100
     23 O18        -1.7920    5.2910   -0.7130 o         1 L44     -0.543000
     24 C19        -1.0300    2.9430   -0.7050 c3        1 L44     -0.126400
     25 C20         0.3800    3.3410   -0.3210 c3        1 L44     -0.079400
     26 C21         1.3550    2.2270   -0.6320 c3        1 L44     -0.078400
     27 C22         2.7640    2.6100   -0.2330 c3        1 L44     -0.079400
     28 C23         3.7440    1.5000   -0.5460 c3        1 L44     -0.079400
     29 C24         5.1530    1.8820   -0.1470 c3        1 L44     -0.079400
     30 C25         6.1330    0.7720   -0.4600 c3        1 L44     -0.079400
     31 C26         7.5420    1.1540   -0.0600 c3        1 L44     -0.079400
     32 C27         8.5220    0.0440   -0.3730 c3        1 L44     -0.079400
     33 C28         9.9310    0.4260    0.0280 c3        1 L44     -0.079400
     34 C29        10.9110   -0.6840   -0.2850 c3        1 L44     -0.079400
     35 C30        12.3200   -0.3020    0.1160 c3        1 L44     -0.079400
     36 C31        13.3000   -1.4130   -0.1970 c3        1 L44     -0.079400
     37 C32        14.7090   -1.0310    0.2040 c3        1 L44     -0.079400
     38 C33        15.6890   -2.1410   -0.1090 c3        1 L44     -0.079400
     39 C34        17.0980   -1.7590    0.2920 c3        1 L44     -0.079400
     40 C35        18.0780   -2.8690   -0.0200 c3        1 L44     -0.079400
     41 C36        19.4870   -2.4880    0.3810 c3        1 L44     -0.079400
     42 C37        20.4670   -3.5980    0.0690 c3        1 L44     -0.079400
     43 C38        21.8770   -3.2170    0.4690 c3        1 L44     -0.080400
     44 C39        22.8570   -4.3200    0.1600 c3        1 L44     -0.092100
     45 H1         -4.2610    5.6620   -1.9450 h1        1 L44      0.056700
     46 H2         -5.9210    5.3190   -1.2210 h1        1 L44      0.056700
     47 H3         -5.2540    3.0440   -1.6460 ho        1 L44      0.416000
     48 H4         -3.8040    5.6260    0.3980 h1        1 L44      0.087700
     49 H5         -4.6940    3.7140    1.9280 h1        1 L44      0.068200
     50 H6         -5.9320    4.9480    1.3620 h1        1 L44      0.068200
     51 H9         -7.4860    1.4680   -0.6140 hc        1 L44      0.079700
     52 H10        -6.9640    0.3050    0.6780 hc        1 L44      0.079700
     53 H11        -8.9750    1.0220    2.0760 hc        1 L44      0.057700
     54 H12        -9.5180    2.0740    0.7110 hc        1 L44      0.057700
     55 H13        -9.5960    0.0590   -0.8100 hc        1 L44      0.041700
     56 H14        -9.0760   -0.9920    0.5640 hc        1 L44      0.041700
     57 H15       -11.1080   -0.2810    1.8740 hc        1 L44      0.042700
     58 H16       -11.6290    0.7650    0.4970 hc        1 L44      0.042700
     59 H17       -11.7130   -1.2550   -1.0060 hc        1 L44      0.039700
     60 H18       -11.1940   -2.3010    0.3720 hc        1 L44      0.039700
     61 H19       -13.2270   -1.5910    1.6770 hc        1 L44      0.040700
     62 H20       -13.7460   -0.5450    0.3000 hc        1 L44      0.040700
     63 H21       -13.8310   -2.5660   -1.2010 hc        1 L44      0.039700
     64 H22       -13.3120   -3.6110    0.1760 hc        1 L44      0.039700
     65 H23       -15.3460   -2.9010    1.4820 hc        1 L44      0.039700
     66 H24       -15.8650   -1.8560    0.1040 hc        1 L44      0.039700
     67 H25       -15.9500   -3.8780   -1.3970 hc        1 L44      0.039700
     68 H26       -15.4310   -4.9220   -0.0190 hc        1 L44      0.039700
     69 H27       -17.4650   -4.2110    1.2860 hc        1 L44      0.039700
     70 H28       -17.9840   -3.1670   -0.0920 hc        1 L44      0.039700
     71 H29       -18.0690   -5.1890   -1.5920 hc        1 L44      0.039700
     72 H30       -17.5500   -6.2330   -0.2140 hc        1 L44      0.039700
     73 H31       -19.5820   -5.5210    1.0910 hc        1 L44      0.038700
     74 H32       -20.1010   -4.4780   -0.2870 hc        1 L44      0.038700
     75 H33       -19.7030   -7.5500   -0.3970 hc        1 L44      0.032700
     76 H34       -21.2860   -6.6720   -0.3220 hc        1 L44      0.032700
     77 H35       -20.2230   -6.5030   -1.7790 hc        1 L44      0.032700
     78 H36        -1.3750    2.0690   -0.0920 hc        1 L44      0.081200
     79 H37        -1.0710    2.6400   -1.7870 hc        1 L44      0.081200
     80 H38         0.6690    4.2730   -0.8770 hc        1 L44      0.057200
     81 H39         0.4170    3.5840    0.7730 hc        1 L44      0.057200
     82 H40         1.0500    1.2940   -0.0870 hc        1 L44      0.041700
     83 H41         1.3250    1.9940   -1.7290 hc        1 L44      0.041700
     84 H42         3.0670    3.5440   -0.7750 hc        1 L44      0.042700
     85 H43         2.7950    2.8400    0.8650 hc        1 L44      0.042700
     86 H44         3.4400    0.5650   -0.0050 hc        1 L44      0.040200
     87 H45         3.7140    1.2700   -1.6440 hc        1 L44      0.040200
     88 H46         5.4570    2.8160   -0.6880 hc        1 L44      0.040200
     89 H47         5.1830    2.1120    0.9510 hc        1 L44      0.040200
     90 H48         5.8290   -0.1630    0.0810 hc        1 L44      0.039700
     91 H49         6.1030    0.5420   -1.5580 hc        1 L44      0.039700
     92 H50         7.8460    2.0880   -0.6010 hc        1 L44      0.039700
     93 H51         7.5720    1.3840    1.0380 hc        1 L44      0.039700
     94 H52         8.2170   -0.8910    0.1680 hc        1 L44      0.039700
     95 H53         8.4920   -0.1860   -1.4710 hc        1 L44      0.039700
     96 H54        10.2360    1.3600   -0.5140 hc        1 L44      0.039700
     97 H55         9.9610    0.6560    1.1250 hc        1 L44      0.039700
     98 H56        10.6060   -1.6190    0.2560 hc        1 L44      0.039700
     99 H57        10.8820   -0.9140   -1.3830 hc        1 L44      0.039700
    100 H58        12.6250    0.6320   -0.4260 hc        1 L44      0.039700
    101 H59        12.3500   -0.0730    1.2130 hc        1 L44      0.039700
    102 H60        12.9950   -2.3470    0.3440 hc        1 L44      0.039700
    103 H61        13.2710   -1.6420   -1.2950 hc        1 L44      0.039700
    104 H62        15.0140   -0.0970   -0.3380 hc        1 L44      0.039700
    105 H63        14.7390   -0.8010    1.3020 hc        1 L44      0.039700
    106 H64        15.3840   -3.0750    0.4320 hc        1 L44      0.039700
    107 H65        15.6600   -2.3710   -1.2070 hc        1 L44      0.039700
    108 H66        17.4030   -0.8250   -0.2490 hc        1 L44      0.039700
    109 H67        17.1270   -1.5300    1.3900 hc        1 L44      0.039700
    110 H68        17.7730   -3.8040    0.5210 hc        1 L44      0.039700
    111 H69        18.0490   -3.0990   -1.1180 hc        1 L44      0.039700
    112 H70        19.7920   -1.5540   -0.1600 hc        1 L44      0.039700
    113 H71        19.5160   -2.2580    1.4790 hc        1 L44      0.039700
    114 H72        20.1630   -4.5320    0.6100 hc        1 L44      0.039700
    115 H73        20.4390   -3.8280   -1.0290 hc        1 L44      0.039700
    116 H74        22.1790   -2.2820   -0.0710 hc        1 L44      0.038700
    117 H75        21.9040   -2.9860    1.5670 hc        1 L44      0.038700
    118 H76        22.8620   -4.5470   -0.9330 hc        1 L44      0.032700
    119 H77        23.8880   -4.0190    0.4630 hc        1 L44      0.032700
    120 H78        22.5860   -5.2540    0.7100 hc        1 L44      0.032700
@<TRIPOS>BOND
     1    1    2 1   
     2    1    3 1   
     3    1   45 1   
     4    1   46 1   
     5    2   47 1   
     6    3    4 1   
     7    3    5 1   
     8    3   48 1   
     9    4   22 1   
    10    5    6 1   
    11    5   49 1   
    12    5   50 1   
    13    6    7 1   
    14    7    8 2   
    15    7    9 1   
    16    9   10 1   
    17    9   51 1   
    18    9   52 1   
    19   10   11 1   
    20   10   53 1   
    21   10   54 1   
    22   11   12 1   
    23   11   55 1   
    24   11   56 1   
    25   12   13 1   
    26   12   57 1   
    27   12   58 1   
    28   13   14 1   
    29   13   59 1   
    30   13   60 1   
    31   14   15 1   
    32   14   61 1   
    33   14   62 1   
    34   15   16 1   
    35   15   63 1   
    36   15   64 1   
    37   16   17 1   
    38   16   65 1   
    39   16   66 1   
    40   17   18 1   
    41   17   67 1   
    42   17   68 1   
    43   18   19 1   
    44   18   69 1   
    45   18   70 1   
    46   19   20 1   
    47   19   71 1   
    48   19   72 1   
    49   20   21 1   
    50   20   73 1   
    51   20   74 1   
    52   21   75 1   
    53   21   76 1   
    54   21   77 1   
    55   22   23 2   
    56   22   24 1   
    57   24   25 1   
    58   24   78 1   
    59   24   79 1   
    60   25   26 1   
    61   25   80 1   
    62   25   81 1   
    63   26   27 1   
    64   26   82 1   
    65   26   83 1   
    66   27   28 1   
    67   27   84 1   
    68   27   85 1   
    69   28   29 1   
    70   28   86 1   
    71   28   87 1   
    72   29   30 1   
    73   29   88 1   
    74   29   89 1   
    75   30   31 1   
    76   30   90 1   
    77   30   91 1   
    78   31   32 1   
    79   31   92 1   
    80   31   93 1   
    81   32   33 1   
    82   32   94 1   
    83   32   95 1   
    84   33   34 1   
    85   33   96 1   
    86   33   97 1   
    87   34   35 1   
    88   34   98 1   
    89   34   99 1   
    90   35   36 1   
    91   35  100 1   
    92   35  101 1   
    93   36   37 1   
    94   36  102 1   
    95   36  103 1   
    96   37   38 1   
    97   37  104 1   
    98   37  105 1   
    99   38   39 1   
   100   38  106 1   
   101   38  107 1   
   102   39   40 1   
   103   39  108 1   
   104   39  109 1   
   105   40   41 1   
   106   40  110 1   
   107   40  111 1   
   108   41   42 1   
   109   41  112 1   
   110   41  113 1   
   111   42   43 1   
   112   42  114 1   
   113   42  115 1   
   114   43   44 1   
   115   43  116 1   
   116   43  117 1   
   117   44  118 1   
   118   44  119 1   
   119   44  120 1   
@<TRIPOS>SUBSTRUCTURE
     1 L44         1 TEMP              0 ****  ****    0 ROOT
