@<TRIPOS>MOLECULE
L44
  120   119     1     0     0
SMALL
bcc


@<TRIPOS>ATOM
      1 C1         -0.1610    0.3930   -0.2580 c3        1 L44      0.122400
      2 O1         -0.5690    1.1350    0.8700 oh        1 L44     -0.595800
      3 C2          1.3170   -0.0030   -0.2090 c3        1 L44      0.102100
      4 O2          1.7150   -0.2220    1.1540 os        1 L44     -0.435900
      5 C3          2.2540    1.0740   -0.7530 c3        1 L44      0.136400
      6 O3          1.8410    2.3310   -0.2000 os        1 L44     -0.455900
      7 C4          2.6740    3.4010   -0.4050 c         1 L44      0.637100
      8 O4          3.6930    3.2200   -1.0710 o         1 L44     -0.536000
      9 C5          2.1780    4.6460    0.2590 c3        1 L44     -0.127400
     10 C6          2.3730    5.8520   -0.6360 c3        1 L44     -0.079400
     11 C7          1.9990    7.1260    0.0910 c3        1 L44     -0.079400
     12 C8          2.1740    8.3340   -0.8040 c3        1 L44     -0.079400
     13 C9          1.8050    9.6100   -0.0790 c3        1 L44     -0.079400
     14 C10         1.9790   10.8190   -0.9740 c3        1 L44     -0.079400
     15 C11         1.6110   12.0960   -0.2490 c3        1 L44     -0.079400
     16 C12         1.7850   13.3050   -1.1430 c3        1 L44     -0.079400
     17 C13         1.4170   14.5820   -0.4190 c3        1 L44     -0.079400
     18 C14         1.5910   15.7900   -1.3130 c3        1 L44     -0.079400
     19 C15         1.2220   17.0670   -0.5890 c3        1 L44     -0.079400
     20 C16         1.3960   18.2770   -1.4820 c3        1 L44     -0.080400
     21 C17         1.0300   19.5510   -0.7650 c3        1 L44     -0.092100
     22 C18         1.4440   -1.4480    1.7060 c         1 L44      0.642100
     23 O18         0.9400   -2.3150    0.9900 o         1 L44     -0.543000
     24 C19         1.8210   -1.5120    3.1520 c3        1 L44     -0.126400
     25 C20         2.3280   -2.8900    3.5220 c3        1 L44     -0.079400
     26 C21         2.5730   -2.9890    5.0130 c3        1 L44     -0.078400
     27 C22         3.0970   -4.3590    5.3880 c3        1 L44     -0.079400
     28 C23         3.3390   -4.4630    6.8780 c3        1 L44     -0.079400
     29 C24         3.8630   -5.8320    7.2540 c3        1 L44     -0.079400
     30 C25         4.1050   -5.9370    8.7450 c3        1 L44     -0.079400
     31 C26         4.6300   -7.3060    9.1210 c3        1 L44     -0.079400
     32 C27         4.8720   -7.4120   10.6110 c3        1 L44     -0.079400
     33 C28         5.3960   -8.7810   10.9870 c3        1 L44     -0.079400
     34 C29         5.6380   -8.8870   12.4780 c3        1 L44     -0.079400
     35 C30         6.1620  -10.2560   12.8540 c3        1 L44     -0.079400
     36 C31         6.4040  -10.3610   14.3450 c3        1 L44     -0.079400
     37 C32         6.9280  -11.7310   14.7210 c3        1 L44     -0.079400
     38 C33         7.1690  -11.8360   16.2110 c3        1 L44     -0.079400
     39 C34         7.6930  -13.2050   16.5880 c3        1 L44     -0.079400
     40 C35         7.9350  -13.3110   18.0780 c3        1 L44     -0.079400
     41 C36         8.4590  -14.6800   18.4540 c3        1 L44     -0.079400
     42 C37         8.7000  -14.7860   19.9450 c3        1 L44     -0.079400
     43 C38         9.2240  -16.1550   20.3230 c3        1 L44     -0.080400
     44 C39         9.4660  -16.2650   21.8060 c3        1 L44     -0.092100
     45 H1         -0.8040   -0.5280   -0.2400 h1        1 L44      0.056700
     46 H2         -0.3500    0.9810   -1.1960 h1        1 L44      0.056700
     47 H3          0.0870    1.8290    1.0150 ho        1 L44      0.416000
     48 H4          1.4770   -0.9450   -0.8070 h1        1 L44      0.087700
     49 H5          3.3170    0.8680   -0.4610 h1        1 L44      0.068200
     50 H6          2.1670    1.1320   -1.8690 h1        1 L44      0.068200
     51 H9          1.0950    4.5270    0.5290 hc        1 L44      0.079700
     52 H10         2.7600    4.7710    1.2130 hc        1 L44      0.079700
     53 H11         1.7430    5.7430   -1.5580 hc        1 L44      0.057700
     54 H12         3.4440    5.9000   -0.9700 hc        1 L44      0.057700
     55 H13         2.6380    7.2400    1.0060 hc        1 L44      0.041700
     56 H14         0.9330    7.0640    0.4360 hc        1 L44      0.041700
     57 H15         1.5330    8.2220   -1.7180 hc        1 L44      0.042700
     58 H16         3.2390    8.3930   -1.1520 hc        1 L44      0.042700
     59 H17         0.7400    9.5510    0.2700 hc        1 L44      0.039700
     60 H18         2.4470    9.7230    0.8350 hc        1 L44      0.039700
     61 H19         1.3380   10.7070   -1.8870 hc        1 L44      0.040700
     62 H20         3.0440   10.8780   -1.3230 hc        1 L44      0.040700
     63 H21         0.5460   12.0370    0.1000 hc        1 L44      0.039700
     64 H22         2.2520   12.2090    0.6650 hc        1 L44      0.039700
     65 H23         2.8500   13.3640   -1.4920 hc        1 L44      0.039700
     66 H24         1.1430   13.1920   -2.0570 hc        1 L44      0.039700
     67 H25         2.0580   14.6940    0.4950 hc        1 L44      0.039700
     68 H26         0.3520   14.5220   -0.0700 hc        1 L44      0.039700
     69 H27         0.9490   15.6780   -2.2270 hc        1 L44      0.039700
     70 H28         2.6550   15.8500   -1.6620 hc        1 L44      0.039700
     71 H29         1.8640   17.1800    0.3250 hc        1 L44      0.039700
     72 H30         0.1580   17.0090   -0.2400 hc        1 L44      0.039700
     73 H31         0.7550   18.1620   -2.3960 hc        1 L44      0.038700
     74 H32         2.4610   18.3340   -1.8320 hc        1 L44      0.038700
     75 H33         1.6750   19.6960    0.1350 hc        1 L44      0.032700
     76 H34        -0.0350   19.5240   -0.4310 hc        1 L44      0.032700
     77 H35         1.1660   20.4300   -1.4410 hc        1 L44      0.032700
     78 H36         2.5970   -0.7330    3.3750 hc        1 L44      0.081200
     79 H37         0.9010   -1.2600    3.7460 hc        1 L44      0.081200
     80 H38         3.2780   -3.1040    2.9660 hc        1 L44      0.057200
     81 H39         1.5770   -3.6620    3.2040 hc        1 L44      0.057200
     82 H40         3.3110   -2.2040    5.3270 hc        1 L44      0.041700
     83 H41         1.6180   -2.7870    5.5660 hc        1 L44      0.041700
     84 H42         4.0530   -4.5600    4.8360 hc        1 L44      0.042700
     85 H43         2.3600   -5.1430    5.0700 hc        1 L44      0.042700
     86 H44         2.3820   -4.2620    7.4300 hc        1 L44      0.040200
     87 H45         4.0750   -3.6780    7.1960 hc        1 L44      0.040200
     88 H46         4.8200   -6.0330    6.7030 hc        1 L44      0.040200
     89 H47         3.1280   -6.6170    6.9360 hc        1 L44      0.040200
     90 H48         3.1490   -5.7370    9.2960 hc        1 L44      0.039700
     91 H49         4.8410   -5.1520    9.0630 hc        1 L44      0.039700
     92 H50         3.8940   -8.0910    8.8030 hc        1 L44      0.039700
     93 H51         5.5860   -7.5080    8.5690 hc        1 L44      0.039700
     94 H52         3.9160   -7.2110   11.1630 hc        1 L44      0.039700
     95 H53         5.6080   -6.6270   10.9290 hc        1 L44      0.039700
     96 H54         4.6600   -9.5660   10.6690 hc        1 L44      0.039700
     97 H55         6.3520   -8.9820   10.4360 hc        1 L44      0.039700
     98 H56         4.6820   -8.6850   13.0290 hc        1 L44      0.039700
     99 H57         6.3740   -8.1020   12.7960 hc        1 L44      0.039700
    100 H58         7.1180  -10.4570   12.3030 hc        1 L44      0.039700
    101 H59         5.4260  -11.0410   12.5360 hc        1 L44      0.039700
    102 H60         7.1400   -9.5770   14.6620 hc        1 L44      0.039700
    103 H61         5.4470  -10.1600   14.8960 hc        1 L44      0.039700
    104 H62         7.8840  -11.9320   14.1690 hc        1 L44      0.039700
    105 H63         6.1910  -12.5150   14.4030 hc        1 L44      0.039700
    106 H64         6.2130  -11.6350   16.7620 hc        1 L44      0.039700
    107 H65         7.9050  -11.0510   16.5290 hc        1 L44      0.039700
    108 H66         6.9570  -13.9900   16.2690 hc        1 L44      0.039700
    109 H67         8.6490  -13.4070   16.0360 hc        1 L44      0.039700
    110 H68         6.9790  -13.1100   18.6290 hc        1 L44      0.039700
    111 H69         8.6710  -12.5260   18.3960 hc        1 L44      0.039700
    112 H70         9.4150  -14.8820   17.9030 hc        1 L44      0.039700
    113 H71         7.7220  -15.4650   18.1360 hc        1 L44      0.039700
    114 H72         7.7440  -14.5850   20.4960 hc        1 L44      0.039700
    115 H73         9.4360  -14.0010   20.2630 hc        1 L44      0.039700
    116 H74         8.4870  -16.9380   20.0020 hc        1 L44      0.038700
    117 H75        10.1790  -16.3550   19.7690 hc        1 L44      0.038700
    118 H76         8.5200  -16.0930   22.3740 hc        1 L44      0.032700
    119 H77        10.2160  -15.5080   22.1400 hc        1 L44      0.032700
    120 H78         9.8520  -17.2810   22.0620 hc        1 L44      0.032700
@<TRIPOS>BOND
     1    1    2 1   
     2    1    3 1   
     3    1   45 1   
     4    1   46 1   
     5    2   47 1   
     6    3    4 1   
     7    3    5 1   
     8    3   48 1   
     9    4   22 1   
    10    5    6 1   
    11    5   49 1   
    12    5   50 1   
    13    6    7 1   
    14    7    8 2   
    15    7    9 1   
    16    9   10 1   
    17    9   51 1   
    18    9   52 1   
    19   10   11 1   
    20   10   53 1   
    21   10   54 1   
    22   11   12 1   
    23   11   55 1   
    24   11   56 1   
    25   12   13 1   
    26   12   57 1   
    27   12   58 1   
    28   13   14 1   
    29   13   59 1   
    30   13   60 1   
    31   14   15 1   
    32   14   61 1   
    33   14   62 1   
    34   15   16 1   
    35   15   63 1   
    36   15   64 1   
    37   16   17 1   
    38   16   65 1   
    39   16   66 1   
    40   17   18 1   
    41   17   67 1   
    42   17   68 1   
    43   18   19 1   
    44   18   69 1   
    45   18   70 1   
    46   19   20 1   
    47   19   71 1   
    48   19   72 1   
    49   20   21 1   
    50   20   73 1   
    51   20   74 1   
    52   21   75 1   
    53   21   76 1   
    54   21   77 1   
    55   22   23 2   
    56   22   24 1   
    57   24   25 1   
    58   24   78 1   
    59   24   79 1   
    60   25   26 1   
    61   25   80 1   
    62   25   81 1   
    63   26   27 1   
    64   26   82 1   
    65   26   83 1   
    66   27   28 1   
    67   27   84 1   
    68   27   85 1   
    69   28   29 1   
    70   28   86 1   
    71   28   87 1   
    72   29   30 1   
    73   29   88 1   
    74   29   89 1   
    75   30   31 1   
    76   30   90 1   
    77   30   91 1   
    78   31   32 1   
    79   31   92 1   
    80   31   93 1   
    81   32   33 1   
    82   32   94 1   
    83   32   95 1   
    84   33   34 1   
    85   33   96 1   
    86   33   97 1   
    87   34   35 1   
    88   34   98 1   
    89   34   99 1   
    90   35   36 1   
    91   35  100 1   
    92   35  101 1   
    93   36   37 1   
    94   36  102 1   
    95   36  103 1   
    96   37   38 1   
    97   37  104 1   
    98   37  105 1   
    99   38   39 1   
   100   38  106 1   
   101   38  107 1   
   102   39   40 1   
   103   39  108 1   
   104   39  109 1   
   105   40   41 1   
   106   40  110 1   
   107   40  111 1   
   108   41   42 1   
   109   41  112 1   
   110   41  113 1   
   111   42   43 1   
   112   42  114 1   
   113   42  115 1   
   114   43   44 1   
   115   43  116 1   
   116   43  117 1   
   117   44  118 1   
   118   44  119 1   
   119   44  120 1   
@<TRIPOS>SUBSTRUCTURE
     1 L44         1 TEMP              0 ****  ****    0 ROOT
