@<TRIPOS>MOLECULE
L44
  120   118     1     0     0
SMALL
bcc


@<TRIPOS>ATOM
      1 C1         -6.5510    5.7870   -1.4180 c3        1 L44     -0.022000
      2 O1         -7.3860    4.6690   -1.2540 oh        1 L44     -0.325000
      3 C2         -5.3130    5.3820   -2.1700 c3        1 L44      0.033000
      4 O2         -4.2000    5.3900   -1.2880 os        1 L44     -0.280000
      5 C3         -5.0660    6.3630   -3.3090 c3        1 L44     -0.033000
      6 O3         -5.3800    5.7360   -4.5580 os        1 L44     -0.283000
      7 C4         -5.1060    6.5450   -5.6930 c2        1 L44      0.306000
      8 O4         -4.5400    7.6100   -5.5560 o         1 L44     -0.348000
      9 C5         -5.5820    6.1030   -7.0840 c3        1 L44     -0.155000
     10 C6         -4.5800    6.5710   -8.1380 c3        1 L44     -0.158000
     11 C7         -4.8790    5.8730   -9.4790 c3        1 L44     -0.157000
     12 C8         -3.8140    6.2620  -10.5040 c3        1 L44     -0.158000
     13 C9         -3.8030    5.2400  -11.6460 c3        1 L44     -0.157000
     14 C10        -2.5880    5.4960  -12.5530 c3        1 L44     -0.158000
     15 C11        -2.3440    4.2670  -13.4450 c3        1 L44     -0.157000
     16 C12        -1.0180    4.4390  -14.2030 c3        1 L44     -0.158000
     17 C13        -0.7050    3.1620  -14.9800 c3        1 L44     -0.157000
     18 C14         0.6700    3.2950  -15.6440 c3        1 L44     -0.158000
     19 C15         1.0130    2.0060  -16.3560 c3        1 L44     -0.158000
     20 C16         2.3420    2.1630  -17.0760 c3        1 L44     -0.159000
     21 C17         2.6570    0.8930  -17.8330 c3        1 L44     -0.210000
     22 C18        -4.0730    4.1980   -0.5010 c1        1 L44      0.308000
     23 O18        -4.8020    3.2470   -0.7170 o         1 L44     -0.347000
     24 C19        -3.0310    4.1270    0.6240 c2        1 L44     -0.156000
     25 C20        -2.7030    2.6590    0.9250 c3        1 L44     -0.159000
     26 C21        -1.7350    2.5820    2.1130 c3        1 L44     -0.157000
     27 C22        -1.5220    1.1040    2.5080 c3        1 L44     -0.158000
     28 C23        -0.6130    1.0310    3.7520 c3        1 L44     -0.157000
     29 C24        -0.4160   -0.4520    4.1620 c3        1 L44     -0.158000
     30 C25         0.4840   -0.5250    5.4160 c3        1 L44     -0.157000
     31 C26         0.6540   -2.0080    5.8470 c3        1 L44     -0.158000
     32 C27         1.5570   -2.0810    7.1030 c3        1 L44     -0.158000
     33 C28         1.6850   -3.5510    7.5610 c3        1 L44     -0.158000
     34 C29         2.5680   -3.6210    8.8350 c3        1 L44     -0.158000
     35 C30         2.7180   -5.0860    9.2760 c3        1 L44     -0.158000
     36 C31         3.5760   -5.1530   10.5580 c3        1 L44     -0.158000
     37 C32         3.7440   -6.6140   10.9870 c3        1 L44     -0.158000
     38 C33         4.5880   -6.6760   12.2790 c3        1 L44     -0.158000
     39 C34         4.7410   -8.1360   12.7220 c3        1 L44     -0.158000
     40 C35         5.6050   -8.2000   13.9890 c3        1 L44     -0.158000
     41 C36         5.7890   -9.6690   14.4090 c3        1 L44     -0.158000
     42 C37         6.6220   -9.7340   15.6820 c3        1 L44     -0.158000
     43 C38         6.8240  -11.1970   16.0880 c3        1 L44     -0.159000
     44 C39         7.6580  -11.2590   17.3670 c3        1 L44     -0.210000
     45 H1         -6.3000    6.1370   -0.5410 h1        1 L44      0.083000
     46 H2         -7.0300    6.4820   -1.9240 h1        1 L44      0.083000
     47 H3         -8.2360    4.9390   -1.1900 ho        1 L44      0.202000
     48 H4         -5.4320    4.4840   -2.5350 h1        1 L44      0.146000
     49 H5         -5.6330    7.1540   -3.1890 h1        1 L44      0.105500
     50 H6         -4.1260    6.6340   -3.3080 h1        1 L44      0.105500
     51 H9         -6.4610    6.4970   -7.2700 hc        1 L44      0.118000
     52 H10        -5.6500    5.1260   -7.1100 hc        1 L44      0.118000
     53 H11        -3.6750    6.3480   -7.8500 hc        1 L44      0.098500
     54 H12        -4.6560    7.5390   -8.2520 hc        1 L44      0.098500
     55 H13        -5.7560    6.1480   -9.8010 hc        1 L44      0.080500
     56 H14        -4.8680    4.9060   -9.3510 hc        1 L44      0.080500
     57 H15        -4.0160    7.1510  -10.8640 hc        1 L44      0.082500
     58 H16        -2.9400    6.2770  -10.0750 hc        1 L44      0.082500
     59 H17        -4.6210    5.3270  -12.1670 hc        1 L44      0.079000
     60 H18        -3.7480    4.3380  -11.2750 hc        1 L44      0.079000
     61 H19        -1.7970    5.6600  -11.9990 hc        1 L44      0.080000
     62 H20        -2.7610    6.2800  -13.1160 hc        1 L44      0.080000
     63 H21        -3.0770    4.1790  -14.0860 hc        1 L44      0.079000
     64 H22        -2.3000    3.4650  -12.8890 hc        1 L44      0.079000
     65 H23        -0.3000    4.6160  -13.5670 hc        1 L44      0.079000
     66 H24        -1.0930    5.1870  -14.8250 hc        1 L44      0.079000
     67 H25        -0.6990    2.4020  -14.3680 hc        1 L44      0.079000
     68 H26        -1.3860    3.0220  -15.6660 hc        1 L44      0.079000
     69 H27         0.6500    4.0280  -16.2890 hc        1 L44      0.079000
     70 H28         1.3420    3.4790  -14.9640 hc        1 L44      0.079000
     71 H29         1.0800    1.2820  -15.7030 hc        1 L44      0.079000
     72 H30         0.3160    1.7970  -17.0030 hc        1 L44      0.079000
     73 H31         2.2870    2.9130  -17.7040 hc        1 L44      0.078000
     74 H32         3.0510    2.3370  -16.4200 hc        1 L44      0.078000
     75 H33         3.5350    0.9810  -18.2690 hc        1 L44      0.072000
     76 H34         1.9710    0.7400  -18.5100 hc        1 L44      0.072000
     77 H35         2.6760    0.1360  -17.2090 hc        1 L44      0.072000
     78 H36        -2.2190    4.5910    0.3460 ha        1 L44      0.119000
     79 H37        -3.3900    4.5530    1.4280 ha        1 L44      0.119000
     80 H38        -3.5280    2.1790    1.1450 hc        1 L44      0.097500
     81 H39        -2.2870    2.2500    0.1390 hc        1 L44      0.097500
     82 H40        -2.1090    3.0700    2.8690 hc        1 L44      0.080500
     83 H41        -0.8750    2.9790    1.8600 hc        1 L44      0.080500
     84 H42        -2.3890    0.6920    2.7120 hc        1 L44      0.082500
     85 H43        -1.0990    0.6250    1.7660 hc        1 L44      0.082500
     86 H44         0.2570    1.4300    3.5440 hc        1 L44      0.079000
     87 H45        -1.0310    1.5230    4.4920 hc        1 L44      0.079000
     88 H46         0.0070   -0.9390    3.4300 hc        1 L44      0.080000
     89 H47        -1.2870   -0.8540    4.3620 hc        1 L44      0.080000
     90 H48         1.3570   -0.1450    5.2120 hc        1 L44      0.079000
     91 H49         0.0720   -0.0200    6.1430 hc        1 L44      0.079000
     92 H50        -0.2190   -2.3880    6.0530 hc        1 L44      0.079000
     93 H51         1.0660   -2.5130    5.1190 hc        1 L44      0.079000
     94 H52         1.1620   -1.5510    7.8190 hc        1 L44      0.079000
     95 H53         2.4420   -1.7290    6.8870 hc        1 L44      0.079000
     96 H54         2.0980   -4.0800    6.8490 hc        1 L44      0.079000
     97 H55         0.7970   -3.9090    7.7600 hc        1 L44      0.079000
     98 H56         3.4500   -3.2470    8.6420 hc        1 L44      0.079000
     99 H57         2.1480   -3.1090    9.5490 hc        1 L44      0.079000
    100 H58         3.1520   -5.5950    8.5670 hc        1 L44      0.079000
    101 H59         1.8340   -5.4650    9.4550 hc        1 L44      0.079000
    102 H60         3.1350   -4.6530   11.2710 hc        1 L44      0.079000
    103 H61         4.4540   -4.7630   10.3820 hc        1 L44      0.079000
    104 H62         4.1940   -7.1100   10.2800 hc        1 L44      0.079000
    105 H63         2.8670   -7.0060   11.1520 hc        1 L44      0.079000
    106 H64         5.4740   -6.2930   12.1090 hc        1 L44      0.079000
    107 H65         4.1410   -6.1640   12.9880 hc        1 L44      0.079000
    108 H66         3.8560   -8.5140   12.9110 hc        1 L44      0.079000
    109 H67         5.1710   -8.6520   12.0060 hc        1 L44      0.079000
    110 H68         5.1660   -7.7090   14.7070 hc        1 L44      0.079000
    111 H69         6.4760   -7.8020   13.8090 hc        1 L44      0.079000
    112 H70         4.9150  -10.0720   14.5710 hc        1 L44      0.079000
    113 H71         6.2440  -10.1550   13.6970 hc        1 L44      0.079000
    114 H72         6.1600   -9.2610   16.3960 hc        1 L44      0.079000
    115 H73         7.4900   -9.3170   15.5250 hc        1 L44      0.079000
    116 H74         5.9550  -11.6150   16.2440 hc        1 L44      0.078000
    117 H75         7.2900  -11.6710   15.3730 hc        1 L44      0.078000
    118 H76         8.4720  -10.7250   17.2530 hc        1 L44      0.072000
    119 H77         7.1360  -10.9030   18.1140 hc        1 L44      0.072000
    120 H78         7.9020  -12.1920   17.5540 hc        1 L44      0.072000
@<TRIPOS>BOND
     1    1    2 1   
     2    1    3 1   
     3    1   45 1   
     4    1   46 1   
     5    2   47 1   
     6    3    4 1   
     7    3    5 1   
     8    3   48 1   
     9    4   22 1   
    10    5    6 1   
    11    5   49 1   
    12    5   50 1   
    13    6    7 1   
    14    7    8 1   
    15    7    9 1   
    16    9   10 1   
    17    9   51 1   
    18    9   52 1   
    19   10   11 1   
    20   10   53 1   
    21   10   54 1   
    22   11   12 1   
    23   11   55 1   
    24   11   56 1   
    25   12   13 1   
    26   12   57 1   
    27   12   58 1   
    28   13   14 1   
    29   13   59 1   
    30   13   60 1   
    31   14   15 1   
    32   14   61 1   
    33   14   62 1   
    34   15   16 1   
    35   15   63 1   
    36   15   64 1   
    37   16   17 1   
    38   16   65 1   
    39   16   66 1   
    40   17   18 1   
    41   17   67 1   
    42   17   68 1   
    43   18   19 1   
    44   18   69 1   
    45   18   70 1   
    46   19   20 1   
    47   19   71 1   
    48   19   72 1   
    49   20   21 1   
    50   20   73 1   
    51   20   74 1   
    52   21   75 1   
    53   21   76 1   
    54   21   77 1   
    55   22   23 1   
    56   24   25 1   
    57   24   78 1   
    58   24   79 1   
    59   25   26 1   
    60   25   80 1   
    61   25   81 1   
    62   26   27 1   
    63   26   82 1   
    64   26   83 1   
    65   27   28 1   
    66   27   84 1   
    67   27   85 1   
    68   28   29 1   
    69   28   86 1   
    70   28   87 1   
    71   29   30 1   
    72   29   88 1   
    73   29   89 1   
    74   30   31 1   
    75   30   90 1   
    76   30   91 1   
    77   31   32 1   
    78   31   92 1   
    79   31   93 1   
    80   32   33 1   
    81   32   94 1   
    82   32   95 1   
    83   33   34 1   
    84   33   96 1   
    85   33   97 1   
    86   34   35 1   
    87   34   98 1   
    88   34   99 1   
    89   35   36 1   
    90   35  100 1   
    91   35  101 1   
    92   36   37 1   
    93   36  102 1   
    94   36  103 1   
    95   37   38 1   
    96   37  104 1   
    97   37  105 1   
    98   38   39 1   
    99   38  106 1   
   100   38  107 1   
   101   39   40 1   
   102   39  108 1   
   103   39  109 1   
   104   40   41 1   
   105   40  110 1   
   106   40  111 1   
   107   41   42 1   
   108   41  112 1   
   109   41  113 1   
   110   42   43 1   
   111   42  114 1   
   112   42  115 1   
   113   43   44 1   
   114   43  116 1   
   115   43  117 1   
   116   44  118 1   
   117   44  119 1   
   118   44  120 1   
@<TRIPOS>SUBSTRUCTURE
     1 L44         1 TEMP              0 ****  ****    0 ROOT
