@<TRIPOS>MOLECULE
L46
   32    32     1     0     0
SMALL
bcc


@<TRIPOS>ATOM
      1 C4         -0.0770   -0.0550    0.0890 cc        1 L46     -0.266600
      2 C3          1.3410   -0.1670    0.0460 cc        1 L46      0.108700
      3 C7          1.8000   -0.1740    1.4060 cd        1 L46     -0.312900
      4 C5         -0.4650    0.0070    1.4630 cd        1 L46      0.091400
      5 C27        -1.0360    0.0300   -1.0220 c         1 L46      0.603700
      6 C8          3.1630   -0.2400    1.8190 c         1 L46      0.595700
      7 C26        -1.8330    0.1050    2.0060 c3        1 L46     -0.088800
      8 C29        -0.7620   -0.7940   -2.2360 c3        1 L46     -0.198100
      9 C1          2.2820    1.0990   -1.8650 c3        1 L46     -0.093100
     10 C2          2.2010   -0.2310   -1.1490 c3        1 L46     -0.067100
     11 N6          0.6680   -0.0510    2.2470 na        1 L46     -0.181100
     12 N10         3.4330    0.0700    3.3020 n4        1 L46     -0.680800
     13 O28        -2.0440    0.7400   -0.9290 o         1 L46     -0.514100
     14 O9          4.1680   -0.4950    1.1660 o         1 L46     -0.448100
     15 C6          4.8760    0.1390    3.6200 c3        1 L46      0.085100
     16 H1         -1.8540    0.5210    3.0440 hc        1 L46      0.094033
     17 H2         -2.3060   -0.9120    2.0180 hc        1 L46      0.094033
     18 H3         -2.4470    0.7690    1.3370 hc        1 L46      0.094033
     19 H4         -1.7080   -0.9480   -2.8140 hc        1 L46      0.077033
     20 H5         -0.0340   -0.2580   -2.8960 hc        1 L46      0.077033
     21 H6         -0.3400   -1.7890   -1.9570 hc        1 L46      0.077033
     22 H7          1.2640    1.4610   -2.1520 hc        1 L46      0.052700
     23 H8          2.7620    1.8710   -1.2170 hc        1 L46      0.052700
     24 H9          2.8950    0.9850   -2.7920 hc        1 L46      0.052700
     25 H10         1.7860   -1.0100   -1.8490 hc        1 L46      0.082700
     26 H11         3.2380   -0.5660   -0.8700 hc        1 L46      0.082700
     27 H12         0.6600   -0.1560    3.2280 hn        1 L46      0.296700
     28 H13         2.9980   -0.6600    3.8730 hn        1 L46      0.448300
     29 H14         5.0040    0.3640    4.7130 hx        1 L46      0.112367
     30 H15         5.3560    0.9440    3.0010 hx        1 L46      0.112367
     31 H16         5.3620   -0.8440    3.3690 hx        1 L46      0.112367
     32 H102        2.9940    0.9680    3.5290 hn        1 L46      0.448300
@<TRIPOS>BOND
     1    1    2 1   
     2    1    4 2   
     3    1    5 1   
     4    2    3 2   
     5    2   10 1   
     6    3    6 1   
     7    3   11 1   
     8    4    7 1   
     9    4   11 1   
    10    5    8 1   
    11    5   13 2   
    12    6   12 1   
    13    6   14 2   
    14    7   16 1   
    15    7   17 1   
    16    7   18 1   
    17    8   19 1   
    18    8   20 1   
    19    8   21 1   
    20    9   10 1   
    21    9   22 1   
    22    9   23 1   
    23    9   24 1   
    24   10   25 1   
    25   10   26 1   
    26   11   27 1   
    27   12   15 1   
    28   12   28 1   
    29   12   32 1   
    30   15   29 1   
    31   15   30 1   
    32   15   31 1   
@<TRIPOS>SUBSTRUCTURE
     1 L46         1 TEMP              0 ****  ****    0 ROOT
