@<TRIPOS>MOLECULE
L46
   31    31     1     0     0
SMALL
bcc


@<TRIPOS>ATOM
      1 C4         -1.4190   -0.4430   -0.0630 cc        1 L46     -0.255600
      2 C3         -0.2720    0.3710   -0.3790 cc        1 L46     -0.016300
      3 C7          0.8570   -0.4700   -0.3090 cd        1 L46     -0.206900
      4 C5         -0.9430   -1.7570    0.1910 cd        1 L46     -0.011600
      5 C27        -2.8260   -0.0670   -0.0010 c         1 L46      0.609700
      6 C8          2.2720   -0.1210   -0.5620 c         1 L46      0.692700
      7 C26        -1.7140   -2.9620    0.5530 c3        1 L46     -0.056800
      8 C29        -3.2920    1.0470   -0.8860 c3        1 L46     -0.195100
      9 C1         -0.4390    2.6720    0.5350 c3        1 L46     -0.089100
     10 C2         -0.2240    1.8110   -0.6880 c3        1 L46     -0.040100
     11 N6          0.4340   -1.7580    0.0480 na        1 L46     -0.161100
     12 N10         3.2280   -0.7680    0.2140 n         1 L46     -0.567900
     13 O28        -3.6320   -0.6630    0.7310 o         1 L46     -0.562100
     14 O9          2.6010    0.6830   -1.4560 o         1 L46     -0.587100
     15 C6          4.6120   -0.4180    0.1190 c3        1 L46      0.069300
     16 H1         -1.4270   -3.8360   -0.0820 hc        1 L46      0.066033
     17 H2         -1.5370   -3.2250    1.6270 hc        1 L46      0.066033
     18 H3         -2.8080   -2.7580    0.4210 hc        1 L46      0.066033
     19 H4         -2.9610    2.0270   -0.4610 hc        1 L46      0.064700
     20 H5         -2.8660    0.9320   -1.9120 hc        1 L46      0.064700
     21 H6         -4.4070    1.0460   -0.9500 hc        1 L46      0.064700
     22 H7          0.3880    2.5240    1.2710 hc        1 L46      0.036367
     23 H8         -0.4620    3.7490    0.2400 hc        1 L46      0.036367
     24 H9         -1.4030    2.4190    1.0390 hc        1 L46      0.036367
     25 H10         0.7760    2.0580   -1.1440 hc        1 L46      0.067200
     26 H11        -1.0000    2.0510   -1.4640 hc        1 L46      0.067200
     27 H12         1.0120   -2.5590    0.0670 hn        1 L46      0.302700
     28 H13         2.9340   -1.1610    1.0770 hn        1 L46      0.301500
     29 H14         4.8420   -0.0450   -0.9150 h1        1 L46      0.045700
     30 H15         4.8880    0.3840    0.8570 h1        1 L46      0.045700
     31 H16         5.2310   -1.3300    0.3310 h1        1 L46      0.045700
@<TRIPOS>BOND
     1    1    2 1   
     2    1    4 2   
     3    1    5 1   
     4    2    3 2   
     5    2   10 1   
     6    3    6 1   
     7    3   11 1   
     8    4    7 1   
     9    4   11 1   
    10    5    8 1   
    11    5   13 2   
    12    6   12 1   
    13    6   14 2   
    14    7   16 1   
    15    7   17 1   
    16    7   18 1   
    17    8   19 1   
    18    8   20 1   
    19    8   21 1   
    20    9   10 1   
    21    9   22 1   
    22    9   23 1   
    23    9   24 1   
    24   10   25 1   
    25   10   26 1   
    26   11   27 1   
    27   12   15 1   
    28   12   28 1   
    29   15   29 1   
    30   15   30 1   
    31   15   31 1   
@<TRIPOS>SUBSTRUCTURE
     1 L46         1 TEMP              0 ****  ****    0 ROOT
