@<TRIPOS>MOLECULE
L46
   32    32     1     0     0
SMALL
bcc


@<TRIPOS>ATOM
      1 C4         -0.0750   -0.0580    0.0860 cc        1 L46     -0.266600
      2 C3          1.3430   -0.1720    0.0470 cc        1 L46      0.108700
      3 C7          1.7980   -0.1680    1.4080 cd        1 L46     -0.312900
      4 C5         -0.4670    0.0150    1.4580 cd        1 L46      0.091400
      5 C27        -1.0320    0.0180   -1.0280 c         1 L46      0.603700
      6 C8          3.1600   -0.2320    1.8260 c         1 L46      0.595700
      7 C26        -1.8370    0.1190    1.9970 c3        1 L46     -0.088800
      8 C29        -0.7550   -0.8150   -2.2360 c3        1 L46     -0.198100
      9 C1          2.2900    1.0790   -1.8710 c3        1 L46     -0.093100
     10 C2          2.2050   -0.2460   -1.1440 c3        1 L46     -0.067100
     11 N6          0.6630   -0.0380    2.2450 na        1 L46     -0.181100
     12 N10         3.4260    0.0880    3.3080 ny        1 L46     -0.680800
     13 O28        -2.0400    0.7290   -0.9430 o         1 L46     -0.515100
     14 O9          4.1660   -0.4920    1.1770 o         1 L46     -0.448100
     15 C6          4.8680    0.1570    3.6290 c3        1 L46      0.085100
     16 H1         -1.8600    0.5410    3.0320 hc        1 L46      0.093700
     17 H2         -2.3120   -0.8970    2.0120 hc        1 L46      0.093700
     18 H3         -2.4470    0.7790    1.3230 hc        1 L46      0.093700
     19 H4         -1.7000   -0.9720   -2.8150 hc        1 L46      0.077033
     20 H5         -0.0240   -0.2830   -2.8970 hc        1 L46      0.077033
     21 H6         -0.3340   -1.8080   -1.9480 hc        1 L46      0.077033
     22 H7          1.2740    1.4390   -2.1630 hc        1 L46      0.052700
     23 H8          2.7690    1.8550   -1.2280 hc        1 L46      0.052700
     24 H9          2.9050    0.9570   -2.7950 hc        1 L46      0.052700
     25 H10         1.7920   -1.0300   -1.8400 hc        1 L46      0.082700
     26 H11         3.2410   -0.5800   -0.8610 hc        1 L46      0.082700
     27 H12         0.6530   -0.1340    3.2280 hn        1 L46      0.296700
     28 H13         2.9880   -0.6370    3.8820 hn        1 L46      0.448300
     29 H14         4.9930    0.3900    4.7200 hx        1 L46      0.112367
     30 H15         5.3510    0.9570    3.0050 hx        1 L46      0.112367
     31 H16         5.3540   -0.8270    3.3860 hx        1 L46      0.112367
     32 H102        2.9870    0.9880    3.5260 hn        1 L46      0.448300
@<TRIPOS>BOND
     1    1    2 1   
     2    1    4 2   
     3    1    5 1   
     4    2    3 2   
     5    2   10 1   
     6    3    6 1   
     7    3   11 1   
     8    4    7 1   
     9    4   11 1   
    10    5    8 1   
    11    5   13 2   
    12    6   12 1   
    13    6   14 2   
    14    7   16 1   
    15    7   17 1   
    16    7   18 1   
    17    8   19 1   
    18    8   20 1   
    19    8   21 1   
    20    9   10 1   
    21    9   22 1   
    22    9   23 1   
    23    9   24 1   
    24   10   25 1   
    25   10   26 1   
    26   11   27 1   
    27   12   15 1   
    28   12   28 1   
    29   12   32 1   
    30   15   29 1   
    31   15   30 1   
    32   15   31 1   
@<TRIPOS>SUBSTRUCTURE
     1 L46         1 TEMP              0 ****  ****    0 ROOT
