@<TRIPOS>MOLECULE
L46
   32    32     1     0     0
SMALL
bcc


@<TRIPOS>ATOM
      1 C4         -0.0790   -0.0530    0.0930 cc        1 L46     -0.266600
      2 C3          1.3390   -0.1740    0.0480 cc        1 L46      0.108700
      3 C7          1.8010   -0.1660    1.4070 cd        1 L46     -0.312900
      4 C5         -0.4630    0.0280    1.4680 cd        1 L46      0.091400
      5 C27        -1.0410    0.0220   -1.0160 c         1 L46      0.603700
      6 C8          3.1650   -0.2340    1.8170 c         1 L46      0.595700
      7 C26        -1.8290    0.1400    2.0130 c3        1 L46     -0.088800
      8 C29        -0.7740   -0.8180   -2.2210 c3        1 L46     -0.198100
      9 C1          2.2810    1.0650   -1.8800 c3        1 L46     -0.093100
     10 C2          2.1950   -0.2570   -1.1480 c3        1 L46     -0.067100
     11 N6          0.6710   -0.0270    2.2490 na        1 L46     -0.181100
     12 N10         3.4400    0.0880    3.2970 n4        1 L46     -0.680800
     13 O28        -2.0450    0.7380   -0.9280 o         1 L46     -0.515100
     14 O9          4.1670   -0.5000    1.1630 o         1 L46     -0.448100
     15 C6          4.8840    0.1500    3.6110 c3        1 L46      0.085100
     16 H1         -2.3080   -0.8740    2.0360 hc        1 L46      0.093700
     17 H2         -1.8450    0.5670    3.0460 hc        1 L46      0.093700
     18 H3         -2.4400    0.8000    1.3390 hc        1 L46      0.093700
     19 H4         -0.3560   -1.8110   -1.9310 hc        1 L46      0.077033
     20 H5         -1.7220   -0.9740   -2.7940 hc        1 L46      0.077033
     21 H6         -0.0450   -0.2920   -2.8890 hc        1 L46      0.077033
     22 H7          2.7670    1.8420   -1.2440 hc        1 L46      0.052700
     23 H8          2.8900    0.9360   -2.8080 hc        1 L46      0.052700
     24 H9          1.2650    1.4280   -2.1690 hc        1 L46      0.052700
     25 H10         1.7740   -1.0420   -1.8380 hc        1 L46      0.082700
     26 H11         3.2310   -0.5940   -0.8680 hc        1 L46      0.082700
     27 H12         0.6660   -0.1180    3.2320 hn        1 L46      0.296700
     28 H13         3.0010   -0.6330    3.8750 hn        1 L46      0.448300
     29 H14         5.0160    0.3860    4.7010 hx        1 L46      0.112367
     30 H15         5.3680    0.9460    2.9820 hx        1 L46      0.112367
     31 H16         5.3640   -0.8370    3.3680 hx        1 L46      0.112367
     32 H102        3.0070    0.9910    3.5150 hn        1 L46      0.448300
@<TRIPOS>BOND
     1    1    2 1   
     2    1    4 2   
     3    1    5 1   
     4    2    3 2   
     5    2   10 1   
     6    3    6 1   
     7    3   11 1   
     8    4    7 1   
     9    4   11 1   
    10    5    8 1   
    11    5   13 2   
    12    6   12 1   
    13    6   14 2   
    14    7   16 1   
    15    7   17 1   
    16    7   18 1   
    17    8   19 1   
    18    8   20 1   
    19    8   21 1   
    20    9   10 1   
    21    9   22 1   
    22    9   23 1   
    23    9   24 1   
    24   10   25 1   
    25   10   26 1   
    26   11   27 1   
    27   12   15 1   
    28   12   28 1   
    29   12   32 1   
    30   15   29 1   
    31   15   30 1   
    32   15   31 1   
@<TRIPOS>SUBSTRUCTURE
     1 L46         1 TEMP              0 ****  ****    0 ROOT
