@<TRIPOS>MOLECULE
L46
   31    25     1     0     0
SMALL
bcc


@<TRIPOS>ATOM
      1 C4         -1.1190   -0.2770   -0.6760 c1        1 L46     -0.113500
      2 C3          0.2390   -0.1730   -0.6910 c1        1 L46     -0.113500
      3 C7          0.6790   -0.1440    0.6240 c1        1 L46     -0.085500
      4 C5         -1.5300   -0.3130    0.6450 c1        1 L46     -0.085500
      5 C27        -2.0410   -0.3440   -1.9200 c1        1 L46      0.299000
      6 C8          2.1330   -0.1290    1.0830 c1        1 L46      0.364000
      7 C26        -2.9650   -0.3480    1.1300 c2        1 L46     -0.219500
      8 C29        -3.5610   -0.4610   -1.7420 c2        1 L46     -0.219500
      9 C1          1.3480    1.2860   -2.3760 c3        1 L46     -0.207000
     10 C2          1.1240   -0.1550   -1.9340 c2        1 L46     -0.118000
     11 N6         -0.4160   -0.2300    1.4380 n2        1 L46     -0.156000
     12 N10         2.4450   -0.2490    2.4980 n3        1 L46     -0.376000
     13 O28        -1.5570   -0.3660   -3.0350 o         1 L46     -0.301000
     14 O9          3.0300   -0.1420    0.2610 o         1 L46     -0.341000
     15 C6          3.6320    0.3800    3.0330 c3        1 L46     -0.087000
     16 H1         -3.4240    0.4680    0.8480 ha        1 L46      0.098333
     17 H2         -2.9770   -0.4100    2.1150 ha        1 L46      0.098333
     18 H3         -3.4170   -1.1250    0.7500 ha        1 L46      0.098333
     19 H4         -3.8800    0.2680   -1.1720 ha        1 L46      0.098333
     20 H5         -3.7760   -1.3240   -1.3210 ha        1 L46      0.098333
     21 H6         -4.0000   -0.4060   -2.6200 ha        1 L46      0.098333
     22 H7          2.3100    1.4780   -2.3920 hc        1 L46      0.079667
     23 H8          0.9730    1.4140   -3.2770 hc        1 L46      0.079667
     24 H9          0.9050    1.8920   -1.7490 hc        1 L46      0.079667
     25 H10         0.6860   -0.6550   -2.6550 ha        1 L46      0.105500
     26 H11         1.9870   -0.5700   -1.7260 ha        1 L46      0.105500
     27 H12        -0.4070   -0.2320    2.3440 DU        1 L46      0.252000
     28 H13         1.8770   -0.6990    3.0540 hn        1 L46      0.212000
     29 H14         4.4250   -0.1210    2.7450 h1        1 L46      0.085000
     30 H15         3.5870    0.3870    4.0170 h1        1 L46      0.085000
     31 H16         3.6910    1.3030    2.7010 h1        1 L46      0.085000
@<TRIPOS>BOND
     1    1    2 1   
     2    1    4 1   
     3    2    3 1   
     4    3   11 1   
     5    4   11 1   
     6    5   13 1   
     7    6   12 1   
     8    6   14 1   
     9    7   16 1   
    10    7   17 1   
    11    7   18 1   
    12    8   19 1   
    13    8   20 1   
    14    8   21 1   
    15    9   10 1   
    16    9   22 1   
    17    9   23 1   
    18    9   24 1   
    19   10   25 1   
    20   10   26 1   
    21   12   15 1   
    22   12   28 1   
    23   15   29 1   
    24   15   30 1   
    25   15   31 1   
@<TRIPOS>SUBSTRUCTURE
     1 L46         1 TEMP              0 ****  ****    0 ROOT
