@<TRIPOS>MOLECULE
L47
   37    39     1     0     0
SMALL
bcc


@<TRIPOS>ATOM
      1 C1          0.0130   -0.7780    0.4010 ca        1 L47     -0.131000
      2 C2          1.4040   -0.7590    0.4060 ca        1 L47     -0.105000
      3 C3          2.1040    0.0670    1.2990 ca        1 L47     -0.100900
      4 C4          1.3790    0.8790    2.1870 ca        1 L47      0.040400
      5 C5         -0.0220    0.8590    2.1770 ca        1 L47     -0.129000
      6 C6         -0.7000    0.0310    1.2860 ca        1 L47     -0.112000
      7 C11         3.5610    0.0590    1.2640 ce        1 L47      0.345900
      8 N12         4.3600   -0.1020    2.3060 n2        1 L47     -0.400300
      9 N13         5.6540   -0.0160    1.9170 n         1 L47     -0.251800
     10 C14         5.7930    0.2220    0.4440 c3        1 L47      0.118000
     11 C15         4.3150    0.2520   -0.0470 c3        1 L47     -0.152700
     12 C18         6.5210    1.4940    0.1240 ca        1 L47     -0.054300
     13 C20         6.7080   -0.6060    2.6540 c         1 L47      0.689100
     14 C21         6.4890   -0.8930    4.1120 c3        1 L47     -0.157100
     15 O25         7.7870   -0.8230    2.0780 o         1 L47     -0.583100
     16 C26         5.9730    2.7400    0.4410 ca        1 L47     -0.145000
     17 C27         6.6560    3.9120    0.1120 ca        1 L47     -0.103000
     18 C28         7.8910    3.8590   -0.5270 ca        1 L47     -0.148000
     19 C29         8.4430    2.6040   -0.8290 ca        1 L47      0.120100
     20 C30         7.7670    1.4200   -0.5060 ca        1 L47     -0.186000
     21 Cl35        2.1650    1.9140    3.2790 cl        1 L47     -0.074400
     22 O36         9.6680    2.6070   -1.4580 oh        1 L47     -0.499100
     23 H1         -0.5240   -1.4320   -0.3020 ha        1 L47      0.139000
     24 H2          1.9670   -1.4000   -0.2900 ha        1 L47      0.139000
     25 H5         -0.5850    1.4970    2.8750 ha        1 L47      0.150000
     26 H6         -1.8000    0.0160    1.2840 ha        1 L47      0.140000
     27 H14         6.3470   -0.6520   -0.0050 h1        1 L47      0.080700
     28 H151        4.1030   -0.5780   -0.7610 hc        1 L47      0.078700
     29 H152        4.0530    1.2250   -0.5250 hc        1 L47      0.078700
     30 H211        5.7120   -1.6860    4.2360 hc        1 L47      0.074033
     31 H212        7.4520   -1.2460    4.5560 hc        1 L47      0.074033
     32 H213        6.1500    0.0280    4.6470 hc        1 L47      0.074033
     33 H26         5.0040    2.7980    0.9590 ha        1 L47      0.141000
     34 H27         6.2170    4.8880    0.3650 ha        1 L47      0.136000
     35 H28         8.4400    4.7730   -0.7920 ha        1 L47      0.150000
     36 H30         8.2230    0.4430   -0.7230 ha        1 L47      0.144000
     37 H36         9.9680    1.6890   -1.5300 ho        1 L47      0.421000
@<TRIPOS>BOND
     1    1    2 ar  
     2    1    6 ar  
     3    1   23 1   
     4    2    3 ar  
     5    2   24 1   
     6    3    4 ar  
     7    3    7 1   
     8    4    5 ar  
     9    4   21 1   
    10    5    6 ar  
    11    5   25 1   
    12    6   26 1   
    13    7    8 2   
    14    7   11 1   
    15    8    9 1   
    16    9   10 1   
    17    9   13 1   
    18   10   11 1   
    19   10   12 1   
    20   10   27 1   
    21   11   28 1   
    22   11   29 1   
    23   12   16 ar  
    24   12   20 ar  
    25   13   14 1   
    26   13   15 2   
    27   14   30 1   
    28   14   31 1   
    29   14   32 1   
    30   16   17 ar  
    31   16   33 1   
    32   17   18 ar  
    33   17   34 1   
    34   18   19 ar  
    35   18   35 1   
    36   19   20 ar  
    37   19   22 1   
    38   20   36 1   
    39   22   37 1   
@<TRIPOS>SUBSTRUCTURE
     1 L47         1 TEMP              0 ****  ****    0 ROOT
