@<TRIPOS>MOLECULE
L47
   37    39     1     0     0
SMALL
bcc


@<TRIPOS>ATOM
      1 C1          0.0110   -0.7810    0.4250 ca        1 L47     -0.131000
      2 C2          1.4030   -0.7590    0.4180 ca        1 L47     -0.105000
      3 C3          2.1090    0.0570    1.3150 ca        1 L47     -0.100900
      4 C4          1.3890    0.8550    2.2200 ca        1 L47      0.040400
      5 C5         -0.0110    0.8310    2.2230 ca        1 L47     -0.129000
      6 C6         -0.6960    0.0130    1.3290 ca        1 L47     -0.112000
      7 C11         3.5650    0.0520    1.2660 ce        1 L47      0.345900
      8 N12         4.3740   -0.1190    2.2990 n2        1 L47     -0.400300
      9 N13         5.6640   -0.0250    1.8980 n         1 L47     -0.251800
     10 C14         5.7890    0.2320    0.4260 c3        1 L47      0.118000
     11 C15         4.3060    0.2640   -0.0500 c3        1 L47     -0.152700
     12 C18         6.5110    1.5100    0.1160 ca        1 L47     -0.054300
     13 C20         6.7270   -0.6210    2.6180 c         1 L47      0.689100
     14 C21         6.5220   -0.9270    4.0740 c3        1 L47     -0.157100
     15 O25         7.8000   -0.8280    2.0290 o         1 L47     -0.583100
     16 C26         5.9630    2.7510    0.4530 ca        1 L47     -0.145000
     17 C27         6.6410    3.9280    0.1320 ca        1 L47     -0.103000
     18 C28         7.8690    3.8860   -0.5190 ca        1 L47     -0.148000
     19 C29         8.4210    2.6350   -0.8410 ca        1 L47      0.120100
     20 C30         7.7510    1.4460   -0.5260 ca        1 L47     -0.186000
     21 CL35        2.1830    1.8770    3.3180 cl        1 L47     -0.074400
     22 O36         9.6400    2.6490   -1.4820 oh        1 L47     -0.499100
     23 H1         -0.5300   -1.4280   -0.2810 ha        1 L47      0.139000
     24 H2          1.9600   -1.3890   -0.2920 ha        1 L47      0.139000
     25 H5         -0.5690    1.4590    2.9350 ha        1 L47      0.150000
     26 H6         -1.7960   -0.0040    1.3360 ha        1 L47      0.140000
     27 H14         6.3410   -0.6350   -0.0390 h1        1 L47      0.080700
     28 H151        4.0900   -0.5570   -0.7720 hc        1 L47      0.078700
     29 H152        4.0380    1.2430   -0.5130 hc        1 L47      0.078700
     30 H211        7.4900   -1.2830    4.5040 hc        1 L47      0.074033
     31 H212        6.1870   -0.0140    4.6230 hc        1 L47      0.074033
     32 H213        5.7480   -1.7240    4.1960 hc        1 L47      0.074033
     33 H26         4.9990    2.8000    0.9810 ha        1 L47      0.141000
     34 H27         6.2010    4.9000    0.4010 ha        1 L47      0.136000
     35 H28         8.4140    4.8040   -0.7780 ha        1 L47      0.150000
     36 H30         8.2070    0.4730   -0.7600 ha        1 L47      0.144000
     37 H36         9.9410    1.7330   -1.5680 ho        1 L47      0.421000
@<TRIPOS>BOND
     1    1    2 ar  
     2    1    6 ar  
     3    1   23 1   
     4    2    3 ar  
     5    2   24 1   
     6    3    4 ar  
     7    3    7 1   
     8    4    5 ar  
     9    4   21 1   
    10    5    6 ar  
    11    5   25 1   
    12    6   26 1   
    13    7    8 2   
    14    7   11 1   
    15    8    9 1   
    16    9   10 1   
    17    9   13 1   
    18   10   11 1   
    19   10   12 1   
    20   10   27 1   
    21   11   28 1   
    22   11   29 1   
    23   12   16 ar  
    24   12   20 ar  
    25   13   14 1   
    26   13   15 2   
    27   14   30 1   
    28   14   31 1   
    29   14   32 1   
    30   16   17 ar  
    31   16   33 1   
    32   17   18 ar  
    33   17   34 1   
    34   18   19 ar  
    35   18   35 1   
    36   19   20 ar  
    37   19   22 1   
    38   20   36 1   
    39   22   37 1   
@<TRIPOS>SUBSTRUCTURE
     1 L47         1 TEMP              0 ****  ****    0 ROOT
