@<TRIPOS>MOLECULE
L47
   37    39     1     0     0
SMALL
bcc


@<TRIPOS>ATOM
      1 C1         -4.2990   -2.2170    0.8440 ca        1 L47     -0.131000
      2 C2         -3.0360   -1.6760    1.0660 ca        1 L47     -0.105000
      3 C3         -2.4660   -0.7890    0.1400 ca        1 L47     -0.100900
      4 C4         -3.1880   -0.4570   -1.0180 ca        1 L47      0.040400
      5 C5         -4.4570   -1.0050   -1.2390 ca        1 L47     -0.129000
      6 C6         -5.0100   -1.8810   -0.3090 ca        1 L47     -0.112000
      7 C11        -1.1370   -0.2540    0.4120 ce        1 L47      0.345900
      8 N12        -0.7970    1.0240    0.3810 n2        1 L47     -0.400300
      9 N13         0.5240    1.1590    0.6440 n         1 L47     -0.251800
     10 C14         1.1940   -0.1580    0.8990 c3        1 L47      0.118000
     11 C15         0.0230   -1.1770    0.7650 c3        1 L47     -0.152700
     12 C18         2.3060   -0.4440   -0.0670 ca        1 L47     -0.054300
     13 C20         1.0770    2.3580    1.1520 c         1 L47      0.689100
     14 C21         0.3270    3.6420    0.9350 c3        1 L47     -0.157100
     15 O25         2.1810    2.3100    1.7200 o         1 L47     -0.583100
     16 C26         2.0490   -0.6490   -1.4260 ca        1 L47     -0.145000
     17 C27         3.0960   -0.9380   -2.3020 ca        1 L47     -0.103000
     18 C28         4.4060   -1.0200   -1.8430 ca        1 L47     -0.148000
     19 C29         4.6590   -0.7980   -0.4790 ca        1 L47      0.120100
     20 C30         3.6170   -0.5080    0.4120 ca        1 L47     -0.186000
     21 CL35       -2.5460    0.5960   -2.1860 cl        1 L47     -0.074400
     22 O36         5.9730   -0.8870   -0.0760 oh        1 L47     -0.499100
     23 H1         -4.7360   -2.9080    1.5790 ha        1 L47      0.139000
     24 H2         -2.4770   -1.9380    1.9770 ha        1 L47      0.139000
     25 H5         -5.0180   -0.7400   -2.1490 ha        1 L47      0.150000
     26 H6         -6.0090   -2.3070   -0.4850 ha        1 L47      0.140000
     27 H14         1.6010   -0.1510    1.9500 h1        1 L47      0.080700
     28 H151       -0.1650   -1.7130    1.7240 hc        1 L47      0.078700
     29 H152        0.2090   -1.9220   -0.0440 hc        1 L47      0.078700
     30 H211        0.1000    3.7840   -0.1500 hc        1 L47      0.074033
     31 H212       -0.6340    3.6270    1.5040 hc        1 L47      0.074033
     32 H213        0.9580    4.4900    1.2960 hc        1 L47      0.074033
     33 H26         1.0200   -0.5740   -1.8070 ha        1 L47      0.141000
     34 H27         2.8840   -1.0990   -3.3700 ha        1 L47      0.136000
     35 H28         5.2400   -1.2470   -2.5210 ha        1 L47      0.150000
     36 H30         3.8330   -0.3100    1.4730 ha        1 L47      0.144000
     37 H36         6.0160   -0.6320    0.8580 ho        1 L47      0.421000
@<TRIPOS>BOND
     1    1    2 ar  
     2    1    6 ar  
     3    1   23 1   
     4    2    3 ar  
     5    2   24 1   
     6    3    4 ar  
     7    3    7 1   
     8    4    5 ar  
     9    4   21 1   
    10    5    6 ar  
    11    5   25 1   
    12    6   26 1   
    13    7    8 2   
    14    7   11 1   
    15    8    9 1   
    16    9   10 1   
    17    9   13 1   
    18   10   11 1   
    19   10   12 1   
    20   10   27 1   
    21   11   28 1   
    22   11   29 1   
    23   12   16 ar  
    24   12   20 ar  
    25   13   14 1   
    26   13   15 2   
    27   14   30 1   
    28   14   31 1   
    29   14   32 1   
    30   16   17 ar  
    31   16   33 1   
    32   17   18 ar  
    33   17   34 1   
    34   18   19 ar  
    35   18   35 1   
    36   19   20 ar  
    37   19   22 1   
    38   20   36 1   
    39   22   37 1   
@<TRIPOS>SUBSTRUCTURE
     1 L47         1 TEMP              0 ****  ****    0 ROOT
