@<TRIPOS>MOLECULE
L47
   37    39     1     0     0
SMALL
bcc


@<TRIPOS>ATOM
      1 C1          0.0180   -0.7970    0.4000 ca        1 L47     -0.131000
      2 C2          1.4100   -0.7740    0.4080 ca        1 L47     -0.105000
      3 C3          2.1050    0.0610    1.2960 ca        1 L47     -0.100900
      4 C4          1.3750    0.8760    2.1760 ca        1 L47      0.040400
      5 C5         -0.0250    0.8520    2.1650 ca        1 L47     -0.129000
      6 C6         -0.6990    0.0160    1.2790 ca        1 L47     -0.112000
      7 C11         3.5620    0.0570    1.2630 ce        1 L47      0.345900
      8 N12         4.3590   -0.0950    2.3090 n2        1 L47     -0.400300
      9 N13         5.6540   -0.0070    1.9210 n         1 L47     -0.251800
     10 C14         5.7950    0.2210    0.4460 c3        1 L47      0.118000
     11 C15         4.3180    0.2430   -0.0480 c3        1 L47     -0.152700
     12 C18         6.5200    1.4930    0.1190 ca        1 L47     -0.054300
     13 C20         6.7080   -0.5880    2.6640 c         1 L47      0.689100
     14 C21         6.4880   -0.8660    4.1240 c3        1 L47     -0.157100
     15 O25         7.7890   -0.8060    2.0920 o         1 L47     -0.583100
     16 C26         5.9670    2.7400    0.4260 ca        1 L47     -0.145000
     17 C27         6.6470    3.9120    0.0900 ca        1 L47     -0.103000
     18 C28         7.8830    3.8590   -0.5470 ca        1 L47     -0.148000
     19 C29         8.4390    2.6030   -0.8390 ca        1 L47      0.120100
     20 C30         7.7660    1.4190   -0.5090 ca        1 L47     -0.186000
     21 CL35        2.1560    1.9210    3.2630 cl        1 L47     -0.074400
     22 O36         9.6650    2.6050   -1.4670 oh        1 L47     -0.499100
     23 H1         -0.5150   -1.4580   -0.2990 ha        1 L47      0.139000
     24 H2          1.9750   -1.4180   -0.2830 ha        1 L47      0.139000
     25 H5         -0.5910    1.4930    2.8570 ha        1 L47      0.150000
     26 H6         -1.7990   -0.0030    1.2740 ha        1 L47      0.140000
     27 H14         6.3530   -0.6540    0.0040 h1        1 L47      0.080700
     28 H151        4.0540    1.2120   -0.5330 hc        1 L47      0.078700
     29 H152        4.1100   -0.5930   -0.7550 hc        1 L47      0.078700
     30 H211        7.4510   -1.2120    4.5720 hc        1 L47      0.074033
     31 H212        6.1450    0.0580    4.6510 hc        1 L47      0.074033
     32 H213        5.7130   -1.6600    4.2520 hc        1 L47      0.074033
     33 H26         4.9970    2.7980    0.9430 ha        1 L47      0.141000
     34 H27         6.2040    4.8880    0.3360 ha        1 L47      0.136000
     35 H28         8.4300    4.7720   -0.8170 ha        1 L47      0.150000
     36 H30         8.2260    0.4420   -0.7190 ha        1 L47      0.144000
     37 H36         9.9680    1.6880   -1.5330 ho        1 L47      0.421000
@<TRIPOS>BOND
     1    1    2 ar  
     2    1    6 ar  
     3    1   23 1   
     4    2    3 ar  
     5    2   24 1   
     6    3    4 ar  
     7    3    7 1   
     8    4    5 ar  
     9    4   21 1   
    10    5    6 ar  
    11    5   25 1   
    12    6   26 1   
    13    7    8 2   
    14    7   11 1   
    15    8    9 1   
    16    9   10 1   
    17    9   13 1   
    18   10   11 1   
    19   10   12 1   
    20   10   27 1   
    21   11   28 1   
    22   11   29 1   
    23   12   16 ar  
    24   12   20 ar  
    25   13   14 1   
    26   13   15 2   
    27   14   30 1   
    28   14   31 1   
    29   14   32 1   
    30   16   17 ar  
    31   16   33 1   
    32   17   18 ar  
    33   17   34 1   
    34   18   19 ar  
    35   18   35 1   
    36   19   20 ar  
    37   19   22 1   
    38   20   36 1   
    39   22   37 1   
@<TRIPOS>SUBSTRUCTURE
     1 L47         1 TEMP              0 ****  ****    0 ROOT
