@<TRIPOS>MOLECULE
L47
   37    33     1     0     0
SMALL
bcc


@<TRIPOS>ATOM
      1 C1         -4.6160    0.4530    0.0330 c1        1 L47     -0.121500
      2 C2         -3.2310    0.4070    0.0290 c1        1 L47     -0.098000
      3 C3         -2.5780   -0.8150    0.0440 c1        1 L47     -0.019000
      4 C4         -3.3110   -1.9920    0.0630 c1        1 L47     -0.043000
      5 C5         -4.6960   -1.9460    0.0680 c1        1 L47     -0.127000
      6 C6         -5.3480   -0.7230    0.0530 c1        1 L47     -0.121500
      7 C11        -1.0700   -0.8640    0.1230 c2        1 L47     -0.093000
      8 N12        -0.4190   -0.4140    1.2640 n1        1 L47      0.008000
      9 N13         0.8220   -0.4380    1.1760 n2        1 L47     -0.277000
     10 C14         1.0840   -0.5540   -0.3240 c3        1 L47      0.030000
     11 C15        -0.3520   -0.7550   -0.9690 c3        1 L47     -0.158000
     12 C18         1.6710    0.5960   -0.8020 c2        1 L47     -0.044000
     13 C20         1.7240   -0.7980    2.2100 c2        1 L47      0.331000
     14 C21         1.3400   -0.5800    3.6570 c3        1 L47     -0.226000
     15 O25         2.8180   -1.2450    1.9330 o         1 L47     -0.343000
     16 C26         1.4670    1.9370   -0.5140 c2        1 L47     -0.146000
     17 C27         2.3390    2.8930   -1.0120 c1        1 L47     -0.103000
     18 C28         3.4130    2.5090   -1.7990 c1        1 L47     -0.149000
     19 C29         3.6170    1.1690   -2.0870 c1        1 L47      0.076000
     20 C30         2.7460    0.2120   -1.5890 c1        1 L47     -0.185000
     21 CL35       -2.4900   -3.5300    0.0670 cl        1 L47     -0.009000
     22 O36         4.6880    0.7820   -2.9150 oh        1 L47     -0.253000
     23 H1         -5.0750    1.3140    0.0230 ha        1 L47      0.140000
     24 H2         -2.7150    1.2350    0.0150 ha        1 L47      0.147000
     25 H5         -5.2110   -2.7740    0.0820 ha        1 L47      0.150000
     26 H6         -6.3240   -0.6910    0.0560 ha        1 L47      0.140000
     27 H14         1.6510   -1.3280   -0.5110 h1        1 L47      0.121000
     28 H151       -0.5480   -0.1190   -1.6860 hc        1 L47      0.122500
     29 H152       -0.4340   -1.6090   -1.4440 hc        1 L47      0.122500
     30 H211        0.8760    0.2790    3.7470 hc        1 L47      0.112667
     31 H212        0.7470   -1.3040    3.9510 hc        1 L47      0.112667
     32 H213        2.1480   -0.5750    4.2120 hc        1 L47      0.112667
     33 H26         0.7110    2.2070    0.0400 ha        1 L47      0.135000
     34 H27         2.1950    3.8370   -0.8100 ha        1 L47      0.135000
     35 H28         4.0270    3.1830   -2.1500 ha        1 L47      0.151000
     36 H30         2.8900   -0.7320   -1.7920 ha        1 L47      0.145000
     37 H36         5.4410    0.7730   -2.4420 ho        1 L47      0.220000
@<TRIPOS>BOND
     1    1    6 1   
     2    1   23 1   
     3    2    3 1   
     4    2   24 1   
     5    3    7 1   
     6    4    5 1   
     7    4   21 1   
     8    5   25 1   
     9    6   26 1   
    10    7    8 1   
    11    7   11 1   
    12    9   10 1   
    13    9   13 1   
    14   10   11 1   
    15   10   12 1   
    16   10   27 1   
    17   11   28 1   
    18   11   29 1   
    19   12   16 1   
    20   12   20 1   
    21   13   14 1   
    22   13   15 1   
    23   14   30 1   
    24   14   31 1   
    25   14   32 1   
    26   16   17 1   
    27   16   33 1   
    28   17   34 1   
    29   18   19 1   
    30   18   35 1   
    31   19   22 1   
    32   20   36 1   
    33   22   37 1   
@<TRIPOS>SUBSTRUCTURE
     1 L47         1 TEMP              0 ****  ****    0 ROOT
