@<TRIPOS>MOLECULE
L4C
   32    31     1     0     0
SMALL
bcc


@<TRIPOS>ATOM
      1 O17         2.5100    0.3720    1.2160 o         1 L4C     -0.881300
      2 C9          2.7620    0.9850    0.1450 c         1 L4C      0.916600
      3 O16         3.0760    2.2290    0.1550 o         1 L4C     -0.881300
      4 C10         2.6580    0.2720   -1.2000 c3        1 L4C     -0.185400
      5 C11         3.9660    0.3120   -1.9630 c3        1 L4C     -0.126700
      6 C8          3.8290    0.3550   -3.4580 ce        1 L4C      0.339300
      7 C12         4.5720   -0.8030   -4.1760 c         1 L4C      0.845300
      8 O19         5.8220   -0.6950   -4.2760 o         1 L4C     -0.820800
      9 O18         3.8850   -1.7820   -4.5670 o         1 L4C     -0.820800
     10 N1          3.2180    1.2480   -4.1840 n2        1 L4C     -0.481200
     11 O13         2.4950    2.1600   -3.5090 os        1 L4C     -0.240300
     12 C5          2.5350    3.5000   -4.0190 c3        1 L4C      0.146400
     13 C3          3.5070    4.3750   -3.2130 c3        1 L4C     -0.055500
     14 N2          3.4730    4.0470   -1.7580 ny        1 L4C     -0.641800
     15 C6          4.6850    4.4510   -1.0020 c         1 L4C      0.597100
     16 C7          4.4460    4.8380    0.4230 c3        1 L4C     -0.200100
     17 O15         5.7850    4.4220   -1.5500 o         1 L4C     -0.505100
     18 C4          3.1050    5.8810   -3.4530 c         1 L4C      0.916600
     19 O14         3.3120    6.3400   -4.6000 o         1 L4C     -0.814300
     20 OXT         2.6040    6.5050   -2.4750 o         1 L4C     -0.814300
     21 H101        1.8430    0.7740   -1.7820 hc        1 L4C      0.046200
     22 H102        2.3500   -0.7910   -1.0310 hc        1 L4C      0.046200
     23 H111        4.5860   -0.5830   -1.6870 hc        1 L4C      0.048200
     24 H112        4.5520    1.2220   -1.6500 hc        1 L4C      0.048200
     25 H5C1        1.4820    3.8670   -3.8840 h1        1 L4C      0.068700
     26 H5C2        2.8270    3.5600   -5.0970 h1        1 L4C      0.068700
     27 H3          4.5580    4.2130   -3.5810 hx        1 L4C      0.108700
     28 H2          3.3210    3.0100   -1.5880 hn        1 L4C      0.492300
     29 H7C1        3.7420    5.7050    0.4760 hc        1 L4C      0.096700
     30 H7C2        5.4180    5.1160    0.8940 hc        1 L4C      0.096700
     31 H7C3        3.9970    3.9600    0.9710 hc        1 L4C      0.096700
     32 H22         2.6680    4.5450   -1.3510 hn        1 L4C      0.492300
@<TRIPOS>BOND
     1    1    2 1   
     2    2    3 1   
     3    2    4 1   
     4    4    5 1   
     5    4   21 1   
     6    4   22 1   
     7    5    6 1   
     8    5   23 1   
     9    5   24 1   
    10    6    7 1   
    11    6   10 2   
    12    7    8 1   
    13    7    9 1   
    14   10   11 1   
    15   11   12 1   
    16   12   13 1   
    17   12   25 1   
    18   12   26 1   
    19   13   14 1   
    20   13   18 1   
    21   13   27 1   
    22   14   15 1   
    23   14   28 1   
    24   14   32 1   
    25   15   16 1   
    26   15   17 2   
    27   16   29 1   
    28   16   30 1   
    29   16   31 1   
    30   18   19 1   
    31   18   20 1   
@<TRIPOS>SUBSTRUCTURE
     1 L4C         1 TEMP              0 ****  ****    0 ROOT
