@<TRIPOS>MOLECULE
L4C
   31    30     1     0     0
SMALL
bcc


@<TRIPOS>ATOM
      1 O17         0.9510   -0.6370    6.8630 o         1 L4C     -0.884300
      2 C9          0.5150   -0.5500    5.6720 c         1 L4C      0.903600
      3 O16        -0.2850   -1.4170    5.1990 o         1 L4C     -0.884300
      4 C10         1.0130    0.5950    4.7860 c3        1 L4C     -0.169400
      5 C11        -0.1150    1.3990    4.1750 c3        1 L4C     -0.121700
      6 C8          0.3750    2.4530    3.2190 ce        1 L4C      0.332300
      7 C12         0.5310    3.8550    3.8460 c         1 L4C      0.844300
      8 O19         1.6880    4.2950    4.0900 o         1 L4C     -0.850300
      9 O18        -0.5290    4.4950    4.1040 o         1 L4C     -0.850300
     10 N1          0.6140    2.3300    1.9430 n2        1 L4C     -0.487200
     11 O13         0.3680    1.1300    1.4050 os        1 L4C     -0.221300
     12 C5          0.9750    0.9390    0.1030 c3        1 L4C      0.132400
     13 C3          0.3640   -0.3280   -0.5350 c3        1 L4C     -0.034300
     14 N2          0.3180   -1.4600    0.3650 n         1 L4C     -0.498900
     15 C6         -0.8580   -1.8910    0.9500 c         1 L4C      0.656100
     16 C7         -0.7490   -2.6550    2.2490 c3        1 L4C     -0.199100
     17 O15        -1.9780   -1.7330    0.4060 o         1 L4C     -0.678100
     18 C4          1.2210   -0.6290   -1.8130 c         1 L4C      0.915600
     19 O14         2.3810   -1.1130   -1.6860 o         1 L4C     -0.857800
     20 OXT         0.7030   -0.3450   -2.9320 o         1 L4C     -0.857800
     21 H101        1.6730    1.2670    5.3910 hc        1 L4C      0.031700
     22 H102        1.6330    0.1460    3.9670 hc        1 L4C      0.031700
     23 H111       -0.6970    1.9080    4.9880 hc        1 L4C      0.048200
     24 H112       -0.8120    0.6910    3.6500 hc        1 L4C      0.048200
     25 H5C1        0.7740    1.8110   -0.5680 h1        1 L4C      0.034700
     26 H5C2        2.0810    0.8110    0.2360 h1        1 L4C      0.034700
     27 H3         -0.6890   -0.1000   -0.8660 h1        1 L4C      0.075700
     28 H2          1.1440   -1.5630    0.9120 hn        1 L4C      0.295500
     29 H7C1       -0.5850   -1.9310    3.1000 hc        1 L4C      0.069033
     30 H7C2       -1.7000   -3.2070    2.4320 hc        1 L4C      0.069033
     31 H7C3        0.0970   -3.3810    2.2350 hc        1 L4C      0.069033
@<TRIPOS>BOND
     1    1    2 1   
     2    2    3 1   
     3    2    4 1   
     4    4    5 1   
     5    4   21 1   
     6    4   22 1   
     7    5    6 1   
     8    5   23 1   
     9    5   24 1   
    10    6    7 1   
    11    6   10 2   
    12    7    8 1   
    13    7    9 1   
    14   10   11 1   
    15   11   12 1   
    16   12   13 1   
    17   12   25 1   
    18   12   26 1   
    19   13   14 1   
    20   13   18 1   
    21   13   27 1   
    22   14   15 1   
    23   14   28 1   
    24   15   16 1   
    25   15   17 2   
    26   16   29 1   
    27   16   30 1   
    28   16   31 1   
    29   18   19 1   
    30   18   20 1   
@<TRIPOS>SUBSTRUCTURE
     1 L4C         1 TEMP              0 ****  ****    0 ROOT
