@<TRIPOS>MOLECULE
L4C
   32    31     1     0     0
SMALL
bcc


@<TRIPOS>ATOM
      1 O17         2.4230    0.5250    1.2870 o         1 L4C     -0.881300
      2 C9          2.7050    1.0870    0.1950 c         1 L4C      0.916600
      3 O16         2.9950    2.3360    0.1520 o         1 L4C     -0.881300
      4 C10         2.6680    0.3030   -1.1130 c3        1 L4C     -0.185400
      5 C11         4.0040    0.3310   -1.8260 c3        1 L4C     -0.126700
      6 C8          3.9250    0.2930   -3.3260 ce        1 L4C      0.339300
      7 C12         4.7180   -0.8850   -3.9530 c         1 L4C      0.845300
      8 O19         5.9690   -0.7570   -4.0100 o         1 L4C     -0.820800
      9 O18         4.0650   -1.8960   -4.3180 o         1 L4C     -0.820800
     10 N1          3.3270    1.1350   -4.1200 n2        1 L4C     -0.481200
     11 O13         2.5610    2.0660   -3.5220 os        1 L4C     -0.240300
     12 C5          2.5960    3.3770   -4.1010 c3        1 L4C      0.146400
     13 C3          3.5190    4.3140   -3.3050 c3        1 L4C     -0.055500
     14 N2          3.4330    4.0600   -1.8380 n4        1 L4C     -0.641800
     15 C6          4.6060    4.5280   -1.0570 c         1 L4C      0.597100
     16 C7          4.3040    4.9830    0.3360 c3        1 L4C     -0.200100
     17 O15         5.7280    4.4940   -1.5600 o         1 L4C     -0.505100
     18 C4          3.0990    5.7960   -3.6390 c         1 L4C      0.916600
     19 O14         3.3410    6.1990   -4.8000 o         1 L4C     -0.814300
     20 OXT         2.5480    6.4600   -2.7150 o         1 L4C     -0.814300
     21 H101        1.8680    0.7570   -1.7520 hc        1 L4C      0.046200
     22 H102        2.3730   -0.7560   -0.9010 hc        1 L4C      0.046200
     23 H111        4.6290   -0.5350   -1.4800 hc        1 L4C      0.048200
     24 H112        4.5600    1.2680   -1.5400 hc        1 L4C      0.048200
     25 H5C1        1.5320    3.7290   -4.0260 h1        1 L4C      0.068700
     26 H5C2        2.9300    3.3880   -5.1690 h1        1 L4C      0.068700
     27 H3          4.5870    4.1540   -3.6230 hx        1 L4C      0.108700
     28 H2          2.6040    4.5620   -1.4880 hn        1 L4C      0.492300
     29 H7C1        3.5830    5.8360    0.3150 hc        1 L4C      0.096700
     30 H7C2        5.2520    5.3050    0.8280 hc        1 L4C      0.096700
     31 H7C3        3.8510    4.1250    0.9110 hc        1 L4C      0.096700
     32 H22         3.2940    3.0310   -1.6190 hn        1 L4C      0.492300
@<TRIPOS>BOND
     1    1    2 1   
     2    2    3 1   
     3    2    4 1   
     4    4    5 1   
     5    4   21 1   
     6    4   22 1   
     7    5    6 1   
     8    5   23 1   
     9    5   24 1   
    10    6    7 1   
    11    6   10 2   
    12    7    8 1   
    13    7    9 1   
    14   10   11 1   
    15   11   12 1   
    16   12   13 1   
    17   12   25 1   
    18   12   26 1   
    19   13   14 1   
    20   13   18 1   
    21   13   27 1   
    22   14   15 1   
    23   14   28 1   
    24   14   32 1   
    25   15   16 1   
    26   15   17 2   
    27   16   29 1   
    28   16   30 1   
    29   16   31 1   
    30   18   19 1   
    31   18   20 1   
@<TRIPOS>SUBSTRUCTURE
     1 L4C         1 TEMP              0 ****  ****    0 ROOT
