@<TRIPOS>MOLECULE
L4C
   32    31     1     0     0
SMALL
bcc


@<TRIPOS>ATOM
      1 O17         1.9270    0.5890    1.1210 o         1 L4C     -0.876800
      2 C9          2.3470    1.1540    0.0750 c         1 L4C      0.911600
      3 O16         2.5790    2.4150    0.0530 o         1 L4C     -0.876800
      4 C10         2.5680    0.3450   -1.2000 c3        1 L4C     -0.188400
      5 C11         3.9830    0.4890   -1.7190 c3        1 L4C     -0.122700
      6 C8          4.1310    0.5450   -3.2130 ce        1 L4C      0.333300
      7 C12         5.1930   -0.4520   -3.7490 c         1 L4C      0.845300
      8 O19         6.3990   -0.1380   -3.5640 o         1 L4C     -0.821300
      9 O18         4.7840   -1.5150   -4.2800 o         1 L4C     -0.821300
     10 N1          3.5370    1.3410   -4.0560 n2        1 L4C     -0.480200
     11 O13         2.5610    2.1130   -3.5470 os        1 L4C     -0.236300
     12 C5          2.4590    3.4360   -4.0900 c3        1 L4C      0.148400
     13 C3          3.3360    4.4410   -3.3300 c3        1 L4C     -0.058500
     14 N2          3.3670    4.1670   -1.8640 n4        1 L4C     -0.649800
     15 C6          4.6620    4.4350   -1.1910 c         1 L4C      0.570100
     16 C7          4.7010    4.1050    0.2680 c3        1 L4C     -0.184100
     17 O15         5.6120    4.8860   -1.8290 o         1 L4C     -0.499100
     18 C4          2.7690    5.8840   -3.6190 c         1 L4C      0.920600
     19 O14         2.8400    6.2870   -4.8030 o         1 L4C     -0.812800
     20 OXT         2.2840    6.5180   -2.6390 o         1 L4C     -0.812800
     21 H101        2.3500   -0.7340   -0.9920 hc        1 L4C      0.047700
     22 H102        1.8210    0.7010   -1.9540 hc        1 L4C      0.047700
     23 H111        4.4360    1.4360   -1.3080 hc        1 L4C      0.042200
     24 H112        4.6080   -0.3600   -1.3330 hc        1 L4C      0.042200
     25 H5C1        1.3720    3.6830   -3.9520 h1        1 L4C      0.069200
     26 H5C2        2.7320    3.4900   -5.1740 h1        1 L4C      0.069200
     27 H3          4.3890    4.3890   -3.7240 hx        1 L4C      0.108700
     28 H2          3.0820    3.1690   -1.6400 hn        1 L4C      0.498300
     29 H7C1        3.7990    4.4990    0.7990 hc        1 L4C      0.096033
     30 H7C2        4.6730    2.9850    0.3890 hc        1 L4C      0.096033
     31 H7C3        5.6330    4.5220    0.7150 hc        1 L4C      0.096033
     32 H22         2.6600    4.7870   -1.4250 hn        1 L4C      0.498300
@<TRIPOS>BOND
     1    1    2 1   
     2    2    3 1   
     3    2    4 1   
     4    4    5 1   
     5    4   21 1   
     6    4   22 1   
     7    5    6 1   
     8    5   23 1   
     9    5   24 1   
    10    6    7 1   
    11    6   10 2   
    12    7    8 1   
    13    7    9 1   
    14   10   11 1   
    15   11   12 1   
    16   12   13 1   
    17   12   25 1   
    18   12   26 1   
    19   13   14 1   
    20   13   18 1   
    21   13   27 1   
    22   14   15 1   
    23   14   28 1   
    24   14   32 1   
    25   15   16 1   
    26   15   17 2   
    27   16   29 1   
    28   16   30 1   
    29   16   31 1   
    30   18   19 1   
    31   18   20 1   
@<TRIPOS>SUBSTRUCTURE
     1 L4C         1 TEMP              0 ****  ****    0 ROOT
