@<TRIPOS>MOLECULE
L4G
   68    67     1     0     0
SMALL
bcc


@<TRIPOS>ATOM
      1 C5          0.0450    1.4580   -0.3660 c2        1 L4G      0.092000
      2 C6         -0.5740    2.0880   -2.5970 c1        1 L4G     -0.076000
      3 C7         -2.4590    0.8630   -3.5620 c2        1 L4G      0.115000
      4 C8         -3.1850   -1.4090   -2.6920 c3        1 L4G     -0.210000
      5 C10         1.3700    1.9690   -0.0720 c3        1 L4G     -0.191500
      6 C13        -3.5590    0.8080   -4.4930 c2        1 L4G     -0.234000
      7 C15        -0.4550   -3.4650   -0.2100 c3        1 L4G     -0.215000
      8 C17         1.8980    0.9800    0.9120 c1        1 L4G      0.017500
      9 C20        -0.0810   -4.8130   -0.5930 c1        1 L4G     -0.026000
     10 C21         0.3180   -4.0500   -2.9130 c2        1 L4G     -0.016000
     11 C22         1.1550    0.2420    1.7710 c2        1 L4G     -1.003000
     12 C24         0.3090   -5.0230   -1.9470 c2        1 L4G     -0.070000
     13 C1         -1.1900   -0.2200   -1.7940 c2        1 L4G      0.061000
     14 C2         -0.2430    0.9400   -1.7260 c3        1 L4G     -0.142000
     15 C3         -2.2420   -0.2570   -2.6630 c2        1 L4G     -0.160000
     16 C9         -0.5110   -2.4550   -1.3040 c2        1 L4G      0.079000
     17 C11        -0.8710    1.2180    0.7690 c3        1 L4G     -0.191500
     18 C12        -1.6040    1.9480   -3.5360 c2        1 L4G     -0.246000
     19 C14        -4.3290   -1.3570   -3.5780 c1        1 L4G      0.044000
     20 C16        -0.1220   -2.7300   -2.5820 c2        1 L4G     -0.280000
     21 C18        -0.2450    0.4610    1.8750 c1        1 L4G      0.017500
     22 C19        -4.3700   -0.2890   -4.5640 c2        1 L4G      0.047000
     23 O23        -5.3360   -0.4500   -5.5130 oh        1 L4G     -0.193000
     24 S25         1.7880   -0.9700    2.7360 s6        1 L4G      2.893000
     25 C27         0.9790   -0.7390    4.1990 c3        1 L4G     -0.937000
     26 O28         3.1630   -0.8090    2.9540 o         1 L4G     -0.951500
     27 O29         1.3990   -2.2030    2.1700 o         1 L4G     -0.951500
     28 C30         1.4350   -6.5210   -3.2940 c1        1 L4G     -0.052000
     29 C31         1.8300   -7.9190   -3.6330 c3        1 L4G     -0.117000
     30 N32         1.3080   -9.0430   -2.8770 n7        1 L4G     -0.208000
     31 C33         3.7190  -10.8730   -4.3520 c2        1 L4G     -0.279000
     32 C34         0.0300   -9.4120   -3.1310 c1        1 L4G     -0.102000
     33 C35         2.8500  -11.8880   -4.3070 c2        1 L4G     -0.220000
     34 C36        -1.1200   -9.7260   -3.2760 c1        1 L4G     -0.258000
     35 C37         1.5970  -12.0180   -4.9340 c1        1 L4G     -0.027000
     36 H6          0.7390    0.5540   -2.1840 hc        1 L4G      0.202000
     37 H8         -2.6250   -2.3650   -2.9550 hc        1 L4G      0.179000
     38 H10         2.0360    2.0810   -0.9670 hc        1 L4G      0.171000
     39 H13        -3.6970    1.6770   -5.1570 ha        1 L4G      0.155000
     40 H15         0.3210   -3.1430    0.5760 hc        1 L4G      0.220000
     41 H17         1.3740    2.9550    0.4800 hc        1 L4G      0.171000
     42 H20        -1.4280   -3.4910    0.3610 hc        1 L4G      0.220000
     43 H21         0.6580   -4.2600   -3.9420 ha        1 L4G      0.172000
     44 H11        -1.7930    0.6510    0.4550 hc        1 L4G      0.171000
     45 H12        -1.7500    2.7790   -4.2480 ha        1 L4G      0.162000
     46 H14        -3.5860   -1.5870   -1.6460 hc        1 L4G      0.179000
     47 H16        -0.1360   -1.9680   -3.3730 ha        1 L4G      0.142000
     48 H18        -1.2130    2.2010    1.2120 hc        1 L4G      0.171000
     49 H23        -5.3520    0.3380   -6.0800 ho        1 L4G      0.222000
     50 H271       -0.1010   -0.4670    4.0700 h1        1 L4G      0.160333
     51 H272        1.4390    0.0670    4.8210 h1        1 L4G      0.160333
     52 H273        0.9960   -1.6700    4.8190 h1        1 L4G      0.160333
     53 H301        5.4870   -0.7370    3.6670 ha        1 L4G      0.005667
     54 H302        5.5260   -0.8560    3.0020 ha        1 L4G      0.005667
     55 H311        1.6130   -8.0130   -4.7430 h1        1 L4G      0.119000
     56 H312        2.9570   -7.9210   -3.5070 h1        1 L4G      0.119000
     57 H331        3.4920   -9.9220   -4.8510 ha        1 L4G      0.116000
     58 H332        4.7250  -10.9490   -3.9250 ha        1 L4G      0.116000
     59 H341        1.9300   -9.8360   -2.8860 hn        1 L4G      0.201000
     60 H342        1.5180  -10.0260   -5.9750 ha        1 L4G      0.005667
     61 H351        3.1380  -12.8490   -3.8190 ha        1 L4G      0.174000
     62 H352        1.5370  -10.4810   -6.4840 ha        1 L4G      0.005667
     63 H361        1.4650  -11.8460   -1.4100 ha        1 L4G      0.005667
     64 H362        0.6810  -11.6730   -4.4380 ha        1 L4G      0.094000
     65 H371        1.6100  -11.9890   -2.0570 ha        1 L4G      0.005667
     66 H372       -2.1370   -9.9960   -3.3790 ha        1 L4G      0.231000
     67 O4         -0.9570   -1.2220   -0.8610 os        1 L4G     -0.165000
     68 O26         0.6510   -6.3640   -2.2440 os        1 L4G     -0.064000
@<TRIPOS>BOND
     1    1    5 1   
     2    1   14 1   
     3    1   17 1   
     4    2   14 1   
     5    2   18 1   
     6    3    6 1   
     7    3   15 1   
     8    3   18 1   
     9    4   15 1   
    10    4   19 1   
    11    4   37 1   
    12    4   46 1   
    13    5    8 1   
    14    5   38 1   
    15    5   41 1   
    16    6   22 1   
    17    6   39 1   
    18    7    9 1   
    19    7   16 1   
    20    7   40 1   
    21    7   42 1   
    22    8   11 1   
    23    9   12 1   
    24   10   12 1   
    25   10   20 1   
    26   10   43 1   
    27   11   21 1   
    28   11   24 1   
    29   12   68 1   
    30   13   14 1   
    31   13   15 1   
    32   13   67 1   
    33   14   36 1   
    34   16   20 1   
    35   16   67 1   
    36   17   21 1   
    37   17   44 1   
    38   17   48 1   
    39   18   45 1   
    40   19   22 1   
    41   20   47 1   
    42   22   23 1   
    43   23   49 1   
    44   24   25 1   
    45   24   26 1   
    46   24   27 1   
    47   25   50 1   
    48   25   51 1   
    49   25   52 1   
    50   28   29 1   
    51   28   68 1   
    52   29   30 1   
    53   29   55 1   
    54   29   56 1   
    55   30   32 1   
    56   30   59 1   
    57   31   33 1   
    58   31   57 1   
    59   31   58 1   
    60   32   34 1   
    61   33   35 1   
    62   33   61 1   
    63   34   66 1   
    64   35   64 1   
    65   53   54 1   
    66   60   62 1   
    67   63   65 1   
@<TRIPOS>SUBSTRUCTURE
     1 L4G         1 TEMP              0 ****  ****    0 ROOT
