@<TRIPOS>MOLECULE
L4G
   68    67     1     0     0
SMALL
bcc


@<TRIPOS>ATOM
      1 C5         -0.7310    1.0380   -0.2690 c2        1 L4G     -0.088000
      2 C6         -0.1410    1.7700   -2.4860 c1        1 L4G     -0.084000
      3 C7         -1.2370    0.5240   -4.2680 c2        1 L4G      0.095000
      4 C8         -1.9230   -1.9020   -3.9840 c3        1 L4G     -0.207000
      5 C10        -0.2260    2.1360    0.3350 c2        1 L4G     -0.156000
      6 C13        -1.8420    0.4930   -5.5780 c2        1 L4G     -0.217000
      7 C15        -0.2220   -4.0290   -0.8520 c3        1 L4G     -0.205000
      8 C17         0.7720    0.5150    1.6410 c1        1 L4G      0.389000
      9 C20         0.5130   -5.2340   -1.1850 c1        1 L4G     -0.075000
     10 C21         1.7570   -4.0130   -2.9330 c2        1 L4G     -0.001000
     11 C22        -0.0650   -0.4690    1.9880 c2        1 L4G     -1.134000
     12 C24         1.4900   -5.1500   -2.2090 c2        1 L4G     -0.073000
     13 C1         -0.7440   -0.6370   -2.1880 c2        1 L4G      0.055000
     14 C2         -0.1540    0.6030   -1.5900 c3        1 L4G     -0.098000
     15 C3         -1.2870   -0.6680   -3.4420 c2        1 L4G     -0.160000
     16 C9          0.0430   -2.8370   -1.7050 c2        1 L4G      0.085000
     17 C11        -1.8270    0.2570    0.3720 c3        1 L4G     -0.204000
     18 C12        -0.5820    1.6490   -3.8110 c2        1 L4G     -0.231000
     19 C14        -2.5970   -1.8430   -5.2660 c1        1 L4G      0.038000
     20 C16         0.9990   -2.8290   -2.6810 c2        1 L4G     -0.281000
     21 C18        -1.4090   -0.5620    1.5050 c1        1 L4G      0.014000
     22 C19        -2.4090   -0.6470   -6.0690 c2        1 L4G      0.034000
     23 O23        -2.9030   -0.7540   -7.3390 oh        1 L4G     -0.198000
     24 S25         0.2530   -1.8050    2.9940 s6        1 L4G      2.902000
     25 C27        -1.0470   -1.7930    4.0540 c3        1 L4G     -0.944000
     26 O28         1.4340   -1.5500    3.6980 o         1 L4G     -0.945000
     27 O29         0.2450   -2.9590    2.2000 o         1 L4G     -0.945000
     28 C30         2.9620   -6.3930   -3.5020 c1        1 L4G     -0.074000
     29 C31         3.7020   -7.6780   -3.6860 c3        1 L4G     -0.149000
     30 N32         3.5470   -8.8180   -2.8120 n3        1 L4G     -0.301000
     31 C33         2.4930   -9.7460   -3.1610 c3        1 L4G     -0.054000
     32 C34         0.1470   -9.1210    1.0340 c1        1 L4G     -0.240000
     33 C35         1.0810   -9.2820   -2.9850 c2        1 L4G     -0.205000
     34 C36         0.2660   -8.1040    0.4140 c1        1 L4G     -0.240000
     35 C37         0.0790   -9.6970   -3.7550 c2        1 L4G     -0.222000
     36 H6          0.9510    0.3650   -1.4110 hc        1 L4G      0.182000
     37 H8         -1.1450   -2.7260   -4.0820 hc        1 L4G      0.173500
     38 H10         0.5910    2.7180   -0.1180 ha        1 L4G      0.146000
     39 H13        -1.8070    1.4260   -6.1650 ha        1 L4G      0.152000
     40 H15         0.0510   -3.7890    0.2370 hc        1 L4G      0.215500
     41 H17        -0.6560    2.5500    1.2590 ha        1 L4G      0.146000
     42 H20        -1.3270   -4.2560   -0.8200 hc        1 L4G      0.215500
     43 H21         2.5340   -4.0020   -3.7200 ha        1 L4G      0.181000
     44 H11        -2.3330   -0.4410   -0.3600 hc        1 L4G      0.161000
     45 H12        -0.4540    2.5220   -4.4730 ha        1 L4G      0.158000
     46 H14        -2.6760   -2.2940   -3.2330 hc        1 L4G      0.173500
     47 H16         1.2030   -1.9350   -3.2870 ha        1 L4G      0.148000
     48 H18        -2.6390    0.9500    0.7460 hc        1 L4G      0.161000
     49 H23        -2.8020    0.1030   -7.7850 ho        1 L4G      0.218000
     50 H271       -1.1340   -2.7680    4.6000 h1        1 L4G      0.169000
     51 H272       -2.0340   -1.6370    3.5420 h1        1 L4G      0.169000
     52 H273       -0.9670   -1.0000    4.8380 h1        1 L4G      0.169000
     53 H301        4.8450   -5.1510   -2.4680 ha        1 L4G      0.002000
     54 H302        4.3610   -4.6820   -2.3910 ha        1 L4G      0.002000
     55 H311        3.4940   -7.9840   -4.7540 h1        1 L4G      0.131000
     56 H312        4.7940   -7.3730   -3.6350 h1        1 L4G      0.131000
     57 H331        2.6560  -10.0750   -4.2270 h1        1 L4G      0.095500
     58 H332        2.6390  -10.6530   -2.5010 h1        1 L4G      0.095500
     59 H341        3.4450   -8.5150   -1.8600 hn        1 L4G      0.165000
     60 H342        0.0420  -10.0230    1.5790 ha        1 L4G      0.235000
     61 H351        0.2170  -10.3910   -4.5940 ha        1 L4G      0.109000
     62 H352        0.9040   -8.5780   -2.1480 ha        1 L4G      0.144000
     63 H361       -0.8600   -6.9680   -2.0660 ha        1 L4G      0.002000
     64 H362       -0.9560   -9.3660   -3.5900 ha        1 L4G      0.109000
     65 H371       -1.2690   -7.2760   -2.5130 ha        1 L4G      0.002000
     66 H372        0.3720   -7.1850   -0.1330 ha        1 L4G      0.235000
     67 O4         -0.7440   -1.7550   -1.3590 os        1 L4G     -0.168000
     68 O26         2.1920   -6.3570   -2.4220 os        1 L4G     -0.109000
@<TRIPOS>BOND
     1    1    5 1   
     2    1   14 1   
     3    1   17 1   
     4    2   14 1   
     5    2   18 1   
     6    3    6 1   
     7    3   15 1   
     8    3   18 1   
     9    4   15 1   
    10    4   19 1   
    11    4   37 1   
    12    4   46 1   
    13    5   38 1   
    14    5   41 1   
    15    6   22 1   
    16    6   39 1   
    17    7    9 1   
    18    7   16 1   
    19    7   40 1   
    20    7   42 1   
    21    8   11 1   
    22    9   12 1   
    23   10   12 1   
    24   10   20 1   
    25   10   43 1   
    26   11   21 1   
    27   11   24 1   
    28   12   68 1   
    29   13   14 1   
    30   13   15 1   
    31   13   67 1   
    32   14   36 1   
    33   16   20 1   
    34   16   67 1   
    35   17   21 1   
    36   17   44 1   
    37   17   48 1   
    38   18   45 1   
    39   19   22 1   
    40   20   47 1   
    41   22   23 1   
    42   23   49 1   
    43   24   25 1   
    44   24   26 1   
    45   24   27 1   
    46   25   50 1   
    47   25   51 1   
    48   25   52 1   
    49   28   29 1   
    50   28   68 1   
    51   29   30 1   
    52   29   55 1   
    53   29   56 1   
    54   30   31 1   
    55   30   59 1   
    56   31   33 1   
    57   31   57 1   
    58   31   58 1   
    59   32   34 1   
    60   32   60 1   
    61   33   35 1   
    62   33   62 1   
    63   34   66 1   
    64   35   61 1   
    65   35   64 1   
    66   53   54 1   
    67   63   65 1   
@<TRIPOS>SUBSTRUCTURE
     1 L4G         1 TEMP              0 ****  ****    0 ROOT
