@<TRIPOS>MOLECULE
L4G
   68    66     1     0     0
SMALL
bcc


@<TRIPOS>ATOM
      1 C5         -0.7880   -0.2300    0.8500 c2        1 L4G     -0.026000
      2 C6         -1.0420    1.2760   -1.0600 c1        1 L4G     -0.074000
      3 C7         -2.6700    0.5280   -2.7000 c2        1 L4G      0.075000
      4 C8         -3.3080   -1.9160   -2.9220 c3        1 L4G     -0.205000
      5 C10        -1.4700    0.6450    1.6150 c2        1 L4G     -0.165000
      6 C13        -3.6880    0.8350   -3.6760 c2        1 L4G     -0.206000
      7 C15        -0.4950   -4.6800   -1.2640 c3        1 L4G     -0.183000
      8 C17         0.5460    1.2730    2.5230 c1        1 L4G      0.332000
      9 C20         0.2060   -5.6460   -2.0930 c1        1 L4G     -0.083000
     10 C21         0.5760   -3.9250   -3.8220 c2        1 L4G      0.025000
     11 C22         1.3970    0.2550    2.6720 c2        1 L4G     -1.085000
     12 C24         0.7000   -5.2090   -3.3420 c2        1 L4G     -0.086000
     13 C1         -1.5270   -1.1460   -1.3580 c2        1 L4G      0.052000
     14 C2         -0.7240   -0.0950   -0.6490 c3        1 L4G     -0.091000
     15 C3         -2.4750   -0.8530   -2.2950 c2        1 L4G     -0.151000
     16 C9         -0.6260   -3.3010   -1.8210 c2        1 L4G      0.088000
     17 C11        -0.0170   -1.3230    1.4310 c2        1 L4G     -0.177000
     18 C12        -1.8670    1.5160   -2.1680 c2        1 L4G     -0.217000
     19 C14        -4.3590   -1.5420   -3.8490 c1        1 L4G      0.034000
     20 C16        -0.1110   -2.9500   -3.0370 c2        1 L4G     -0.283000
     21 C18         0.9900   -1.0960    2.2890 c2        1 L4G     -0.040000
     22 C19        -4.4290   -0.1510   -4.2600 c2        1 L4G      0.027000
     23 O23        -5.3390    0.0830   -5.2540 oh        1 L4G     -0.199000
     24 S25         2.9790    0.3620    3.2440 s6        1 L4G      2.885000
     25 C27         2.7620    1.5340    4.4410 c3        1 L4G     -0.951000
     26 O28         3.8180    0.8690    2.2500 o         1 L4G     -0.928000
     27 O29         3.3570   -0.8480    3.8340 o         1 L4G     -0.928000
     28 C30         2.0670   -5.8380   -5.1120 c1        1 L4G     -0.034000
     29 C31         2.7440   -6.9360   -5.8610 c3        1 L4G     -0.132000
     30 N32         2.4030   -8.3180   -5.5620 n3        1 L4G     -0.209000
     31 C33         2.2930   -9.3830   -2.2810 c2        1 L4G     -0.294000
     32 C34         3.1640   -9.2540   -6.1760 c1        1 L4G     -0.096000
     33 C35         1.0620   -8.8720   -2.1760 c2        1 L4G     -0.229000
     34 C36         3.7610  -10.1170   -6.7610 c1        1 L4G     -0.258000
     35 C37        -0.1700   -9.5300   -2.0480 c1        1 L4G     -0.035000
     36 H6          0.3680   -0.2440   -0.9580 hc        1 L4G      0.186000
     37 H8         -2.6430   -2.6470   -3.4820 hc        1 L4G      0.170000
     38 H10        -1.9770    1.5230    1.1890 ha        1 L4G      0.145500
     39 H13        -3.8230    1.8970   -3.9380 ha        1 L4G      0.152000
     40 H15         0.0390   -4.6330   -0.2660 hc        1 L4G      0.187000
     41 H17        -1.6220    0.4880    2.6960 ha        1 L4G      0.145500
     42 H20        -1.5220   -5.1020   -1.0390 hc        1 L4G      0.187000
     43 H21         1.0040   -3.6330   -4.7980 ha        1 L4G      0.183000
     44 H11        -0.2890   -2.3430    1.1150 ha        1 L4G      0.158000
     45 H12        -1.9310    2.5500   -2.5470 ha        1 L4G      0.159000
     46 H14        -3.8030   -2.5290   -2.1060 hc        1 L4G      0.170000
     47 H16        -0.2010   -1.9270   -3.4310 ha        1 L4G      0.156000
     48 H18         1.5600   -1.9250    2.7490 ha        1 L4G      0.170000
     49 H23        -5.3730    1.0380   -5.4250 ho        1 L4G      0.217000
     50 H271        2.1600    1.1670    5.3090 h1        1 L4G      0.159667
     51 H272        2.2590    2.4640    4.0760 h1        1 L4G      0.159667
     52 H273        3.7450    1.8630    4.8650 h1        1 L4G      0.159667
     53 H301        4.1930   -6.6680   -2.8510 ha        1 L4G      0.006000
     54 H302        3.7210   -6.6780   -3.3390 ha        1 L4G      0.006000
     55 H311        3.8500   -6.7170   -5.7340 h1        1 L4G      0.127500
     56 H312        2.4930   -6.7520   -6.9500 h1        1 L4G      0.127500
     57 H331        2.4830  -10.4590   -2.3700 ha        1 L4G      0.109000
     58 H332        3.1860   -8.7480   -2.2470 ha        1 L4G      0.109000
     59 H341        0.3450  -11.6370   -1.5660 ha        1 L4G      0.006000
     60 H342        2.3110   -8.4940   -4.5710 hn        1 L4G      0.212000
     61 H351        0.5310  -11.7010   -2.2180 ha        1 L4G      0.006000
     62 H352        0.9160   -7.7580   -2.0660 ha        1 L4G      0.219000
     63 H361       -1.9200   -7.9290   -1.8340 ha        1 L4G      0.006000
     64 H362       -0.7680   -9.7750   -2.9350 ha        1 L4G      0.076000
     65 H371        4.2760  -10.8820   -7.2770 ha        1 L4G      0.230000
     66 H372       -1.4190   -7.4690   -1.8460 ha        1 L4G      0.006000
     67 O4         -1.2830   -2.4580   -0.9540 os        1 L4G     -0.160000
     68 O26         1.3310   -6.2330   -4.0830 os        1 L4G     -0.105000
@<TRIPOS>BOND
     1    1    5 1   
     2    1   14 1   
     3    1   17 1   
     4    2   14 1   
     5    2   18 1   
     6    3    6 1   
     7    3   15 1   
     8    3   18 1   
     9    4   15 1   
    10    4   19 1   
    11    4   37 1   
    12    4   46 1   
    13    5   38 1   
    14    5   41 1   
    15    6   22 1   
    16    6   39 1   
    17    7    9 1   
    18    7   16 1   
    19    7   40 1   
    20    7   42 1   
    21    8   11 1   
    22    9   12 1   
    23   10   12 1   
    24   10   20 1   
    25   10   43 1   
    26   11   21 1   
    27   11   24 1   
    28   12   68 1   
    29   13   14 1   
    30   13   15 1   
    31   13   67 1   
    32   14   36 1   
    33   16   20 1   
    34   16   67 1   
    35   17   21 1   
    36   17   44 1   
    37   18   45 1   
    38   19   22 1   
    39   20   47 1   
    40   21   48 1   
    41   22   23 1   
    42   23   49 1   
    43   24   25 1   
    44   24   26 1   
    45   24   27 1   
    46   25   50 1   
    47   25   51 1   
    48   25   52 1   
    49   28   29 1   
    50   28   68 1   
    51   29   30 1   
    52   29   55 1   
    53   29   56 1   
    54   30   32 1   
    55   30   60 1   
    56   31   33 1   
    57   31   57 1   
    58   31   58 1   
    59   32   34 1   
    60   33   35 1   
    61   33   62 1   
    62   34   65 1   
    63   35   64 1   
    64   53   54 1   
    65   59   61 1   
    66   63   66 1   
@<TRIPOS>SUBSTRUCTURE
     1 L4G         1 TEMP              0 ****  ****    0 ROOT
