@<TRIPOS>MOLECULE
L4G
   68    72     1     0     0
SMALL
bcc


@<TRIPOS>ATOM
      1 C5          3.5080   -0.6770    0.5430 cp        1 L4G      0.037000
      2 C6          3.0900   -3.0150    1.2530 ca        1 L4G     -0.101000
      3 C7          1.2680   -4.3430    0.3520 ca        1 L4G      0.012000
      4 C8         -0.2380   -3.4110   -1.3390 ca        1 L4G     -0.065000
      5 C10         3.9330   -0.2130    1.7990 ca        1 L4G     -0.141500
      6 C13         0.5480   -5.5610    0.2980 ca        1 L4G     -0.167000
      7 C15        -0.5340    0.2130   -2.1360 ca        1 L4G     -0.122500
      8 C17         4.7060    0.9370    1.8950 ca        1 L4G     -0.020500
      9 C20        -1.6650    0.9970   -1.9570 ca        1 L4G     -0.159500
     10 C21        -1.4750    0.7300    0.4640 ca        1 L4G     -0.159500
     11 C22         5.0850    1.6540    0.7520 ca        1 L4G     -0.391500
     12 C24        -2.1360    1.2540   -0.6530 ca        1 L4G      0.117100
     13 C1          1.6180   -2.0350   -0.3930 ca        1 L4G      0.141100
     14 C2          2.7140   -1.9010    0.4500 cp        1 L4G     -0.076000
     15 C3          0.8730   -3.2530   -0.4660 ca        1 L4G     -0.085000
     16 C9          0.1270   -0.3040   -1.0090 ca        1 L4G      0.063100
     17 C11         3.8700    0.0420   -0.6050 ca        1 L4G     -0.141500
     18 C12         2.3940   -4.1920    1.2110 ca        1 L4G     -0.130000
     19 C14        -0.9300   -4.5940   -1.3910 ca        1 L4G     -0.195000
     20 C16        -0.3340   -0.0510    0.2840 ca        1 L4G     -0.122500
     21 C18         4.6450    1.1920   -0.4950 ca        1 L4G     -0.020500
     22 C19        -0.5320   -5.6770   -0.5600 ca        1 L4G      0.134100
     23 O23        -1.1970   -6.8810   -0.5740 oh        1 L4G     -0.494100
     24 S25         6.0010    3.0460    0.8790 sy        1 L4G      1.398300
     25 C27         7.5560    2.3830    0.7500 c3        1 L4G     -0.355300
     26 O28         5.8570    3.6080    2.1570 o         1 L4G     -0.658800
     27 O29         5.7760    3.8830   -0.2240 o         1 L4G     -0.658800
     28 C30        -3.8110    2.2720    0.7060 c3        1 L4G      0.127400
     29 C31        -5.0720    3.1200    0.4800 c3        1 L4G      0.172800
     30 N32        -6.2690    2.3190    0.2880 n3        1 L4G     -0.737600
     31 C33        -7.2130    2.9260   -0.6400 c3        1 L4G      0.176300
     32 C34        -6.8800    1.9150    1.5460 c3        1 L4G      0.176300
     33 C35        -8.4610    2.0770   -0.8700 c3        1 L4G     -0.077900
     34 C36        -8.1180    1.0390    1.3610 c3        1 L4G     -0.077900
     35 C37        -9.1190    1.7020    0.4400 c3        1 L4G     -0.078400
     36 H6          3.9670   -2.9090    1.9110 ha        1 L4G      0.141000
     37 H8         -0.5300   -2.5590   -1.9760 ha        1 L4G      0.152000
     38 H10         3.6420   -0.7560    2.7110 ha        1 L4G      0.151500
     39 H13         0.8490   -6.4070    0.9320 ha        1 L4G      0.155000
     40 H15        -0.1440    0.0040   -3.1420 ha        1 L4G      0.149000
     41 H17         5.0180    1.3080    2.8880 ha        1 L4G      0.154500
     42 H20        -2.2020    1.4210   -2.8170 ha        1 L4G      0.147500
     43 H21        -1.8350    0.9280    1.4830 ha        1 L4G      0.147500
     44 H11         3.5230   -0.3010   -1.5940 ha        1 L4G      0.151500
     45 H12         2.6940   -5.0470    1.8370 ha        1 L4G      0.142000
     46 H14        -1.7900   -4.7170   -2.0660 ha        1 L4G      0.140000
     47 H16         0.1970   -0.4670    1.1530 ha        1 L4G      0.149000
     48 H18         4.9080    1.7620   -1.4040 ha        1 L4G      0.154500
     49 H23        -1.9200   -6.8160   -1.2140 ho        1 L4G      0.422000
     50 H271        7.7930    1.6630    1.5690 h1        1 L4G      0.112367
     51 H272        7.7210    1.8400   -0.2120 h1        1 L4G      0.112367
     52 H273        8.3380    3.1820    0.7970 h1        1 L4G      0.112367
     53 H301       -4.0300    1.2920    1.2010 h1        1 L4G      0.044700
     54 H302       -3.0720    2.8530    1.3180 h1        1 L4G      0.044700
     55 H311       -5.1690    3.8130    1.3680 h1        1 L4G      0.048700
     56 H312       -4.8960    3.7570   -0.4330 h1        1 L4G      0.048700
     57 H331       -7.5380    3.9500   -0.2860 h1        1 L4G      0.028450
     58 H332       -6.6810    3.0580   -1.6250 h1        1 L4G      0.028450
     59 H341       -6.1070    1.3360    2.1260 h1        1 L4G      0.028450
     60 H342       -7.1700    2.8130    2.1710 h1        1 L4G      0.028450
     61 H351       -9.1730    2.6630   -1.5060 hc        1 L4G      0.047700
     62 H352       -8.1850    1.1470   -1.4310 hc        1 L4G      0.047700
     63 H361       -8.5770    0.8600    2.3670 hc        1 L4G      0.047700
     64 H362       -7.8180    0.0450    0.9390 hc        1 L4G      0.047700
     65 H371       -9.5310    2.6230    0.9320 hc        1 L4G      0.040200
     66 H372       -9.9780    1.0090    0.2500 hc        1 L4G      0.040200
     67 O4          1.3090   -1.0010   -1.2770 os        1 L4G     -0.262200
     68 O26        -3.2630    2.0490   -0.5990 os        1 L4G     -0.322900
@<TRIPOS>BOND
     1    1    5 ar  
     2    1   14 1   
     3    1   17 ar  
     4    2   14 ar  
     5    2   18 ar  
     6    2   36 1   
     7    3    6 ar  
     8    3   15 ar  
     9    3   18 ar  
    10    4   15 ar  
    11    4   19 ar  
    12    4   37 1   
    13    5    8 ar  
    14    5   38 1   
    15    6   22 ar  
    16    6   39 1   
    17    7    9 ar  
    18    7   16 ar  
    19    7   40 1   
    20    8   11 ar  
    21    8   41 1   
    22    9   12 ar  
    23    9   42 1   
    24   10   12 ar  
    25   10   20 ar  
    26   10   43 1   
    27   11   21 ar  
    28   11   24 1   
    29   12   68 1   
    30   13   14 ar  
    31   13   15 ar  
    32   13   67 1   
    33   16   20 ar  
    34   16   67 1   
    35   17   21 ar  
    36   17   44 1   
    37   18   45 1   
    38   19   22 ar  
    39   19   46 1   
    40   20   47 1   
    41   21   48 1   
    42   22   23 1   
    43   23   49 1   
    44   24   25 1   
    45   24   26 2   
    46   24   27 2   
    47   25   50 1   
    48   25   51 1   
    49   25   52 1   
    50   28   29 1   
    51   28   53 1   
    52   28   54 1   
    53   28   68 1   
    54   29   30 1   
    55   29   55 1   
    56   29   56 1   
    57   30   31 1   
    58   30   32 1   
    59   31   33 1   
    60   31   57 1   
    61   31   58 1   
    62   32   34 1   
    63   32   59 1   
    64   32   60 1   
    65   33   35 1   
    66   33   61 1   
    67   33   62 1   
    68   34   35 1   
    69   34   63 1   
    70   34   64 1   
    71   35   65 1   
    72   35   66 1   
@<TRIPOS>SUBSTRUCTURE
     1 L4G         1 TEMP              0 ****  ****    0 ROOT
