@<TRIPOS>MOLECULE
L4V
   47    49     1     0     0
SMALL
bcc


@<TRIPOS>ATOM
      1 C1          0.6240   -0.5250   -0.8000 cv        1 L4V      0.303000
      2 C2          1.4490    0.5250   -0.0240 cy        1 L4V     -0.012000
      3 C3          2.5170    1.1380   -0.9850 c3        1 L4V      0.076000
      4 C4          3.7370    0.3340   -1.0910 c1        1 L4V     -0.280000
      5 C5          4.1200   -0.4870   -0.0940 c2        1 L4V     -0.098000
      6 C6          3.2880   -0.5740    1.0620 c2        1 L4V      0.090000
      7 C7          2.0690    0.0030    1.2270 c2        1 L4V     -0.207000
      8 C8          1.3870    0.1460    2.5330 c3        1 L4V     -0.179000
      9 C9          0.4810   -1.0100    2.9080 c2        1 L4V      0.213000
     10 C10        -0.8030   -0.5960    3.5640 c3        1 L4V     -0.202000
     11 C11        -1.7410   -1.7370    3.9010 c3        1 L4V     -0.157000
     12 C12        -2.7330   -2.0630    2.8000 c3        1 L4V     -0.141000
     13 C13        -2.1740   -2.9610    1.7620 c2        1 L4V     -0.152000
     14 C14        -2.4650   -2.9530    0.4590 c2        1 L4V     -0.196000
     15 C15        -3.3760   -2.0170   -0.2440 c3        1 L4V     -0.132000
     16 C16        -2.5920   -1.0550   -1.1220 c3        1 L4V     -0.175000
     17 O2          0.6550   -1.6200   -1.2920 o         1 L4V     -0.111000
     18 O3          1.8500    1.3050   -2.2320 oh        1 L4V     -0.375000
     19 O4          5.2610   -1.2770   -0.0960 oh        1 L4V     -0.320000
     20 Cl1         4.0190   -1.4640    2.5300 cl        1 L4V      0.256000
     21 C17        -1.8470   -0.0510   -0.2440 c3        1 L4V     -0.131000
     22 O5          0.8270   -2.1800    2.7340 o         1 L4V     -0.268000
     23 N          -0.5910    0.4520   -0.8360 nx        1 L4V     -0.113000
     24 H4          2.7830    2.1680   -0.5960 h1        1 L4V      0.131000
     25 H3          2.5040    1.1370   -2.9290 ho        1 L4V      0.266000
     26 HA          5.7030   -1.1200   -0.9470 ho        1 L4V      0.277000
     27 H81C        5.1170   -1.8610    1.8530 ha        1 L4V      0.314000
     28 H82C        2.1520    0.2340    3.3580 hc        1 L4V      0.119500
     29 H101        0.8100    1.1090    2.5640 hc        1 L4V      0.119500
     30 H102       -0.5230   -0.0590    4.5140 hc        1 L4V      0.106000
     31 H111       -1.3210    0.1530    2.9060 hc        1 L4V      0.106000
     32 H112       -1.1410   -2.6520    4.1570 hc        1 L4V      0.109500
     33 H121       -2.3210   -1.4500    4.8200 hc        1 L4V      0.109500
     34 H122       -3.1280   -1.1120    2.3530 hc        1 L4V      0.094000
     35 H13        -3.6140   -2.5910    3.2650 hc        1 L4V      0.094000
     36 H14        -1.4670   -3.7200    2.1500 ha        1 L4V      0.145000
     37 H151       -2.0030   -3.7100   -0.2020 ha        1 L4V      0.137000
     38 H152       -4.0170   -1.4420    0.4740 hc        1 L4V      0.107500
     39 H161       -4.0710   -2.6090   -0.9020 hc        1 L4V      0.107500
     40 H162       -3.2910   -0.5080   -1.8070 hc        1 L4V      0.112000
     41 H171       -1.8780   -1.6440   -1.7600 hc        1 L4V      0.112000
     42 H172       -1.5850   -0.5420    0.7420 hx        1 L4V      0.133500
     43 H181       -2.5120    0.8350   -0.0330 hx        1 L4V      0.133500
     44 H182        0.3200    2.4120   -0.4810 hx        1 L4V      0.157000
     45 H183       -0.2980    1.5530    1.0290 hx        1 L4V      0.157000
     46 C18         0.1790    1.4230    0.0290 cy        1 L4V     -0.095000
     47 HN1        -0.7500    0.8120   -1.7780 hn        1 L4V      0.259000
@<TRIPOS>BOND
     1    1    2 1   
     2    1   17 1   
     3    1   23 1   
     4    2    3 1   
     5    2    7 1   
     6    2   46 1   
     7    3    4 1   
     8    3   18 1   
     9    3   24 1   
    10    4    5 1   
    11    5    6 1   
    12    5   19 1   
    13    6    7 1   
    14    6   20 1   
    15    7    8 1   
    16    8    9 1   
    17    8   28 1   
    18    8   29 1   
    19    9   10 1   
    20    9   22 1   
    21   10   11 1   
    22   10   30 1   
    23   10   31 1   
    24   11   12 1   
    25   11   32 1   
    26   11   33 1   
    27   12   13 1   
    28   12   34 1   
    29   12   35 1   
    30   13   14 1   
    31   13   36 1   
    32   14   15 1   
    33   14   37 1   
    34   15   16 1   
    35   15   38 1   
    36   15   39 1   
    37   16   21 1   
    38   16   40 1   
    39   16   41 1   
    40   18   25 1   
    41   19   26 1   
    42   20   27 1   
    43   21   23 1   
    44   21   42 1   
    45   21   43 1   
    46   23   46 1   
    47   23   47 1   
    48   44   46 1   
    49   45   46 1   
@<TRIPOS>SUBSTRUCTURE
     1 L4V         1 TEMP              0 ****  ****    0 ROOT
