@<TRIPOS>MOLECULE
L4V
   47    49     1     0     0
SMALL
bcc


@<TRIPOS>ATOM
      1 C1          0.6110   -0.4940   -0.8020 cv        1 L4V      0.303000
      2 C2          1.4510    0.5320   -0.0110 cy        1 L4V     -0.012000
      3 C3          2.5150    1.1570   -0.9680 c3        1 L4V      0.076000
      4 C4          3.7280    0.3460   -1.1030 c1        1 L4V     -0.280000
      5 C5          4.1130   -0.5000   -0.1270 c2        1 L4V     -0.098000
      6 C6          3.2910   -0.6050    1.0330 c2        1 L4V      0.090000
      7 C7          2.0780   -0.0230    1.2230 c2        1 L4V     -0.207000
      8 C8          1.4090    0.0980    2.5380 c3        1 L4V     -0.179000
      9 C9          0.4970   -1.0590    2.8960 c2        1 L4V      0.213000
     10 C10        -0.7780   -0.6490    3.5730 c3        1 L4V     -0.202000
     11 C11        -1.7210   -1.7900    3.8930 c3        1 L4V     -0.157000
     12 C12        -2.7260   -2.0840    2.7940 c3        1 L4V     -0.141000
     13 C13        -2.1840   -2.9640    1.7320 c2        1 L4V     -0.152000
     14 C14        -2.4870   -2.9250    0.4320 c2        1 L4V     -0.196000
     15 C15        -3.3960   -1.9660   -0.2420 c3        1 L4V     -0.132000
     16 C16        -2.6120   -0.9910   -1.1060 c3        1 L4V     -0.175000
     17 O2          0.6280   -1.5780   -1.3180 o         1 L4V     -0.111000
     18 O3          1.8390    1.3570   -2.2050 oh        1 L4V     -0.375000
     19 O4          5.2470   -1.2980   -0.1580 oh        1 L4V     -0.320000
     20 CL1         4.0280   -1.5330    2.4760 cl        1 L4V      0.256000
     21 C17        -1.8520   -0.0120   -0.2130 c3        1 L4V     -0.131000
     22 O5          0.8330   -2.2280    2.6930 o         1 L4V     -0.268000
     23 N          -0.5960    0.4930   -0.8050 n4        1 L4V     -0.113000
     24 H4          2.7930    2.1770   -0.5590 h1        1 L4V      0.131000
     25 H3          2.4850    1.1990   -2.9120 ho        1 L4V      0.266000
     26 HA          5.6830   -1.1260   -1.0080 ho        1 L4V      0.277000
     27 H81C        5.1160   -1.9240    1.7800 ha        1 L4V      0.314000
     28 H82C        2.1820    0.1620    3.3570 hc        1 L4V      0.119500
     29 H101        0.8400    1.0650    2.5950 hc        1 L4V      0.119500
     30 H102       -0.4850   -0.1360    4.5320 hc        1 L4V      0.106000
     31 H111       -1.2950    0.1170    2.9350 hc        1 L4V      0.106000
     32 H112       -1.1270   -2.7150    4.1230 hc        1 L4V      0.109500
     33 H121       -2.2910   -1.5190    4.8230 hc        1 L4V      0.109500
     34 H122       -3.1170   -1.1210    2.3720 hc        1 L4V      0.094000
     35 H13        -3.6070   -2.6160    3.2560 hc        1 L4V      0.094000
     36 H14        -1.4800   -3.7360    2.0970 ha        1 L4V      0.145000
     37 H151       -2.0370   -3.6700   -0.2500 ha        1 L4V      0.137000
     38 H152       -4.0260   -1.4010    0.4950 hc        1 L4V      0.107500
     39 H161       -4.1020   -2.5380   -0.9060 hc        1 L4V      0.107500
     40 H162       -3.3140   -0.4240   -1.7720 hc        1 L4V      0.112000
     41 H171       -1.9100   -1.5710   -1.7630 hc        1 L4V      0.112000
     42 H172       -1.5850   -0.5270    0.7600 hx        1 L4V      0.133500
     43 H181       -2.5070    0.8740    0.0240 hx        1 L4V      0.133500
     44 H182        0.3340    2.4370   -0.4160 hx        1 L4V      0.157000
     45 H183       -0.2780    1.5510    1.0810 hx        1 L4V      0.157000
     46 C18         0.1890    1.4390    0.0730 cy        1 L4V     -0.095000
     47 HN1        -0.7610    0.8750   -1.7380 hn        1 L4V      0.259000
@<TRIPOS>BOND
     1    1    2 1   
     2    1   17 1   
     3    1   23 1   
     4    2    3 1   
     5    2    7 1   
     6    2   46 1   
     7    3    4 1   
     8    3   18 1   
     9    3   24 1   
    10    4    5 1   
    11    5    6 1   
    12    5   19 1   
    13    6    7 1   
    14    6   20 1   
    15    7    8 1   
    16    8    9 1   
    17    8   28 1   
    18    8   29 1   
    19    9   10 1   
    20    9   22 1   
    21   10   11 1   
    22   10   30 1   
    23   10   31 1   
    24   11   12 1   
    25   11   32 1   
    26   11   33 1   
    27   12   13 1   
    28   12   34 1   
    29   12   35 1   
    30   13   14 1   
    31   13   36 1   
    32   14   15 1   
    33   14   37 1   
    34   15   16 1   
    35   15   38 1   
    36   15   39 1   
    37   16   21 1   
    38   16   40 1   
    39   16   41 1   
    40   18   25 1   
    41   19   26 1   
    42   20   27 1   
    43   21   23 1   
    44   21   42 1   
    45   21   43 1   
    46   23   46 1   
    47   23   47 1   
    48   44   46 1   
    49   45   46 1   
@<TRIPOS>SUBSTRUCTURE
     1 L4V         1 TEMP              0 ****  ****    0 ROOT
