@<TRIPOS>MOLECULE
L51
   69    73     1     0     0
SMALL
bcc


@<TRIPOS>ATOM
      1 CBJ         0.1760   -0.4540    0.0840 ca        1 L51     -0.124300
      2 CAT         1.5690   -0.5800   -0.1190 ca        1 L51     -0.189000
      3 CBB         2.4500   -0.7010    0.9550 ca        1 L51      0.132600
      4 NAE         3.8180   -0.9190    0.7550 nv        1 L51     -0.815200
      5 CAN         1.9200   -0.6770    2.2860 ca        1 L51     -0.161000
      6 CAQ         0.5790   -0.5340    2.5030 ca        1 L51     -0.138300
      7 CBI        -0.3420   -0.4080    1.4130 ca        1 L51      0.379600
      8 NAU        -1.6850   -0.2420    1.6930 nb        1 L51     -0.672000
      9 CAH        -2.5100   -0.1340    0.6700 ca        1 L51      0.427200
     10 CAM        -2.1180   -0.1950   -0.6970 ca        1 L51     -0.308300
     11 CBF        -0.7730   -0.3540   -1.0120 ca        1 L51      0.190600
     12 NAY        -0.2980   -0.4170   -2.3270 nu        1 L51     -0.633000
     13 CBD        -1.0950   -0.1570   -3.4550 ca        1 L51      0.171600
     14 CAR        -1.9350    0.9770   -3.5060 ca        1 L51     -0.170000
     15 CAJ        -0.9880   -0.9920   -4.5910 ca        1 L51     -0.203000
     16 CAG        -1.7050   -0.6900   -5.7410 ca        1 L51     -0.079000
     17 CAI        -2.5380    0.4200   -5.8010 ca        1 L51     -0.205000
     18 CBC        -2.6620    1.2670   -4.6740 ca        1 L51      0.084600
     19 NAW        -3.5720    2.3440   -4.7420 ns        1 L51     -0.460100
     20 CAZ        -3.3610    3.5750   -4.0820 c         1 L51      0.760100
     21 OAF        -2.4930    3.7200   -3.1980 o         1 L51     -0.583100
     22 NAX        -4.1770    4.6670   -4.4960 ns        1 L51     -0.429100
     23 CBH        -4.3070    5.7770   -3.6540 cc        1 L51      0.013300
     24 CAS        -3.3610    6.3750   -2.8020 cd        1 L51     -0.269300
     25 CBG        -4.0580    7.4900   -2.1880 cd        1 L51      0.332600
     26 CBL        -3.4370    8.4150   -1.1870 c3        1 L51     -0.076300
     27 CAC        -2.2110    9.0670   -1.8200 c3        1 L51     -0.085100
     28 CAD        -4.4030    9.5040   -0.7400 c3        1 L51     -0.085100
     29 CAB        -3.0070    7.6000    0.0290 c3        1 L51     -0.085100
     30 NAV        -5.3360    7.5620   -2.6470 nc        1 L51     -0.492800
     31 NBK        -5.5210    6.5230   -3.4860 na        1 L51      0.121300
     32 CBE        -6.6590    6.4140   -4.3350 ca        1 L51      0.006800
     33 CAO        -7.9490    6.3820   -3.7680 ca        1 L51     -0.128000
     34 CAK        -9.0630    6.2450   -4.5900 ca        1 L51     -0.124000
     35 CBA        -8.9250    6.1380   -5.9790 ca        1 L51     -0.073300
     36 CAA       -10.1180    5.9710   -6.8390 c3        1 L51     -0.056800
     37 CAL        -7.6440    6.1890   -6.5390 ca        1 L51     -0.124000
     38 CAP        -6.5170    6.3360   -5.7350 ca        1 L51     -0.128000
     39 HAT         1.9780   -0.5670   -1.1400 ha        1 L51      0.131000
     40 HNAE        4.1590   -0.5970   -0.1250 hn        1 L51      0.388300
     41 HNAA        4.3910   -0.6360    1.5200 hn        1 L51      0.388300
     42 HAN         2.6070   -0.7790    3.1420 ha        1 L51      0.136000
     43 HAQ         0.1830   -0.5100    3.5330 ha        1 L51      0.152000
     44 HAH        -3.5800    0.0050    0.9160 h4        1 L51      0.021100
     45 HAM        -2.8940   -0.1220   -1.4720 ha        1 L51      0.154000
     46 HNAY        0.4340   -1.0800   -2.4760 hn        1 L51      0.429800
     47 HAR        -1.9970    1.6480   -2.6320 ha        1 L51      0.184000
     48 HAJ        -0.3360   -1.8780   -4.5760 ha        1 L51      0.135000
     49 HAG        -1.6130   -1.3430   -6.6230 ha        1 L51      0.135000
     50 HAI        -3.0950    0.6270   -6.7260 ha        1 L51      0.131000
     51 HNAW       -4.1230    2.3560   -5.5730 hn        1 L51      0.308500
     52 HNAX       -4.9840    4.4570   -5.0480 hn        1 L51      0.310500
     53 HAS        -2.3420    6.0470   -2.6200 ha        1 L51      0.192000
     54 HAC        -1.7060    9.7260   -1.0740 hc        1 L51      0.039367
     55 HACA       -2.5110    9.6840   -2.7000 hc        1 L51      0.039367
     56 HACB       -1.4880    8.2870   -2.1590 hc        1 L51      0.039367
     57 HAD        -5.3040    9.0550   -0.2580 hc        1 L51      0.039367
     58 HADA       -3.8990   10.1710   -0.0000 hc        1 L51      0.039367
     59 HADB       -4.7310   10.1200   -1.6110 hc        1 L51      0.039367
     60 HAB        -2.4970    8.2630    0.7680 hc        1 L51      0.039367
     61 HABA       -2.3020    6.7900   -0.2760 hc        1 L51      0.039367
     62 HABB       -3.8960    7.1350    0.5180 hc        1 L51      0.039367
     63 HAO        -8.0800    6.4760   -2.6780 ha        1 L51      0.152500
     64 HAK       -10.0670    6.2220   -4.1400 ha        1 L51      0.138500
     65 HAA       -10.9860    6.5440   -6.4300 hc        1 L51      0.047700
     66 HAAA       -9.9170    6.3270   -7.8800 hc        1 L51      0.047700
     67 HAAB      -10.4050    4.8900   -6.8870 hc        1 L51      0.047700
     68 HAL        -7.5230    6.1280   -7.6310 ha        1 L51      0.138500
     69 HAP        -5.5250    6.4190   -6.2050 ha        1 L51      0.152500
@<TRIPOS>BOND
     1    1    2 ar  
     2    1    7 ar  
     3    1   11 ar  
     4    2    3 ar  
     5    2   39 1   
     6    3    4 1   
     7    3    5 ar  
     8    4   40 1   
     9    4   41 1   
    10    5    6 ar  
    11    5   42 1   
    12    6    7 ar  
    13    6   43 1   
    14    7    8 ar  
    15    8    9 ar  
    16    9   10 ar  
    17    9   44 1   
    18   10   11 ar  
    19   10   45 1   
    20   11   12 1   
    21   12   13 1   
    22   12   46 1   
    23   13   14 ar  
    24   13   15 ar  
    25   14   18 ar  
    26   14   47 1   
    27   15   16 ar  
    28   15   48 1   
    29   16   17 ar  
    30   16   49 1   
    31   17   18 ar  
    32   17   50 1   
    33   18   19 1   
    34   19   20 1   
    35   19   51 1   
    36   20   21 2   
    37   20   22 1   
    38   22   23 1   
    39   22   52 1   
    40   23   24 2   
    41   23   31 1   
    42   24   25 1   
    43   24   53 1   
    44   25   26 1   
    45   25   30 2   
    46   26   27 1   
    47   26   28 1   
    48   26   29 1   
    49   27   54 1   
    50   27   55 1   
    51   27   56 1   
    52   28   57 1   
    53   28   58 1   
    54   28   59 1   
    55   29   60 1   
    56   29   61 1   
    57   29   62 1   
    58   30   31 1   
    59   31   32 1   
    60   32   33 ar  
    61   32   38 ar  
    62   33   34 ar  
    63   33   63 1   
    64   34   35 ar  
    65   34   64 1   
    66   35   36 1   
    67   35   37 ar  
    68   36   65 1   
    69   36   66 1   
    70   36   67 1   
    71   37   38 ar  
    72   37   68 1   
    73   38   69 1   
@<TRIPOS>SUBSTRUCTURE
     1 L51         1 TEMP              0 ****  ****    0 ROOT
