@<TRIPOS>MOLECULE
L51
   69    73     1     0     0
SMALL
bcc


@<TRIPOS>ATOM
      1 CBJ        -5.5290    0.0070    0.7190 ca        1 L51     -0.124300
      2 CAT        -6.4680   -0.0020   -0.3370 ca        1 L51     -0.189000
      3 CBB        -7.5660   -0.8600   -0.3240 ca        1 L51      0.132600
      4 NAE        -8.5460   -0.8060   -1.3220 nh        1 L51     -0.815200
      5 CAN        -7.7240   -1.7600    0.7800 ca        1 L51     -0.161000
      6 CAQ        -6.8150   -1.7820    1.8010 ca        1 L51     -0.138300
      7 CBI        -5.6810   -0.9070    1.8050 ca        1 L51      0.379600
      8 NAU        -4.7820   -0.9900    2.8520 nb        1 L51     -0.672000
      9 CAH        -3.7490   -0.1700    2.8320 ca        1 L51      0.427200
     10 CAM        -3.5070    0.8040    1.8220 ca        1 L51     -0.308300
     11 CBF        -4.3890    0.9070    0.7520 ca        1 L51      0.190600
     12 NAY        -4.2250    1.8300   -0.2880 nh        1 L51     -0.633000
     13 CBD        -3.0750    2.6220   -0.4510 ca        1 L51      0.171600
     14 CAR        -1.7850    2.0570   -0.3600 ca        1 L51     -0.170000
     15 CAJ        -3.2120    3.9840   -0.8010 ca        1 L51     -0.203000
     16 CAG        -2.0810    4.7510   -1.0520 ca        1 L51     -0.079000
     17 CAI        -0.8070    4.2070   -0.9600 ca        1 L51     -0.205000
     18 CBC        -0.6470    2.8450   -0.6080 ca        1 L51      0.085600
     19 NAW         0.6620    2.3420   -0.4530 n         1 L51     -0.460100
     20 CAZ         1.0200    1.0110   -0.7600 c         1 L51      0.761100
     21 OAF         0.1710    0.1170   -0.9490 o         1 L51     -0.583100
     22 NAX         2.4130    0.7360   -0.8710 n         1 L51     -0.429100
     23 CBH         2.8540   -0.5890   -0.7790 cc        1 L51      0.013300
     24 CAS         2.2440   -1.7740   -1.2290 cd        1 L51     -0.269300
     25 CBG         3.1650   -2.8350   -0.8630 cd        1 L51      0.332600
     26 CBL         2.9190   -4.2870   -1.1370 c3        1 L51     -0.076300
     27 CAC         2.7390   -4.4750   -2.6400 c3        1 L51     -0.085100
     28 CAD         4.0720   -5.1600   -0.6610 c3        1 L51     -0.085100
     29 CAB         1.6420   -4.7090   -0.4160 c3        1 L51     -0.085100
     30 NAV         4.2590   -2.3200   -0.2410 nc        1 L51     -0.492800
     31 NBK         4.0740   -0.9890   -0.1380 na        1 L51      0.121300
     32 CBE         5.1160   -0.0950    0.2420 ca        1 L51      0.006800
     33 CAO         5.7480   -0.2550    1.4920 ca        1 L51     -0.128000
     34 CAK         6.7440    0.6340    1.8820 ca        1 L51     -0.124000
     35 CBA         7.1350    1.6890    1.0490 ca        1 L51     -0.073300
     36 CAA         8.2040    2.6210    1.4720 c3        1 L51     -0.056800
     37 CAL         6.5170    1.8330   -0.1980 ca        1 L51     -0.124000
     38 CAP         5.5250    0.9500   -0.6110 ca        1 L51     -0.128000
     39 HAT        -6.3290    0.6680   -1.1990 ha        1 L51      0.131000
     40 HNAE       -8.2260   -0.4320   -2.1890 hn        1 L51      0.388300
     41 HNAA       -9.0630   -1.6510   -1.4310 hn        1 L51      0.388300
     42 HAN        -8.5920   -2.4380    0.8040 ha        1 L51      0.136000
     43 HAQ        -6.9430   -2.4830    2.6420 ha        1 L51      0.152000
     44 HAH        -3.0380   -0.2570    3.6750 h4        1 L51      0.021100
     45 HAM        -2.6290    1.4570    1.9190 ha        1 L51      0.154000
     46 HNAY       -5.0710    2.2500   -0.6120 hn        1 L51      0.429800
     47 HAR        -1.6750    0.9850   -0.1170 ha        1 L51      0.184000
     48 HAJ        -4.2070    4.4460   -0.8820 ha        1 L51      0.135000
     49 HAG        -2.1970    5.8110   -1.3270 ha        1 L51      0.135000
     50 HAI         0.0670    4.8440   -1.1610 ha        1 L51      0.131000
     51 HNAW        1.3740    3.0380   -0.5240 hn        1 L51      0.308500
     52 HNAX        3.0500    1.4200   -0.5160 hn        1 L51      0.310500
     53 HAS         1.2780   -1.8710   -1.7140 ha        1 L51      0.192000
     54 HAC         3.6720   -4.1900   -3.1810 hc        1 L51      0.039367
     55 HACA        2.5080   -5.5450   -2.8610 hc        1 L51      0.039367
     56 HACB        1.8990   -3.8410   -3.0130 hc        1 L51      0.039367
     57 HAD         4.2170   -5.0540    0.4400 hc        1 L51      0.039367
     58 HADA        3.8490   -6.2310   -0.8890 hc        1 L51      0.039367
     59 HADB        5.0190   -4.8750   -1.1770 hc        1 L51      0.039367
     60 HAB         0.7830   -4.0770   -0.7440 hc        1 L51      0.039367
     61 HABA        1.4140   -5.7770   -0.6470 hc        1 L51      0.039367
     62 HABB        1.7660   -4.5990    0.6880 hc        1 L51      0.039367
     63 HAO         5.4620   -1.0850    2.1570 ha        1 L51      0.152500
     64 HAK         7.2330    0.5030    2.8600 ha        1 L51      0.138500
     65 HAA         9.2060    2.1990    1.2050 hc        1 L51      0.048033
     66 HAAA        8.0970    3.6130    0.9670 hc        1 L51      0.048033
     67 HAAB        8.1780    2.7830    2.5780 hc        1 L51      0.048033
     68 HAL         6.8280    2.6490   -0.8690 ha        1 L51      0.138500
     69 HAP         5.0870    1.0600   -1.6150 ha        1 L51      0.152500
@<TRIPOS>BOND
     1    1    2 ar  
     2    1    7 ar  
     3    1   11 ar  
     4    2    3 ar  
     5    2   39 1   
     6    3    4 1   
     7    3    5 ar  
     8    4   40 1   
     9    4   41 1   
    10    5    6 ar  
    11    5   42 1   
    12    6    7 ar  
    13    6   43 1   
    14    7    8 ar  
    15    8    9 ar  
    16    9   10 ar  
    17    9   44 1   
    18   10   11 ar  
    19   10   45 1   
    20   11   12 1   
    21   12   13 1   
    22   12   46 1   
    23   13   14 ar  
    24   13   15 ar  
    25   14   18 ar  
    26   14   47 1   
    27   15   16 ar  
    28   15   48 1   
    29   16   17 ar  
    30   16   49 1   
    31   17   18 ar  
    32   17   50 1   
    33   18   19 1   
    34   19   20 1   
    35   19   51 1   
    36   20   21 2   
    37   20   22 1   
    38   22   23 1   
    39   22   52 1   
    40   23   24 2   
    41   23   31 1   
    42   24   25 1   
    43   24   53 1   
    44   25   26 1   
    45   25   30 2   
    46   26   27 1   
    47   26   28 1   
    48   26   29 1   
    49   27   54 1   
    50   27   55 1   
    51   27   56 1   
    52   28   57 1   
    53   28   58 1   
    54   28   59 1   
    55   29   60 1   
    56   29   61 1   
    57   29   62 1   
    58   30   31 1   
    59   31   32 1   
    60   32   33 ar  
    61   32   38 ar  
    62   33   34 ar  
    63   33   63 1   
    64   34   35 ar  
    65   34   64 1   
    66   35   36 1   
    67   35   37 ar  
    68   36   65 1   
    69   36   66 1   
    70   36   67 1   
    71   37   38 ar  
    72   37   68 1   
    73   38   69 1   
@<TRIPOS>SUBSTRUCTURE
     1 L51         1 TEMP              0 ****  ****    0 ROOT
