@<TRIPOS>MOLECULE
L51
   69    73     1     0     0
SMALL
bcc


@<TRIPOS>ATOM
      1 CBJ         0.1940   -0.4470    0.0760 ca        1 L51     -0.124300
      2 CAT         1.5870   -0.5700   -0.1290 ca        1 L51     -0.189000
      3 CBB         2.4700   -0.6900    0.9430 ca        1 L51      0.132600
      4 NAE         3.8380   -0.9050    0.7400 nh        1 L51     -0.815200
      5 CAN         1.9430   -0.6700    2.2750 ca        1 L51     -0.161000
      6 CAQ         0.6010   -0.5290    2.4950 ca        1 L51     -0.138300
      7 CBI        -0.3220   -0.4040    1.4070 ca        1 L51      0.379600
      8 NAU        -1.6650   -0.2420    1.6890 nb        1 L51     -0.672000
      9 CAH        -2.4920   -0.1340    0.6670 ca        1 L51      0.427200
     10 CAM        -2.1020   -0.1920   -0.7010 ca        1 L51     -0.308300
     11 CBF        -0.7580   -0.3470   -1.0180 ca        1 L51      0.190600
     12 NAY        -0.2840   -0.4070   -2.3340 nh        1 L51     -0.633000
     13 CBD        -1.0840   -0.1480   -3.4600 ca        1 L51      0.171600
     14 CAR        -1.9270    0.9830   -3.5090 ca        1 L51     -0.170000
     15 CAJ        -0.9760   -0.9810   -4.5970 ca        1 L51     -0.203000
     16 CAG        -1.6960   -0.6800   -5.7460 ca        1 L51     -0.079000
     17 CAI        -2.5320    0.4270   -5.8030 ca        1 L51     -0.205000
     18 CBC        -2.6570    1.2730   -4.6750 ca        1 L51      0.084600
     19 NAW        -3.5700    2.3470   -4.7400 n         1 L51     -0.460100
     20 CAZ        -3.3630    3.5770   -4.0780 c         1 L51      0.761100
     21 OAF        -2.4970    3.7230   -3.1930 o         1 L51     -0.583100
     22 NAX        -4.1810    4.6680   -4.4910 n         1 L51     -0.429100
     23 CBH        -4.3160    5.7760   -3.6470 cc        1 L51      0.013300
     24 CAS        -3.3760    6.3730   -2.7890 cd        1 L51     -0.269300
     25 CBG        -4.0780    7.4850   -2.1750 cd        1 L51      0.332600
     26 CBL        -3.4620    8.4080   -1.1680 c3        1 L51     -0.076300
     27 CAC        -2.2360    9.0650   -1.7950 c3        1 L51     -0.085100
     28 CAD        -4.4330    9.4930   -0.7220 c3        1 L51     -0.085100
     29 CAB        -3.0350    7.5900    0.0470 c3        1 L51     -0.085100
     30 NAV        -5.3530    7.5550   -2.6390 nc        1 L51     -0.492800
     31 NBK        -5.5330    6.5190   -3.4820 na        1 L51      0.121300
     32 CBE        -6.6670    6.4100   -4.3370 ca        1 L51      0.006800
     33 CAO        -7.9590    6.3720   -3.7760 ca        1 L51     -0.128000
     34 CAK        -9.0680    6.2350   -4.6040 ca        1 L51     -0.124000
     35 CBA        -8.9230    6.1370   -5.9930 ca        1 L51     -0.073300
     36 CAA       -10.1130    6.0010   -6.8630 c3        1 L51     -0.056800
     37 CAL        -7.6390    6.1920   -6.5460 ca        1 L51     -0.124000
     38 CAP        -6.5170    6.3390   -5.7360 ca        1 L51     -0.128000
     39 HAT         1.9940   -0.5550   -1.1510 ha        1 L51      0.131000
     40 HNAE        4.1760   -0.5810   -0.1390 hn        1 L51      0.388300
     41 HNAA        4.4120   -0.6220    1.5040 hn        1 L51      0.388300
     42 HAN         2.6300   -0.7710    3.1290 ha        1 L51      0.136000
     43 HAQ         0.2070   -0.5080    3.5250 ha        1 L51      0.152000
     44 HAH        -3.5620    0.0020    0.9150 h4        1 L51      0.021100
     45 HAM        -2.8790   -0.1200   -1.4740 ha        1 L51      0.154000
     46 HNAY        0.4490   -1.0680   -2.4850 hn        1 L51      0.429800
     47 HAR        -1.9900    1.6530   -2.6330 ha        1 L51      0.184000
     48 HAJ        -0.3220   -1.8660   -4.5850 ha        1 L51      0.135000
     49 HAG        -1.6040   -1.3320   -6.6290 ha        1 L51      0.135000
     50 HAI        -3.0910    0.6340   -6.7280 ha        1 L51      0.131000
     51 HNAW       -4.1220    2.3590   -5.5710 hn        1 L51      0.308500
     52 HNAX       -4.9860    4.4580   -5.0470 hn        1 L51      0.310500
     53 HAS        -2.3560    6.0470   -2.6040 ha        1 L51      0.192000
     54 HAC        -1.7350    9.7230   -1.0440 hc        1 L51      0.039367
     55 HACA       -2.5340    9.6840   -2.6730 hc        1 L51      0.039367
     56 HACB       -1.5090    8.2880   -2.1330 hc        1 L51      0.039367
     57 HAD        -4.7580   10.1110   -1.5920 hc        1 L51      0.039367
     58 HADA       -3.9330   10.1600    0.0220 hc        1 L51      0.039367
     59 HADB       -5.3350    9.0410   -0.2450 hc        1 L51      0.039367
     60 HAB        -2.3270    6.7830   -0.2580 hc        1 L51      0.039367
     61 HABA       -2.5300    8.2520    0.7900 hc        1 L51      0.039367
     62 HABB       -3.9250    7.1220    0.5310 hc        1 L51      0.039367
     63 HAO        -8.0950    6.4590   -2.6860 ha        1 L51      0.152500
     64 HAK       -10.0750    6.2040   -4.1590 ha        1 L51      0.138500
     65 HAA       -10.5290    7.0130   -7.0990 hc        1 L51      0.048033
     66 HAAA       -9.8520    5.4960   -7.8260 hc        1 L51      0.048033
     67 HAAB      -10.9120    5.4050   -6.3560 hc        1 L51      0.048033
     68 HAL        -7.5130    6.1330   -7.6380 ha        1 L51      0.138500
     69 HAP        -5.5220    6.4240   -6.2010 ha        1 L51      0.152500
@<TRIPOS>BOND
     1    1    2 ar  
     2    1    7 ar  
     3    1   11 ar  
     4    2    3 ar  
     5    2   39 1   
     6    3    4 1   
     7    3    5 ar  
     8    4   40 1   
     9    4   41 1   
    10    5    6 ar  
    11    5   42 1   
    12    6    7 ar  
    13    6   43 1   
    14    7    8 ar  
    15    8    9 ar  
    16    9   10 ar  
    17    9   44 1   
    18   10   11 ar  
    19   10   45 1   
    20   11   12 1   
    21   12   13 1   
    22   12   46 1   
    23   13   14 ar  
    24   13   15 ar  
    25   14   18 ar  
    26   14   47 1   
    27   15   16 ar  
    28   15   48 1   
    29   16   17 ar  
    30   16   49 1   
    31   17   18 ar  
    32   17   50 1   
    33   18   19 1   
    34   19   20 1   
    35   19   51 1   
    36   20   21 2   
    37   20   22 1   
    38   22   23 1   
    39   22   52 1   
    40   23   24 2   
    41   23   31 1   
    42   24   25 1   
    43   24   53 1   
    44   25   26 1   
    45   25   30 2   
    46   26   27 1   
    47   26   28 1   
    48   26   29 1   
    49   27   54 1   
    50   27   55 1   
    51   27   56 1   
    52   28   57 1   
    53   28   58 1   
    54   28   59 1   
    55   29   60 1   
    56   29   61 1   
    57   29   62 1   
    58   30   31 1   
    59   31   32 1   
    60   32   33 ar  
    61   32   38 ar  
    62   33   34 ar  
    63   33   63 1   
    64   34   35 ar  
    65   34   64 1   
    66   35   36 1   
    67   35   37 ar  
    68   36   65 1   
    69   36   66 1   
    70   36   67 1   
    71   37   38 ar  
    72   37   68 1   
    73   38   69 1   
@<TRIPOS>SUBSTRUCTURE
     1 L51         1 TEMP              0 ****  ****    0 ROOT
