@<TRIPOS>MOLECULE
L51
   73    77     1     0     0
SMALL
bcc


@<TRIPOS>ATOM
      1 CBJ         1.6040   -0.9770   -1.1390 ca        1 L51     -0.135300
      2 CAT         1.4380   -2.2500   -1.7420 ca        1 L51     -0.122000
      3 CBB         2.4040   -3.2350   -1.5640 ca        1 L51      0.016600
      4 NAE         2.2680   -4.5600   -2.1790 n4        1 L51     -0.718000
      5 CAN         3.5680   -3.0000   -0.7830 ca        1 L51     -0.107000
      6 CAQ         3.7540   -1.7730   -0.1960 ca        1 L51     -0.069300
      7 CBI         2.7880   -0.7290   -0.3610 ca        1 L51      0.435600
      8 NAU         3.0530    0.4860    0.2430 nb        1 L51     -0.547000
      9 CAH         2.1890    1.4660    0.1020 ca        1 L51      0.452200
     10 CAM         0.9660    1.3390   -0.6430 ca        1 L51     -0.160300
     11 CBF         0.6790    0.1300   -1.2460 ca        1 L51     -0.024400
     12 NAY        -0.5650   -0.0140   -2.0320 n4        1 L51     -0.512800
     13 CBD        -1.6840    0.8380   -1.5850 ca        1 L51     -0.021400
     14 CAR        -2.1710    1.8660   -2.4150 ca        1 L51     -0.064000
     15 CAJ        -2.2860    0.5770   -0.3370 ca        1 L51     -0.029000
     16 CAG        -3.3750    1.3450    0.0750 ca        1 L51     -0.062000
     17 CAI        -3.8770    2.3690   -0.7280 ca        1 L51     -0.044000
     18 CBC        -3.2710    2.6280   -1.9740 ca        1 L51     -0.040400
     19 NAW        -3.7780    3.7490   -2.7860 n4        1 L51     -0.516200
     20 CAZ        -4.7600    3.3140   -3.8510 c         1 L51      0.467100
     21 OAF        -4.5570    2.2950   -4.4870 o         1 L51     -0.316100
     22 NAX        -5.9690    4.1870   -4.1070 n4        1 L51     -0.416200
     23 CBH        -5.9950    5.3760   -3.3260 cc        1 L51     -0.322700
     24 CAS        -6.4680    5.5370   -1.9750 cd        1 L51     -0.230300
     25 CBG        -6.4280    6.9390   -1.7440 cd        1 L51      0.386600
     26 CBL        -6.8280    7.6730   -0.4960 c3        1 L51     -0.091300
     27 CAC        -5.6380    8.4650    0.0340 c3        1 L51     -0.099100
     28 CAD        -7.9730    8.6290   -0.8220 c3        1 L51     -0.099100
     29 CAB        -7.2900    6.6740    0.5560 c3        1 L51     -0.099100
     30 NAV        -5.9610    7.5850   -2.8920 nc        1 L51     -0.356800
     31 NBK        -5.7060    6.6920   -3.8120 na        1 L51      0.296300
     32 CBE        -5.3670    6.9690   -5.1790 ca        1 L51     -0.121200
     33 CAO        -5.9850    8.0380   -5.8550 ca        1 L51     -0.112000
     34 CAK        -5.6440    8.2940   -7.1830 ca        1 L51     -0.100500
     35 CBA        -4.6940    7.5140   -7.8520 ca        1 L51      0.019700
     36 CAA        -4.3360    7.8100   -9.2550 c3        1 L51     -0.094800
     37 CAL        -4.0700    6.4590   -7.1570 ca        1 L51     -0.100500
     38 CAP        -4.3900    6.1850   -5.8370 ca        1 L51     -0.112000
     39 HAT         0.5520   -2.4630   -2.3610 ha        1 L51      0.130000
     40 HNAE        3.0710   -4.7300   -2.8070 hn        1 L51      0.485800
     41 HNAA        2.2730   -5.2830   -1.4420 hn        1 L51      0.485800
     42 HAN         4.3330   -3.7900   -0.6400 ha        1 L51      0.206000
     43 HAQ         4.6640   -1.5750    0.4140 ha        1 L51      0.233000
     44 HAH         2.4400    2.4330    0.5950 h4        1 L51      0.100100
     45 HAM         0.3040    2.2170   -0.6990 ha        1 L51      0.171000
     46 HNAY       -0.3420    0.1980   -3.0170 hn        1 L51      0.474300
     47 HAR        -1.7030    2.0690   -3.3970 ha        1 L51      0.182000
     48 HAJ        -1.9130   -0.2260    0.3300 ha        1 L51      0.208000
     49 HAG        -3.8490    1.1400    1.0600 ha        1 L51      0.231000
     50 HAI        -4.7360    2.9610   -0.3570 ha        1 L51      0.197000
     51 HNAW       -4.2260    4.4490   -2.1520 hn        1 L51      0.510800
     52 HNAX       -6.8140    3.6170   -3.8920 hn        1 L51      0.531300
     53 HAS        -6.8400    4.7720   -1.2990 ha        1 L51      0.198000
     54 HAC        -4.7790    7.7880    0.2540 hc        1 L51      0.059811
     55 HACA       -5.9340    8.9820    0.9810 hc        1 L51      0.059811
     56 HACB       -5.3160    9.2430   -0.6990 hc        1 L51      0.059811
     57 HAD        -8.8400    8.0760   -1.2540 hc        1 L51      0.059811
     58 HADA       -8.3080    9.1340    0.1180 hc        1 L51      0.059811
     59 HADB       -7.6420    9.4160   -1.5420 hc        1 L51      0.059811
     60 HAB        -7.5720    7.2260    1.4880 hc        1 L51      0.059811
     61 HABA       -8.1860    6.1090    0.2040 hc        1 L51      0.059811
     62 HABB       -6.4740    5.9550    0.8070 hc        1 L51      0.059811
     63 HAO        -6.7320    8.6820   -5.3550 ha        1 L51      0.127500
     64 HAK        -6.1310    9.1370   -7.7110 ha        1 L51      0.182000
     65 HAA        -5.2580    7.9620   -9.8740 hc        1 L51      0.089367
     66 HAAA       -3.7350    8.7570   -9.3030 hc        1 L51      0.089367
     67 HAAB       -3.7320    6.9890   -9.7120 hc        1 L51      0.089367
     68 HAL        -3.3030    5.8570   -7.6740 ha        1 L51      0.182000
     69 HAP        -3.8260    5.4100   -5.2970 ha        1 L51      0.127500
     70 HAE3        1.4000   -4.6390   -2.7190 hn        1 L51      0.485800
     71 HAY2       -0.8820   -0.9950   -1.9690 hn        1 L51      0.474300
     72 HAW2       -2.9870    4.2160   -3.2670 hn        1 L51      0.510800
     73 HAX2       -5.9630    4.4190   -5.1330 hn        1 L51      0.531300
@<TRIPOS>BOND
     1    1    2 ar  
     2    1    7 ar  
     3    1   11 ar  
     4    2    3 ar  
     5    2   39 1   
     6    3    4 1   
     7    3    5 ar  
     8    4   40 1   
     9    4   41 1   
    10    4   70 1   
    11    5    6 ar  
    12    5   42 1   
    13    6    7 ar  
    14    6   43 1   
    15    7    8 ar  
    16    8    9 ar  
    17    9   10 ar  
    18    9   44 1   
    19   10   11 ar  
    20   10   45 1   
    21   11   12 1   
    22   12   13 1   
    23   12   46 1   
    24   12   71 1   
    25   13   14 ar  
    26   13   15 ar  
    27   14   18 ar  
    28   14   47 1   
    29   15   16 ar  
    30   15   48 1   
    31   16   17 ar  
    32   16   49 1   
    33   17   18 ar  
    34   17   50 1   
    35   18   19 1   
    36   19   20 1   
    37   19   51 1   
    38   19   72 1   
    39   20   21 2   
    40   20   22 1   
    41   22   23 1   
    42   22   52 1   
    43   22   73 1   
    44   23   24 2   
    45   23   31 1   
    46   24   25 1   
    47   24   53 1   
    48   25   26 1   
    49   25   30 2   
    50   26   27 1   
    51   26   28 1   
    52   26   29 1   
    53   27   54 1   
    54   27   55 1   
    55   27   56 1   
    56   28   57 1   
    57   28   58 1   
    58   28   59 1   
    59   29   60 1   
    60   29   61 1   
    61   29   62 1   
    62   30   31 1   
    63   31   32 1   
    64   32   33 ar  
    65   32   38 ar  
    66   33   34 ar  
    67   33   63 1   
    68   34   35 ar  
    69   34   64 1   
    70   35   36 1   
    71   35   37 ar  
    72   36   65 1   
    73   36   66 1   
    74   36   67 1   
    75   37   38 ar  
    76   37   68 1   
    77   38   69 1   
@<TRIPOS>SUBSTRUCTURE
     1 L51         1 TEMP              0 ****  ****    0 ROOT
