@<TRIPOS>MOLECULE
L51
   69    62     1     0     0
SMALL
bcc


@<TRIPOS>ATOM
      1 CBJ         4.2310   -5.4380   -2.0820 c1        1 L51     -0.067000
      2 CAT         5.0380   -5.1380   -0.9680 c1        1 L51     -0.199000
      3 CBB         6.1520   -5.9180   -0.6880 c1        1 L51      0.060000
      4 NAE         6.9560   -5.6650    0.4600 n2        1 L51     -0.328000
      5 CAN         6.4720   -6.9980   -1.5080 c2        1 L51     -0.162000
      6 CAQ         5.6770   -7.2950   -2.6070 c1        1 L51     -0.070000
      7 CBI         4.5470   -6.5060   -2.8930 c1        1 L51     -0.013000
      8 NAU         3.7420   -6.8160   -3.9740 n2        1 L51     -0.146000
      9 CAH         2.6320   -6.0650   -4.2390 c1        1 L51     -0.042000
     10 CAM         2.3090   -4.9830   -3.4200 c1        1 L51     -0.236000
     11 CBF         3.1040   -4.6750   -2.3510 c2        1 L51      0.116000
     12 NAY         2.5180   -4.0020   -1.2300 n3        1 L51     -0.282000
     13 CBD         2.4200   -2.5780   -1.2240 c2        1 L51      0.101000
     14 CAR         1.1720   -1.9710   -1.2170 c2        1 L51     -0.229000
     15 CAJ         3.5650   -1.8080   -1.0820 c1        1 L51     -0.194000
     16 CAG         3.4610   -0.4320   -0.9320 c1        1 L51     -0.117250
     17 CAI         2.2120    0.1740   -0.9250 c1        1 L51     -0.117250
     18 CBC         1.0690   -0.5940   -1.0680 c1        1 L51      0.097000
     19 NAW        -0.2120    0.0320   -1.1020 n         1 L51     -0.317000
     20 CAZ        -0.4450    1.2260   -0.3440 c2        1 L51      0.390000
     21 OAF         0.4520    1.7020    0.3280 o         1 L51     -0.348000
     22 NAX        -1.7700    1.7500   -0.2360 n         1 L51     -0.283000
     23 CBH        -2.0420    2.8260    0.6560 c2        1 L51      0.045000
     24 CAS        -1.1410    3.7580    1.0830 c1        1 L51     -0.204000
     25 CBG        -1.8170    4.6890    1.8220 c1        1 L51     -0.090000
     26 CBL        -1.2060    5.8960    2.5110 c2        1 L51      0.018000
     27 CAC        -0.6670    6.8540    1.4690 c3        1 L51     -0.203000
     28 CAD        -2.2660    6.5950    3.3400 c3        1 L51     -0.203000
     29 CAB        -0.0780    5.4450    3.4130 c3        1 L51     -0.203000
     30 NAV        -3.1160    4.3350    1.8500 n2        1 L51     -0.059000
     31 NBK        -3.2570    3.1770    1.1250 n3        1 L51     -0.117000
     32 CBE        -4.3850    2.4690    0.9890 c1        1 L51      0.052000
     33 CAO        -5.3020    2.8120    0.0100 c1        1 L51     -0.117250
     34 CAK        -6.4160    2.0190   -0.2030 c1        1 L51     -0.117250
     35 CBA        -6.6140    0.8820    0.5610 c1        1 L51     -0.066000
     36 CAA        -7.7920   -0.0250    0.2780 c3        1 L51     -0.182000
     37 CAL        -5.6970    0.5380    1.5400 c1        1 L51     -0.124000
     38 CAP        -4.5820    1.3310    1.7540 c1        1 L51     -0.153000
     39 HAT         4.7850   -4.4150   -0.3640 ha        1 L51      0.124000
     40 HNAE        6.6780   -5.0610    1.0900 hn        1 L51      0.186500
     41 HNAA        7.7550   -6.1010    0.5640 hn        1 L51      0.186500
     42 HAN         7.2530   -7.5440   -1.3100 ha        1 L51      0.137000
     43 HAQ         5.9010   -8.0530   -3.1820 ha        1 L51      0.153000
     44 HAH         2.0650   -6.2850   -5.0010 ha        1 L51      0.159000
     45 HAM         1.5200   -4.4490   -3.6090 ha        1 L51      0.155000
     46 HNAY        2.2270   -4.4830   -0.5100 hn        1 L51      0.229000
     47 HAR         0.3650   -2.5130   -1.3170 ha        1 L51      0.130000
     48 HAJ         4.4430   -2.2340   -1.0860 ha        1 L51      0.149000
     49 HAG         4.2670    0.1100   -0.8320 ha        1 L51      0.152250
     50 HAI         2.1390    1.1410   -0.8200 ha        1 L51      0.152250
     51 HNAW       -0.9060   -0.3800   -1.5190 hn        1 L51      0.223000
     52 HNAX       -2.4460    1.3810   -0.7230 hn        1 L51      0.224000
     53 HAS        -0.1920    3.7800    0.8630 DU        1 L51      0.191000
     54 HAC        -1.3640    7.0410    0.8050 hc        1 L51      0.078667
     55 HACA        0.1070    6.4510    1.0240 hc        1 L51      0.078667
     56 HACB       -0.3960    7.6910    1.9030 hc        1 L51      0.078667
     57 HAD        -2.5820    5.9900    4.0440 hc        1 L51      0.078667
     58 HADA       -3.0170    6.8480    2.7640 hc        1 L51      0.078667
     59 HADB       -1.8830    7.4000    3.7490 hc        1 L51      0.078667
     60 HAB         0.6700    5.1290    2.8660 hc        1 L51      0.078667
     61 HABA        0.2180    6.1980    3.9670 hc        1 L51      0.078667
     62 HABB       -0.3920    4.7180    3.9900 hc        1 L51      0.078667
     63 HAO        -5.1630    3.6130   -0.5290 ha        1 L51      0.152250
     64 HAK        -7.0620    2.2610   -0.8920 ha        1 L51      0.152250
     65 HAA        -8.2150   -0.2850    1.1220 hc        1 L51      0.087333
     66 HAAA       -7.4820   -0.8270   -0.1920 hc        1 L51      0.087333
     67 HAAB       -8.4430    0.4500   -0.2810 hc        1 L51      0.087333
     68 HAL        -5.8360   -0.2630    2.0780 ha        1 L51      0.137000
     69 HAP        -3.9360    1.0890    2.4430 ha        1 L51      0.147000
@<TRIPOS>BOND
     1    1    7 1   
     2    1   11 1   
     3    2    3 1   
     4    2   39 1   
     5    3    5 1   
     6    4   40 1   
     7    4   41 1   
     8    5    6 1   
     9    5   42 1   
    10    6   43 1   
    11    7    8 1   
    12    8    9 1   
    13    9   44 1   
    14   10   11 1   
    15   10   45 1   
    16   11   12 1   
    17   12   13 1   
    18   12   46 1   
    19   13   14 1   
    20   13   15 1   
    21   14   18 1   
    22   14   47 1   
    23   15   48 1   
    24   16   17 1   
    25   16   49 1   
    26   17   50 1   
    27   18   19 1   
    28   19   20 1   
    29   19   51 1   
    30   20   21 1   
    31   20   22 1   
    32   22   23 1   
    33   22   52 1   
    34   23   24 1   
    35   23   31 1   
    36   24   25 1   
    37   25   30 1   
    38   26   27 1   
    39   26   28 1   
    40   26   29 1   
    41   27   54 1   
    42   27   55 1   
    43   27   56 1   
    44   28   57 1   
    45   28   58 1   
    46   28   59 1   
    47   29   60 1   
    48   29   61 1   
    49   29   62 1   
    50   30   31 1   
    51   31   32 1   
    52   32   38 1   
    53   33   34 1   
    54   33   63 1   
    55   34   64 1   
    56   35   36 1   
    57   35   37 1   
    58   36   65 1   
    59   36   66 1   
    60   36   67 1   
    61   37   68 1   
    62   38   69 1   
@<TRIPOS>SUBSTRUCTURE
     1 L51         1 TEMP              0 ****  ****    0 ROOT
