@<TRIPOS>MOLECULE
L52
   43    44     1     0     0
SMALL
bcc


@<TRIPOS>ATOM
      1 O2         -5.9180   -2.0950   -0.9910 o         1 L52     -0.554100
      2 C19        -6.3950   -1.1540   -0.3400 c         1 L52      0.585100
      3 N2         -7.6260   -1.3020    0.3660 n         1 L52     -0.345400
      4 O3         -8.4370   -2.2470   -0.1150 oh        1 L52     -0.435100
      5 C18        -5.6550    0.1830   -0.1390 c3        1 L52      0.026700
      6 C20        -6.1340    1.1050   -1.2990 c3        1 L52      0.143800
      7 N3         -5.3830    2.3280   -1.3920 n3        1 L52     -0.926800
      8 N1         -4.2330   -0.0250   -0.0730 n         1 L52     -0.540900
      9 C1         -3.4150    0.8960    0.5660 c         1 L52      0.685700
     10 O1         -3.9030    1.8410    1.2200 o         1 L52     -0.613100
     11 C2         -1.9440    0.6840    0.4710 ca        1 L52     -0.132600
     12 C7         -1.1190    1.8150    0.4350 ca        1 L52     -0.090000
     13 C6          0.2630    1.6720    0.3530 ca        1 L52     -0.115500
     14 C5          0.8370    0.3900    0.3160 ca        1 L52      0.047000
     15 C4          0.0060   -0.7420    0.3660 ca        1 L52     -0.115500
     16 C3         -1.3770   -0.5940    0.4420 ca        1 L52     -0.090000
     17 C8          2.2320    0.2410    0.2330 cg        1 L52     -0.088000
     18 C9          3.4250    0.1140    0.1620 ch        1 L52     -0.020000
     19 C10         4.7640   -0.0300    0.0820 ch        1 L52     -0.049000
     20 C11         5.9570   -0.1570    0.0110 cg        1 L52     -0.062000
     21 C12         7.3520   -0.3060   -0.0720 ca        1 L52      0.013000
     22 C17         8.1850    0.8260   -0.0880 ca        1 L52     -0.101000
     23 C16         9.5670    0.6720   -0.1700 ca        1 L52     -0.134000
     24 C15        10.1300   -0.6030   -0.2370 ca        1 L52     -0.115000
     25 C14         9.3080   -1.7290   -0.2220 ca        1 L52     -0.134000
     26 C13         7.9250   -1.5880   -0.1390 ca        1 L52     -0.101000
     27 H12        -8.1560   -0.4380    0.4180 hn        1 L52      0.300500
     28 H13        -8.0450   -3.1000    0.1620 ho        1 L52      0.438000
     29 H1         -5.9650    0.6580    0.8430 h1        1 L52      0.101700
     30 H15        -6.0160    0.5590   -2.2790 h1        1 L52      0.034200
     31 H14        -7.2400    1.2700   -1.1340 h1        1 L52      0.034200
     32 H16        -5.8520    2.9860   -1.9800 hn        1 L52      0.368300
     33 H17        -5.2120    2.7320   -0.4900 hn        1 L52      0.368300
     34 H2         -3.8410   -0.6220   -0.7660 hn        1 L52      0.327500
     35 H6         -1.5750    2.8180    0.4800 ha        1 L52      0.152000
     36 H5          0.9080    2.5630    0.3220 ha        1 L52      0.147500
     37 H4          0.4510   -1.7480    0.3460 ha        1 L52      0.147500
     38 H3         -2.0100   -1.4930    0.4940 ha        1 L52      0.152000
     39 H11         7.7420    1.8310   -0.0350 ha        1 L52      0.141000
     40 H10        10.2150    1.5610   -0.1820 ha        1 L52      0.136000
     41 H9         11.2220   -0.7190   -0.3020 ha        1 L52      0.135000
     42 H8          9.7510   -2.7350   -0.2740 ha        1 L52      0.136000
     43 H7          7.2760   -2.4770   -0.1270 ha        1 L52      0.141000
@<TRIPOS>BOND
     1    1    2 2   
     2    2    3 1   
     3    2    5 1   
     4    3    4 1   
     5    3   27 1   
     6    4   28 1   
     7    5    6 1   
     8    5    8 1   
     9    5   29 1   
    10    6    7 1   
    11    6   30 1   
    12    6   31 1   
    13    7   32 1   
    14    7   33 1   
    15    8    9 1   
    16    8   34 1   
    17    9   10 2   
    18    9   11 1   
    19   11   12 ar  
    20   11   16 ar  
    21   12   13 ar  
    22   12   35 1   
    23   13   14 ar  
    24   13   36 1   
    25   14   15 ar  
    26   14   17 1   
    27   15   16 ar  
    28   15   37 1   
    29   16   38 1   
    30   17   18 3   
    31   18   19 1   
    32   19   20 3   
    33   20   21 1   
    34   21   22 ar  
    35   21   26 ar  
    36   22   23 ar  
    37   22   39 1   
    38   23   24 ar  
    39   23   40 1   
    40   24   25 ar  
    41   24   41 1   
    42   25   26 ar  
    43   25   42 1   
    44   26   43 1   
@<TRIPOS>SUBSTRUCTURE
     1 L52         1 TEMP              0 ****  ****    0 ROOT
