@<TRIPOS>MOLECULE
L52
   43    44     1     0     0
SMALL
bcc


@<TRIPOS>ATOM
      1 O2          0.4810   -1.3030   -0.1230 o         1 L52     -0.554100
      2 C19         1.3560   -0.4290   -0.0360 c         1 L52      0.585100
      3 N2          1.7660    0.3130   -1.1840 n         1 L52     -0.345400
      4 O3          1.5650   -0.3050   -2.3500 oh        1 L52     -0.435100
      5 C18         1.9710    0.0070    1.3070 c3        1 L52      0.026700
      6 C20         3.2330   -0.8850    1.5000 c3        1 L52      0.143800
      7 N3          3.8160   -0.7600    2.8080 n3        1 L52     -0.926800
      8 N1          0.9990   -0.0750    2.3650 n         1 L52     -0.540900
      9 C1          1.1410    0.6910    3.5140 c         1 L52      0.685700
     10 O1          2.0250    1.5690    3.5940 o         1 L52     -0.613100
     11 C2          0.1740    0.4470    4.6210 ca        1 L52     -0.132600
     12 C7          0.6310    0.6010    5.9360 ca        1 L52     -0.090000
     13 C6         -0.2340    0.3920    7.0050 ca        1 L52     -0.115500
     14 C5         -1.5730    0.0340    6.7700 ca        1 L52      0.047000
     15 C4         -2.0290   -0.1070    5.4480 ca        1 L52     -0.115500
     16 C3         -1.1580    0.0980    4.3810 ca        1 L52     -0.090000
     17 C8         -2.4490   -0.1790    7.8480 cg        1 L52     -0.088000
     18 C9         -3.1980   -0.3610    8.7690 ch        1 L52     -0.020000
     19 C10        -4.0400   -0.5660    9.8040 ch        1 L52     -0.049000
     20 C11        -4.7900   -0.7480   10.7260 cg        1 L52     -0.062000
     21 C12        -5.6660   -0.9610   11.8040 ca        1 L52      0.013000
     22 C17        -5.2190   -0.7870   13.1250 ca        1 L52     -0.101000
     23 C16        -6.0920   -0.9990   14.1890 ca        1 L52     -0.134000
     24 C15        -7.4110   -1.3840   13.9500 ca        1 L52     -0.115000
     25 C14        -7.8600   -1.5580   12.6410 ca        1 L52     -0.134000
     26 C13        -6.9960   -1.3480   11.5690 ca        1 L52     -0.101000
     27 H12         2.7410    0.5910   -1.1450 hn        1 L52      0.300500
     28 H13         0.6030   -0.2500   -2.5190 ho        1 L52      0.438000
     29 H1          2.3070    1.0890    1.2510 h1        1 L52      0.101700
     30 H15         2.9460   -1.9670    1.3570 h1        1 L52      0.034200
     31 H14         3.9440   -0.6090    0.6650 h1        1 L52      0.034200
     32 H16         4.7340   -1.1550    2.8240 hn        1 L52      0.368300
     33 H17         3.8450    0.1930    3.1160 hn        1 L52      0.368300
     34 H2          0.4560   -0.9090    2.4030 hn        1 L52      0.327500
     35 H6          1.6770    0.8970    6.1130 ha        1 L52      0.152000
     36 H5          0.1280    0.5100    8.0380 ha        1 L52      0.147500
     37 H4         -3.0780   -0.3790    5.2580 ha        1 L52      0.147500
     38 H3         -1.5380   -0.0040    3.3520 ha        1 L52      0.152000
     39 H11        -4.1780   -0.4830   13.3140 ha        1 L52      0.141000
     40 H10        -5.7370   -0.8620   15.2210 ha        1 L52      0.136000
     41 H9         -8.0970   -1.5510   14.7940 ha        1 L52      0.135000
     42 H8         -8.9010   -1.8610   12.4520 ha        1 L52      0.136000
     43 H7         -7.3510   -1.4860   10.5360 ha        1 L52      0.141000
@<TRIPOS>BOND
     1    1    2 2   
     2    2    3 1   
     3    2    5 1   
     4    3    4 1   
     5    3   27 1   
     6    4   28 1   
     7    5    6 1   
     8    5    8 1   
     9    5   29 1   
    10    6    7 1   
    11    6   30 1   
    12    6   31 1   
    13    7   32 1   
    14    7   33 1   
    15    8    9 1   
    16    8   34 1   
    17    9   10 2   
    18    9   11 1   
    19   11   12 ar  
    20   11   16 ar  
    21   12   13 ar  
    22   12   35 1   
    23   13   14 ar  
    24   13   36 1   
    25   14   15 ar  
    26   14   17 1   
    27   15   16 ar  
    28   15   37 1   
    29   16   38 1   
    30   17   18 3   
    31   18   19 1   
    32   19   20 3   
    33   20   21 1   
    34   21   22 ar  
    35   21   26 ar  
    36   22   23 ar  
    37   22   39 1   
    38   23   24 ar  
    39   23   40 1   
    40   24   25 ar  
    41   24   41 1   
    42   25   26 ar  
    43   25   42 1   
    44   26   43 1   
@<TRIPOS>SUBSTRUCTURE
     1 L52         1 TEMP              0 ****  ****    0 ROOT
