@<TRIPOS>MOLECULE
L53
   45    46     1     0     0
SMALL
bcc


@<TRIPOS>ATOM
      1 O01         5.6930   -2.3970    0.4870 o         1 L53     -0.508100
      2 C02         6.3330   -1.4360    0.0500 c         1 L53      0.548500
      3 N03         7.6300   -1.6290   -0.6590 ne        1 L53     -0.013100
      4 O04         8.5770   -1.9040   -0.0710 o         1 L53     -0.057300
      5 C05         5.7960    0.0070    0.0670 c3        1 L53     -0.000300
      6 N06         4.3660    0.0400    0.1990 n         1 L53     -0.560900
      7 C07         3.5700    0.7730   -0.6680 c         1 L53      0.677700
      8 O08         4.0810    1.5770   -1.4740 o         1 L53     -0.602100
      9 C09         2.0960    0.6020   -0.5500 ca        1 L53     -0.138600
     10 C10         1.5110   -0.6440   -0.3040 ca        1 L53     -0.091500
     11 C11         0.1260   -0.7600   -0.2180 ca        1 L53     -0.116500
     12 C12        -0.6900    0.3730   -0.3760 ca        1 L53      0.056000
     13 C13        -2.0870    0.2580   -0.2820 cg        1 L53     -0.106000
     14 C14        -3.2820    0.1600   -0.2010 ch        1 L53     -0.004000
     15 C15        -4.6240    0.0500   -0.1100 ch        1 L53     -0.073000
     16 C16        -5.8190   -0.0490   -0.0300 cg        1 L53     -0.039000
     17 C17        -7.2140   -0.1640    0.0650 ca        1 L53     -0.044000
     18 C18        -8.0370    0.9580   -0.1310 ca        1 L53     -0.056000
     19 C19        -9.4170    0.8500   -0.0430 ca        1 L53     -0.203500
     20 C20       -10.0240   -0.3950    0.2560 ca        1 L53      0.169600
     21 N21       -11.4020   -0.4900    0.4350 nh        1 L53     -0.828200
     22 C22        -9.1880   -1.5230    0.4460 ca        1 L53     -0.203500
     23 C23        -7.8100   -1.4030    0.3550 ca        1 L53     -0.056000
     24 C24        -0.0970    1.6220   -0.6330 ca        1 L53     -0.116500
     25 C25         1.2870    1.7320   -0.7240 ca        1 L53     -0.091500
     26 C26         6.5450    0.7580    1.2120 c3        1 L53      0.133100
     27 O27         7.9190    0.8280    0.8720 oh        1 L53     -0.600800
     28 C28         5.9600    2.1340    1.4550 c3        1 L53     -0.130100
     29 H05         6.0740    0.5130   -0.9100 h1        1 L53      0.113700
     30 HN06        3.9520   -0.6370    0.7970 hn        1 L53      0.328500
     31 H10         2.1310   -1.5480   -0.1940 ha        1 L53      0.150500
     32 H11        -0.3330   -1.7420   -0.0270 ha        1 L53      0.148500
     33 H18        -7.5810    1.9340   -0.3600 ha        1 L53      0.140000
     34 H19       -10.0390    1.7440   -0.1980 ha        1 L53      0.136000
     35 HN21      -11.9400    0.2270    0.0050 hn        1 L53      0.400800
     36 HN2A      -11.7830   -1.4040    0.3410 hn        1 L53      0.400800
     37 H22        -9.6300   -2.5040    0.6770 ha        1 L53      0.136000
     38 H23        -7.1750   -2.2880    0.5090 ha        1 L53      0.140000
     39 H24        -0.7310    2.5110   -0.7670 ha        1 L53      0.148500
     40 H25         1.7570    2.7040   -0.9440 ha        1 L53      0.150500
     41 H26         6.5230    0.1410    2.1550 h1        1 L53      0.083700
     42 HO27        8.0270    1.5360    0.2250 ho        1 L53      0.410000
     43 H28         5.0110    2.0550    2.0380 hc        1 L53      0.056033
     44 H28A        6.6860    2.7510    2.0380 hc        1 L53      0.056033
     45 H28B        5.7410    2.6470    0.4870 hc        1 L53      0.056033
@<TRIPOS>BOND
     1    1    2 2   
     2    2    3 1   
     3    2    5 1   
     4    3    4 2   
     5    5    6 1   
     6    5   26 1   
     7    5   29 1   
     8    6    7 1   
     9    6   30 1   
    10    7    8 2   
    11    7    9 1   
    12    9   10 ar  
    13    9   25 ar  
    14   10   11 ar  
    15   10   31 1   
    16   11   12 ar  
    17   11   32 1   
    18   12   13 1   
    19   12   24 ar  
    20   13   14 3   
    21   14   15 1   
    22   15   16 3   
    23   16   17 1   
    24   17   18 ar  
    25   17   23 ar  
    26   18   19 ar  
    27   18   33 1   
    28   19   20 ar  
    29   19   34 1   
    30   20   21 1   
    31   20   22 ar  
    32   21   35 1   
    33   21   36 1   
    34   22   23 ar  
    35   22   37 1   
    36   23   38 1   
    37   24   25 ar  
    38   24   39 1   
    39   25   40 1   
    40   26   27 1   
    41   26   28 1   
    42   26   41 1   
    43   27   42 1   
    44   28   43 1   
    45   28   44 1   
    46   28   45 1   
@<TRIPOS>SUBSTRUCTURE
     1 L53         1 TEMP              0 ****  ****    0 ROOT
