@<TRIPOS>MOLECULE
L53
   47    48     1     0     0
SMALL
bcc


@<TRIPOS>ATOM
      1 O01        -0.4770    0.4030    1.6230 o         1 L53     -0.492100
      2 C02         0.6410    0.7590    1.2390 c         1 L53      0.543500
      3 N03         0.8820    2.0040    0.4450 ne        1 L53      0.037900
      4 O04         0.6480    2.0340   -0.6710 o         1 L53      0.018700
      5 C05         1.9030    0.0210    1.7300 c3        1 L53     -0.019500
      6 N06         1.6050   -0.7870    2.9570 n4        1 L53     -0.673800
      7 C07         1.9230   -0.0520    4.2530 c         1 L53      0.576700
      8 O08         3.0030    0.5200    4.2790 o         1 L53     -0.418100
      9 C09         0.9020   -0.1010    5.3000 ca        1 L53     -0.192600
     10 C10        -0.0130   -1.1550    5.4440 ca        1 L53     -0.061500
     11 C11        -0.9400   -1.1360    6.4790 ca        1 L53     -0.102500
     12 C12        -0.9680   -0.0600    7.3890 ca        1 L53      0.099000
     13 C13        -1.9080   -0.0410    8.4330 cg        1 L53     -0.076000
     14 C14        -2.7070   -0.0170    9.3300 ch        1 L53      0.008000
     15 C15        -3.6030    0.0130   10.3420 ch        1 L53      0.032000
     16 C16        -4.3970    0.0440   11.2430 cg        1 L53     -0.100000
     17 C17        -5.3230    0.0830   12.2990 ca        1 L53      0.096000
     18 C18        -4.9230    0.5170   13.5760 ca        1 L53     -0.084500
     19 C19        -5.8340    0.5600   14.6260 ca        1 L53     -0.095000
     20 C20        -7.1640    0.1650   14.3990 ca        1 L53     -0.070400
     21 N21        -8.1300    0.2180   15.4960 n4        1 L53     -0.702000
     22 C22        -7.5790   -0.2730   13.1290 ca        1 L53     -0.095000
     23 C23        -6.6570   -0.3110   12.0880 ca        1 L53     -0.084500
     24 C24        -0.0440    0.9890    7.2480 ca        1 L53     -0.102500
     25 C25         0.8880    0.9680    6.2150 ca        1 L53     -0.061500
     26 C26         2.4360   -0.8520    0.5430 c3        1 L53      0.145100
     27 O27         2.7580    0.0450   -0.4940 oh        1 L53     -0.571800
     28 C28         3.6060   -1.7210    0.9510 c3        1 L53     -0.167100
     29 H05         2.7060    0.7760    1.9980 hx        1 L53      0.147700
     30 HN06        0.6030   -1.0370    2.9460 hn        1 L53      0.469800
     31 H10        -0.0050   -2.0260    4.7690 ha        1 L53      0.157000
     32 H11        -1.6550   -1.9670    6.5910 ha        1 L53      0.174500
     33 H18        -3.8780    0.8270   13.7500 ha        1 L53      0.180500
     34 H19        -5.4950    0.9030   15.6180 ha        1 L53      0.165000
     35 HN21       -7.6540    0.0580   16.3920 hn        1 L53      0.467467
     36 HN2A       -8.8510   -0.5010   15.3640 hn        1 L53      0.467467
     37 H22        -8.6190   -0.5890   12.9380 ha        1 L53      0.165000
     38 H23        -6.9790   -0.6540   11.0890 ha        1 L53      0.180500
     39 H24        -0.0520    1.8320    7.9600 ha        1 L53      0.174500
     40 H25         1.6200    1.7880    6.1150 ha        1 L53      0.157000
     41 H26         1.5880   -1.4750    0.1340 h1        1 L53      0.105700
     42 HO27        3.6990    0.2680   -0.4400 ho        1 L53      0.437000
     43 H28         3.2660   -2.6460    1.4760 hc        1 L53      0.075367
     44 H28A        4.1540   -2.0500    0.0290 hc        1 L53      0.075367
     45 H28B        4.3250   -1.1650    1.6000 hc        1 L53      0.075367
     46 H062        2.1650   -1.6490    2.9320 hn        1 L53      0.469800
     47 H213       -8.5780    1.1430   15.5150 hn        1 L53      0.467467
@<TRIPOS>BOND
     1    1    2 2   
     2    2    3 1   
     3    2    5 1   
     4    3    4 2   
     5    5    6 1   
     6    5   26 1   
     7    5   29 1   
     8    6    7 1   
     9    6   30 1   
    10    6   46 1   
    11    7    8 2   
    12    7    9 1   
    13    9   10 ar  
    14    9   25 ar  
    15   10   11 ar  
    16   10   31 1   
    17   11   12 ar  
    18   11   32 1   
    19   12   13 1   
    20   12   24 ar  
    21   13   14 3   
    22   14   15 1   
    23   15   16 3   
    24   16   17 1   
    25   17   18 ar  
    26   17   23 ar  
    27   18   19 ar  
    28   18   33 1   
    29   19   20 ar  
    30   19   34 1   
    31   20   21 1   
    32   20   22 ar  
    33   21   35 1   
    34   21   36 1   
    35   21   47 1   
    36   22   23 ar  
    37   22   37 1   
    38   23   38 1   
    39   24   25 ar  
    40   24   39 1   
    41   25   40 1   
    42   26   27 1   
    43   26   28 1   
    44   26   41 1   
    45   27   42 1   
    46   28   43 1   
    47   28   44 1   
    48   28   45 1   
@<TRIPOS>SUBSTRUCTURE
     1 L53         1 TEMP              0 ****  ****    0 ROOT
