@<TRIPOS>MOLECULE
L58
   41    37     1     0     0
SMALL
bcc


@<TRIPOS>ATOM
      1 O2          1.2770    2.5310    3.0510 o         1 L58     -0.335000
      2 C15         1.6670    1.4770    3.4770 c1        1 L58      0.231000
      3 N2          1.2660    1.0410    4.7690 n2        1 L58     -0.199000
      4 O3          0.1770    1.6310    5.3930 oh        1 L58     -0.236000
      5 C14         2.5320    0.5800    2.6060 c3        1 L58     -0.027000
      6 C16         3.8420    1.2410    2.3650 c3        1 L58      0.026000
      7 O4          4.0410    1.4150    0.9460 oh        1 L58     -0.324000
      8 C17         4.9510    0.3820    2.9280 c3        1 L58     -0.252000
      9 N1          1.8720    0.3470    1.3630 n         1 L58     -0.365000
     10 C1          0.8710   -0.6690    1.2690 c2        1 L58      0.353000
     11 O1          0.7920   -1.5230    2.1270 o         1 L58     -0.387000
     12 C2         -0.1060   -0.6750    0.0960 c2        1 L58     -0.120000
     13 C7         -1.1950    0.1840    0.1000 c2        1 L58     -0.097000
     14 C6         -2.1040    0.1550   -0.9430 c1        1 L58     -0.127000
     15 C5         -1.9260   -0.7420   -2.0070 c1        1 L58     -0.013000
     16 C4         -0.8410   -1.5990   -2.0130 c1        1 L58     -0.128000
     17 C3          0.0750   -1.5700   -0.9620 c1        1 L58     -0.076000
     18 C8         -2.8960   -0.7510   -3.1480 c2        1 L58     -0.035000
     19 C13        -2.6870    0.0620   -4.2300 c2        1 L58     -0.117000
     20 C12        -3.5740    0.0450   -5.2850 c1        1 L58     -0.104000
     21 C11        -4.6850   -0.8020   -5.2500 c1        1 L58     -0.162000
     22 BR         -5.8800   -0.8360   -6.6820 br        1 L58      0.058000
     23 C10        -4.8920   -1.6170   -4.1640 c1        1 L58     -0.104000
     24 C9         -4.0120   -1.6020   -3.1150 c1        1 L58     -0.115000
     25 H12         1.7680    0.4060    5.2180 hn        1 L58      0.248000
     26 H13         0.1240    1.3440    6.2330 ho        1 L58      0.229000
     27 H1          2.6760   -0.2670    3.0560 h1        1 L58      0.126000
     28 H2          3.8510    2.1190    2.8090 h1        1 L58      0.143000
     29 H17         4.5630    2.1400    0.7990 ho        1 L58      0.202000
     30 H15         5.8140    0.8690    2.8540 hc        1 L58      0.095000
     31 H14         4.7570    0.1760    3.9060 hc        1 L58      0.095000
     32 H16         5.0040   -0.4500    2.4270 hc        1 L58      0.095000
     33 H3          2.1340    0.7990    0.6150 hn        1 L58      0.248000
     34 H7         -1.3230    0.8120    0.8460 ha        1 L58      0.142000
     35 H6         -2.9130    0.7940   -0.9380 ha        1 L58      0.143000
     36 H5         -0.7130   -2.2400   -2.7740 ha        1 L58      0.144000
     37 H4          0.7950   -2.1430   -0.9620 ha        1 L58      0.157000
     38 H11        -1.8780    0.6830   -4.2520 ha        1 L58      0.141000
     39 H10        -3.4250    0.6310   -6.0650 ha        1 L58      0.149000
     40 H9         -5.6320   -2.1800   -4.1410 ha        1 L58      0.150000
     41 H8         -4.1650   -2.1990   -2.3230 ha        1 L58      0.143000
@<TRIPOS>BOND
     1    1    2 1   
     2    2    5 1   
     3    3    4 1   
     4    3   25 1   
     5    4   26 1   
     6    5    6 1   
     7    5    9 1   
     8    5   27 1   
     9    6    7 1   
    10    6    8 1   
    11    6   28 1   
    12    7   29 1   
    13    8   30 1   
    14    8   31 1   
    15    8   32 1   
    16    9   10 1   
    17    9   33 1   
    18   10   11 1   
    19   10   12 1   
    20   12   13 1   
    21   12   17 1   
    22   13   14 1   
    23   13   34 1   
    24   14   35 1   
    25   15   16 1   
    26   15   18 1   
    27   16   36 1   
    28   17   37 1   
    29   18   19 1   
    30   18   24 1   
    31   19   20 1   
    32   19   38 1   
    33   20   39 1   
    34   21   22 1   
    35   21   23 1   
    36   23   40 1   
    37   24   41 1   
@<TRIPOS>SUBSTRUCTURE
     1 L58         1 TEMP              0 ****  ****    0 ROOT
