@<TRIPOS>MOLECULE
L58
   43    44     1     0     0
SMALL
bcc


@<TRIPOS>ATOM
      1 O2          0.1070   -0.2570    0.2420 o         1 L58     -0.382100
      2 C15         1.2950   -0.0540    0.0530 c         1 L58      0.521100
      3 N2          2.1480    0.1410    1.2890 n4        1 L58     -0.432300
      4 O3          1.5850   -0.3660    2.4080 oh        1 L58     -0.326300
      5 C14         2.0020    0.0220   -1.3030 c3        1 L58      0.048500
      6 C16         3.0820    1.1500   -1.2940 c3        1 L58      0.139100
      7 O4          2.5030    2.2070   -0.5460 oh        1 L58     -0.668800
      8 C17         3.5390    1.5700   -2.6720 c3        1 L58     -0.167100
      9 N1          1.0010    0.1640   -2.3990 n4        1 L58     -0.700800
     10 C1          1.2850   -0.7340   -3.6590 c         1 L58      0.602700
     11 O1          2.3020   -1.4030   -3.5540 o         1 L58     -0.454100
     12 C2          0.3150   -0.6300   -4.7130 ca        1 L58     -0.257600
     13 C7         -0.8160    0.2170   -4.7030 ca        1 L58     -0.038500
     14 C6         -1.6850    0.2300   -5.7760 ca        1 L58     -0.140000
     15 C5         -1.4690   -0.5960   -6.9060 cp        1 L58      0.131000
     16 C4         -0.3400   -1.4380   -6.9110 ca        1 L58     -0.140000
     17 C3          0.5380   -1.4610   -5.8400 ca        1 L58     -0.038500
     18 C8         -2.3880   -0.5710   -8.0270 cp        1 L58     -0.118000
     19 C13        -3.7580   -0.3240   -7.8270 ca        1 L58     -0.083000
     20 C12        -4.6380   -0.3090   -8.9030 ca        1 L58     -0.105500
     21 C11        -4.1680   -0.5290  -10.2040 ca        1 L58      0.019100
     22 BR         -5.3490   -0.5010  -11.6460 br        1 L58     -0.010100
     23 C10        -2.8040   -0.7710  -10.4120 ca        1 L58     -0.105500
     24 C9         -1.9240   -0.7980   -9.3350 ca        1 L58     -0.083000
     25 H12         3.0560   -0.3650    1.1940 hn        1 L58      0.511300
     26 H13         0.6510   -0.0440    2.4910 ho        1 L58      0.497000
     27 H1          2.5490   -0.9710   -1.4580 hx        1 L58      0.188700
     28 H2          3.9680    0.7460   -0.7180 h1        1 L58      0.084700
     29 H17         2.8930    3.0520   -0.8230 ho        1 L58      0.487000
     30 H15         3.7150    0.6760   -3.3220 hc        1 L58      0.093700
     31 H14         2.8060    2.2560   -3.1630 hc        1 L58      0.093700
     32 H16         4.5120    2.1240   -2.5870 hc        1 L58      0.093700
     33 H3          0.0590   -0.0870   -2.0660 hn        1 L58      0.473300
     34 H7         -1.0320    0.8880   -3.8580 ha        1 L58      0.146000
     35 H6         -2.5590    0.9060   -5.7630 ha        1 L58      0.181000
     36 H5         -0.1580   -2.1030   -7.7750 ha        1 L58      0.181000
     37 H4          1.4150   -2.1330   -5.8570 ha        1 L58      0.146000
     38 H11        -4.1500   -0.1630   -6.8100 ha        1 L58      0.141500
     39 H10        -5.7120   -0.1230   -8.7230 ha        1 L58      0.172000
     40 H9         -2.4190   -0.9440  -11.4320 ha        1 L58      0.172000
     41 H8         -0.8540   -0.9800   -9.5210 ha        1 L58      0.141500
     42 H22         2.3430    1.1670    1.3990 hn        1 L58      0.511300
     43 H121        0.9800    1.1430   -2.7130 hn        1 L58      0.473300
@<TRIPOS>BOND
     1    1    2 2   
     2    2    3 1   
     3    2    5 1   
     4    3    4 1   
     5    3   25 1   
     6    3   42 1   
     7    4   26 1   
     8    5    6 1   
     9    5    9 1   
    10    5   27 1   
    11    6    7 1   
    12    6    8 1   
    13    6   28 1   
    14    7   29 1   
    15    8   30 1   
    16    8   31 1   
    17    8   32 1   
    18    9   10 1   
    19    9   33 1   
    20    9   43 1   
    21   10   11 2   
    22   10   12 1   
    23   12   13 ar  
    24   12   17 ar  
    25   13   14 ar  
    26   13   34 1   
    27   14   15 ar  
    28   14   35 1   
    29   15   16 ar  
    30   15   18 1   
    31   16   17 ar  
    32   16   36 1   
    33   17   37 1   
    34   18   19 ar  
    35   18   24 ar  
    36   19   20 ar  
    37   19   38 1   
    38   20   21 ar  
    39   20   39 1   
    40   21   22 1   
    41   21   23 ar  
    42   23   24 ar  
    43   23   40 1   
    44   24   41 1   
@<TRIPOS>SUBSTRUCTURE
     1 L58         1 TEMP              0 ****  ****    0 ROOT
