@<TRIPOS>MOLECULE
L58
   43    44     1     0     0
SMALL
bcc


@<TRIPOS>ATOM
      1 O2          0.1160   -0.2770    0.2440 o         1 L58     -0.382100
      2 C15         1.3030   -0.0660    0.0530 c         1 L58      0.521100
      3 N2          2.1570    0.1320    1.2880 n4        1 L58     -0.432300
      4 O3          1.6000   -0.3820    2.4060 oh        1 L58     -0.326300
      5 C14         2.0060    0.0200   -1.3050 c3        1 L58      0.048500
      6 C16         3.0780    1.1550   -1.2940 c3        1 L58      0.139100
      7 O4          2.4940    2.2060   -0.5420 oh        1 L58     -0.668800
      8 C17         3.5290    1.5820   -2.6730 c3        1 L58     -0.167100
      9 N1          1.0010    0.1590   -2.3980 n4        1 L58     -0.700800
     10 C1          1.2880   -0.7330   -3.6610 c         1 L58      0.602700
     11 O1          2.3090   -1.3960   -3.5600 o         1 L58     -0.454100
     12 C2          0.3160   -0.6300   -4.7140 ca        1 L58     -0.257600
     13 C7         -0.8200    0.2090   -4.6990 ca        1 L58     -0.038500
     14 C6         -1.6910    0.2210   -5.7700 ca        1 L58     -0.140000
     15 C5         -1.4700   -0.5980   -6.9040 cp        1 L58      0.131000
     16 C4         -0.3350   -1.4320   -6.9150 ca        1 L58     -0.140000
     17 C3          0.5440   -1.4540   -5.8450 ca        1 L58     -0.038500
     18 C8         -2.3910   -0.5740   -8.0250 cp        1 L58     -0.118000
     19 C13        -3.7620   -0.3370   -7.8220 ca        1 L58     -0.083000
     20 C12        -4.6440   -0.3230   -8.8970 ca        1 L58     -0.105500
     21 C11        -4.1730   -0.5330  -10.1990 ca        1 L58      0.019100
     22 BR         -5.3560   -0.5050  -11.6400 br        1 L58     -0.010100
     23 C10        -2.8080   -0.7640  -10.4100 ca        1 L58     -0.105500
     24 C9         -1.9270   -0.7910   -9.3350 ca        1 L58     -0.083000
     25 H12         2.3450    1.1580    1.4000 hn        1 L58      0.511300
     26 H13         0.6640   -0.0670    2.4920 ho        1 L58      0.497000
     27 H1          2.5580   -0.9700   -1.4640 hx        1 L58      0.188700
     28 H2          3.9680    0.7550   -0.7220 h1        1 L58      0.084700
     29 H17         2.8770    3.0540   -0.8180 ho        1 L58      0.487000
     30 H15         4.4980    2.1420   -2.5880 hc        1 L58      0.093700
     31 H14         2.7900    2.2650   -3.1600 hc        1 L58      0.093700
     32 H16         3.7100    0.6910   -3.3250 hc        1 L58      0.093700
     33 H3          0.9720    1.1380   -2.7080 hn        1 L58      0.473300
     34 H7         -1.0400    0.8730   -3.8500 ha        1 L58      0.146000
     35 H6         -2.5690    0.8900   -5.7530 ha        1 L58      0.181000
     36 H5         -0.1490   -2.0910   -7.7820 ha        1 L58      0.181000
     37 H4          1.4250   -2.1200   -5.8670 ha        1 L58      0.146000
     38 H11        -4.1540   -0.1840   -6.8040 ha        1 L58      0.141500
     39 H10        -5.7180   -0.1460   -8.7150 ha        1 L58      0.172000
     40 H9         -2.4230   -0.9280  -11.4310 ha        1 L58      0.172000
     41 H8         -0.8550   -0.9630   -9.5230 ha        1 L58      0.141500
     42 H22         3.0680   -0.3680    1.1880 hn        1 L58      0.511300
     43 H121        0.0620   -0.1010   -2.0640 hn        1 L58      0.473300
@<TRIPOS>BOND
     1    1    2 2   
     2    2    3 1   
     3    2    5 1   
     4    3    4 1   
     5    3   25 1   
     6    3   42 1   
     7    4   26 1   
     8    5    6 1   
     9    5    9 1   
    10    5   27 1   
    11    6    7 1   
    12    6    8 1   
    13    6   28 1   
    14    7   29 1   
    15    8   30 1   
    16    8   31 1   
    17    8   32 1   
    18    9   10 1   
    19    9   33 1   
    20    9   43 1   
    21   10   11 2   
    22   10   12 1   
    23   12   13 ar  
    24   12   17 ar  
    25   13   14 ar  
    26   13   34 1   
    27   14   15 ar  
    28   14   35 1   
    29   15   16 ar  
    30   15   18 1   
    31   16   17 ar  
    32   16   36 1   
    33   17   37 1   
    34   18   19 ar  
    35   18   24 ar  
    36   19   20 ar  
    37   19   38 1   
    38   20   21 ar  
    39   20   39 1   
    40   21   22 1   
    41   21   23 ar  
    42   23   24 ar  
    43   23   40 1   
    44   24   41 1   
@<TRIPOS>SUBSTRUCTURE
     1 L58         1 TEMP              0 ****  ****    0 ROOT
