@<TRIPOS>MOLECULE
L58
   41    42     1     0     0
SMALL
bcc


@<TRIPOS>ATOM
      1 O2          5.0610   -1.9660   -0.7990 o         1 L58     -0.576100
      2 C15         5.8030   -1.0660   -0.3670 c         1 L58      0.578100
      3 N2          7.2100   -1.2760   -0.2730 n         1 L58     -0.339400
      4 O3          7.5750   -2.5610   -0.3080 oh        1 L58     -0.433100
      5 C14         5.2670    0.3570   -0.1070 c3        1 L58     -0.008300
      6 C16         6.0840    1.0830    0.9980 c3        1 L58      0.137100
      7 O4          6.3000    0.2330    2.1090 oh        1 L58     -0.612800
      8 C17         5.4550    2.4020    1.3990 c3        1 L58     -0.127100
      9 N1          3.8480    0.3280    0.1680 n         1 L58     -0.543900
     10 C1          2.9790    1.1540   -0.5430 c         1 L58      0.667700
     11 O1          3.4090    2.1440   -1.1680 o         1 L58     -0.594100
     12 C2          1.5250    0.8530   -0.4430 ca        1 L58     -0.141600
     13 C7          1.0380   -0.4540   -0.5370 ca        1 L58     -0.089000
     14 C6         -0.3320   -0.6930   -0.4590 ca        1 L58     -0.126000
     15 C5         -1.2310    0.3690   -0.2880 cp        1 L58     -0.016000
     16 C4         -0.7360    1.6790   -0.2060 ca        1 L58     -0.126000
     17 C3          0.6330    1.9210   -0.2860 ca        1 L58     -0.089000
     18 C8         -2.6680    0.1150   -0.2030 cp        1 L58     -0.034000
     19 C13        -3.1540   -0.9820    0.5220 ca        1 L58     -0.116500
     20 C12        -4.5230   -1.2240    0.6070 ca        1 L58     -0.104000
     21 C11        -5.4250   -0.3720   -0.0380 ca        1 L58     -0.021900
     22 BR         -7.2650   -0.6980    0.0730 br        1 L58     -0.083100
     23 C10        -4.9490    0.7220   -0.7650 ca        1 L58     -0.104000
     24 C9         -3.5800    0.9640   -0.8450 ca        1 L58     -0.116500
     25 H12         7.6050   -0.8750    0.5760 hn        1 L58      0.322500
     26 H13         7.4240   -2.8600   -1.2270 ho        1 L58      0.432000
     27 H1          5.4420    0.9450   -1.0650 h1        1 L58      0.114700
     28 H2          7.1200    1.2760    0.5910 h1        1 L58      0.080700
     29 H17         5.4780    0.1880    2.6120 ho        1 L58      0.414000
     30 H15         4.5680    2.2390    2.0570 hc        1 L58      0.055700
     31 H14         6.1990    3.0170    1.9600 hc        1 L58      0.055700
     32 H16         5.1250    2.9610    0.4890 hc        1 L58      0.055700
     33 H3          3.4880   -0.5450    0.4880 hn        1 L58      0.317500
     34 H7          1.7250   -1.3010   -0.6940 ha        1 L58      0.151000
     35 H6         -0.7120   -1.7230   -0.5430 ha        1 L58      0.143500
     36 H5         -1.4330    2.5210   -0.0730 ha        1 L58      0.143500
     37 H4          1.0230    2.9500   -0.2370 ha        1 L58      0.151000
     38 H11        -2.4490   -1.6540    1.0360 ha        1 L58      0.142000
     39 H10        -4.8860   -2.0880    1.1840 ha        1 L58      0.149000
     40 H9         -5.6500    1.3980   -1.2800 ha        1 L58      0.149000
     41 H8         -3.2120    1.8250   -1.4250 ha        1 L58      0.142000
@<TRIPOS>BOND
     1    1    2 2   
     2    2    3 1   
     3    2    5 1   
     4    3    4 1   
     5    3   25 1   
     6    4   26 1   
     7    5    6 1   
     8    5    9 1   
     9    5   27 1   
    10    6    7 1   
    11    6    8 1   
    12    6   28 1   
    13    7   29 1   
    14    8   30 1   
    15    8   31 1   
    16    8   32 1   
    17    9   10 1   
    18    9   33 1   
    19   10   11 2   
    20   10   12 1   
    21   12   13 ar  
    22   12   17 ar  
    23   13   14 ar  
    24   13   34 1   
    25   14   15 ar  
    26   14   35 1   
    27   15   16 ar  
    28   15   18 1   
    29   16   17 ar  
    30   16   36 1   
    31   17   37 1   
    32   18   19 ar  
    33   18   24 ar  
    34   19   20 ar  
    35   19   38 1   
    36   20   21 ar  
    37   20   39 1   
    38   21   22 1   
    39   21   23 ar  
    40   23   24 ar  
    41   23   40 1   
    42   24   41 1   
@<TRIPOS>SUBSTRUCTURE
     1 L58         1 TEMP              0 ****  ****    0 ROOT
