@<TRIPOS>MOLECULE
L58
   43    44     1     0     0
SMALL
bcc


@<TRIPOS>ATOM
      1 O2          0.1120   -0.2770    0.2460 o         1 L58     -0.382100
      2 C15         1.2990   -0.0670    0.0560 c         1 L58      0.521100
      3 N2          2.1520    0.1310    1.2910 ny        1 L58     -0.432300
      4 O3          1.5940   -0.3830    2.4090 oh        1 L58     -0.326300
      5 C14         2.0030    0.0190   -1.3010 c3        1 L58      0.048500
      6 C16         3.0770    1.1530   -1.2900 c3        1 L58      0.139100
      7 O4          2.4920    2.2040   -0.5380 oh        1 L58     -0.668800
      8 C17         3.5290    1.5790   -2.6680 c3        1 L58     -0.167100
      9 N1          0.9990    0.1580   -2.3950 ny        1 L58     -0.700800
     10 C1          1.2870   -0.7340   -3.6580 c         1 L58      0.602700
     11 O1          2.3080   -1.3980   -3.5560 o         1 L58     -0.454100
     12 C2          0.3160   -0.6310   -4.7120 ca        1 L58     -0.257600
     13 C7         -0.8190    0.2100   -4.6980 ca        1 L58     -0.038500
     14 C6         -1.6890    0.2230   -5.7700 ca        1 L58     -0.140000
     15 C5         -1.4680   -0.5960   -6.9040 cp        1 L58      0.131000
     16 C4         -0.3340   -1.4310   -6.9140 ca        1 L58     -0.140000
     17 C3          0.5440   -1.4540   -5.8430 ca        1 L58     -0.038500
     18 C8         -2.3880   -0.5710   -8.0260 cp        1 L58     -0.118000
     19 C13        -3.7590   -0.3330   -7.8240 ca        1 L58     -0.083000
     20 C12        -4.6390   -0.3170   -8.9000 ca        1 L58     -0.105500
     21 C11        -4.1670   -0.5280  -10.2020 ca        1 L58      0.019100
     22 Br         -5.3480   -0.4990  -11.6440 br        1 L58     -0.010100
     23 C10        -2.8020   -0.7610  -10.4110 ca        1 L58     -0.105500
     24 C9         -1.9220   -0.7880   -9.3350 ca        1 L58     -0.083000
     25 H12         3.0630   -0.3700    1.1930 hn        1 L58      0.511300
     26 H13         0.6590   -0.0670    2.4940 ho        1 L58      0.497000
     27 H1          2.5550   -0.9710   -1.4600 hx        1 L58      0.188700
     28 H2          3.9660    0.7520   -0.7170 h1        1 L58      0.084700
     29 H17         2.8770    3.0520   -0.8130 ho        1 L58      0.487000
     30 H15         2.7910    2.2630   -3.1550 hc        1 L58      0.093700
     31 H14         3.7100    0.6890   -3.3210 hc        1 L58      0.093700
     32 H16         4.4980    2.1390   -2.5830 hc        1 L58      0.093700
     33 H3          0.9720    1.1370   -2.7050 hn        1 L58      0.473300
     34 H7         -1.0400    0.8750   -3.8490 ha        1 L58      0.146000
     35 H6         -2.5670    0.8930   -5.7540 ha        1 L58      0.181000
     36 H5         -0.1480   -2.0910   -7.7810 ha        1 L58      0.181000
     37 H4          1.4250   -2.1210   -5.8640 ha        1 L58      0.146000
     38 H11        -4.1520   -0.1790   -6.8070 ha        1 L58      0.141500
     39 H10        -5.7130   -0.1390   -8.7200 ha        1 L58      0.172000
     40 H9         -2.4160   -0.9260  -11.4320 ha        1 L58      0.172000
     41 H8         -0.8510   -0.9620   -9.5220 ha        1 L58      0.141500
     42 H22         2.3420    1.1570    1.4040 hn        1 L58      0.511300
     43 H121        0.0600   -0.1010   -2.0620 hn        1 L58      0.473300
@<TRIPOS>BOND
     1    1    2 2   
     2    2    3 1   
     3    2    5 1   
     4    3    4 1   
     5    3   25 1   
     6    3   42 1   
     7    4   26 1   
     8    5    6 1   
     9    5    9 1   
    10    5   27 1   
    11    6    7 1   
    12    6    8 1   
    13    6   28 1   
    14    7   29 1   
    15    8   30 1   
    16    8   31 1   
    17    8   32 1   
    18    9   10 1   
    19    9   33 1   
    20    9   43 1   
    21   10   11 2   
    22   10   12 1   
    23   12   13 ar  
    24   12   17 ar  
    25   13   14 ar  
    26   13   34 1   
    27   14   15 ar  
    28   14   35 1   
    29   15   16 ar  
    30   15   18 1   
    31   16   17 ar  
    32   16   36 1   
    33   17   37 1   
    34   18   19 ar  
    35   18   24 ar  
    36   19   20 ar  
    37   19   38 1   
    38   20   21 ar  
    39   20   39 1   
    40   21   22 1   
    41   21   23 ar  
    42   23   24 ar  
    43   23   40 1   
    44   24   41 1   
@<TRIPOS>SUBSTRUCTURE
     1 L58         1 TEMP              0 ****  ****    0 ROOT
