@<TRIPOS>MOLECULE
L59
   45    46     1     0     0
SMALL
bcc


@<TRIPOS>ATOM
      1 O2          1.0680   -0.6140    0.4800 o         1 L59     -0.362100
      2 C17         1.9750   -0.3480   -0.2890 c         1 L59      0.526100
      3 N2          3.3290   -0.9640    0.0170 ny        1 L59     -0.438300
      4 O3          3.4850   -1.2640    1.3260 oh        1 L59     -0.333300
      5 C16         1.8780    0.5320   -1.5300 c3        1 L59      0.038500
      6 C18         1.5350    2.0010   -1.0620 c3        1 L59      0.154100
      7 O4          1.1660    2.6910   -2.2340 oh        1 L59     -0.610800
      8 C19         2.7200    2.5960   -0.3400 c3        1 L59     -0.165100
      9 N1          0.8360    0.0010   -2.4610 ny        1 L59     -0.679800
     10 C1          1.1580   -1.4150   -2.9780 c         1 L59      0.611700
     11 O1          2.0290   -1.9620   -2.2860 o         1 L59     -0.605100
     12 C2          0.4420   -1.8770   -4.1140 ca        1 L59     -0.265600
     13 C7          0.7780   -3.1750   -4.5950 ca        1 L59     -0.025500
     14 C6          0.1350   -3.7090   -5.6900 ca        1 L59     -0.147500
     15 C5         -0.8780   -2.9780   -6.3600 ca        1 L59      0.240000
     16 C4         -1.2160   -1.6820   -5.8770 ca        1 L59     -0.147500
     17 C3         -0.5750   -1.1460   -4.7850 ca        1 L59     -0.025500
     18 C8         -1.5280   -3.5090   -7.4600 cg        1 L59     -0.264000
     19 C9         -2.0950   -3.9780   -8.4210 ch        1 L59      0.128000
     20 C10        -2.7480   -4.5210   -9.5300 ca        1 L59     -0.074000
     21 C15        -2.4040   -5.8060   -9.9970 ca        1 L59     -0.062500
     22 C14        -3.0590   -6.3400  -11.1020 ca        1 L59     -0.136500
     23 C13        -4.0570   -5.6090  -11.7500 ca        1 L59     -0.058000
     24 C12        -4.4030   -4.3350  -11.2910 ca        1 L59     -0.136500
     25 C11        -3.7570   -3.7880  -10.1880 ca        1 L59     -0.062500
     26 H13         4.0960   -0.2890   -0.1950 hn        1 L59      0.508800
     27 H14         2.7210   -1.8140    1.6340 ho        1 L59      0.496000
     28 H1          2.8510    0.5550   -2.1070 hx        1 L59      0.139700
     29 H2          0.6230    1.9580   -0.3970 h1        1 L59      0.109700
     30 H18         1.6990    3.4980   -2.3220 ho        1 L59      0.473000
     31 H17         3.6080    2.6870   -1.0140 hc        1 L59      0.085367
     32 H16         2.4530    3.6260    0.0200 hc        1 L59      0.085367
     33 H15         2.9910    1.9860    0.5550 hc        1 L59      0.085367
     34 H3         -0.0790   -0.0110   -1.9910 hn        1 L59      0.487300
     35 H7          1.5650   -3.7520   -4.0770 ha        1 L59      0.147500
     36 H6          0.4030   -4.7150   -6.0560 ha        1 L59      0.185000
     37 H5         -2.0070   -1.1120   -6.3950 ha        1 L59      0.185000
     38 H4         -0.8790   -0.1440   -4.4470 ha        1 L59      0.147500
     39 H12        -1.6170   -6.3830   -9.4880 ha        1 L59      0.145000
     40 H11        -2.7880   -7.3440  -11.4660 ha        1 L59      0.159500
     41 H10        -4.5730   -6.0370  -12.6250 ha        1 L59      0.160000
     42 H9         -5.1910   -3.7610  -11.8050 ha        1 L59      0.159500
     43 H8         -4.0310   -2.7840   -9.8280 ha        1 L59      0.145000
     44 H22         3.4530   -1.8180   -0.5770 hn        1 L59      0.508800
     45 H121        0.7710    0.6630   -3.2540 hn        1 L59      0.487300
@<TRIPOS>BOND
     1    1    2 2   
     2    2    3 1   
     3    2    5 1   
     4    3    4 1   
     5    3   26 1   
     6    3   44 1   
     7    4   27 1   
     8    5    6 1   
     9    5    9 1   
    10    5   28 1   
    11    6    7 1   
    12    6    8 1   
    13    6   29 1   
    14    7   30 1   
    15    8   31 1   
    16    8   32 1   
    17    8   33 1   
    18    9   10 1   
    19    9   34 1   
    20    9   45 1   
    21   10   11 2   
    22   10   12 1   
    23   12   13 ar  
    24   12   17 ar  
    25   13   14 ar  
    26   13   35 1   
    27   14   15 ar  
    28   14   36 1   
    29   15   16 ar  
    30   15   18 1   
    31   16   17 ar  
    32   16   37 1   
    33   17   38 1   
    34   18   19 3   
    35   19   20 1   
    36   20   21 ar  
    37   20   25 ar  
    38   21   22 ar  
    39   21   39 1   
    40   22   23 ar  
    41   22   40 1   
    42   23   24 ar  
    43   23   41 1   
    44   24   25 ar  
    45   24   42 1   
    46   25   43 1   
@<TRIPOS>SUBSTRUCTURE
     1 L59         1 TEMP              0 ****  ****    0 ROOT
