@<TRIPOS>MOLECULE
L59
   45    46     1     0     0
SMALL
bcc


@<TRIPOS>ATOM
      1 O2          1.3890   -0.6510    0.5610 o         1 L59     -0.362100
      2 C17         2.1610   -0.2060   -0.2690 c         1 L59      0.526100
      3 N2          3.6370   -0.4870   -0.0460 n4        1 L59     -0.438300
      4 O3          3.9380   -0.7090    1.2540 oh        1 L59     -0.333300
      5 C16         1.7880    0.5960   -1.5110 c3        1 L59      0.038500
      6 C18         1.1460    1.9590   -1.0390 c3        1 L59      0.154100
      7 O4          0.5570    2.5150   -2.1920 oh        1 L59     -0.610800
      8 C19         2.2050    2.8290   -0.4040 c3        1 L59     -0.165100
      9 N1          0.8410   -0.1840   -2.3650 n4        1 L59     -0.679800
     10 C1          1.4480   -1.5020   -2.8860 c         1 L59      0.611700
     11 O1          2.4620   -1.8160   -2.2460 o         1 L59     -0.605100
     12 C2          0.7880   -2.1460   -3.9660 ca        1 L59     -0.265600
     13 C7          1.3840   -3.3450   -4.4530 ca        1 L59     -0.025500
     14 C6          0.8140   -4.0400   -5.4970 ca        1 L59     -0.147500
     15 C5         -0.3790   -3.5790   -6.1080 ca        1 L59      0.240000
     16 C4         -0.9750   -2.3820   -5.6180 ca        1 L59     -0.147500
     17 C3         -0.4080   -1.6850   -4.5770 ca        1 L59     -0.025500
     18 C8         -0.9560   -4.2740   -7.1560 cg        1 L59     -0.264000
     19 C9         -1.4570   -4.8860   -8.0710 ch        1 L59      0.128000
     20 C10        -2.0360   -5.5920   -9.1280 ca        1 L59     -0.074000
     21 C15        -1.4350   -6.7760   -9.6020 ca        1 L59     -0.062500
     22 C14        -2.0160   -7.4750  -10.6550 ca        1 L59     -0.136500
     23 C13        -3.1940   -7.0090  -11.2440 ca        1 L59     -0.058000
     24 C12        -3.7940   -5.8360  -10.7790 ca        1 L59     -0.136500
     25 C11        -3.2240   -5.1270   -9.7270 ca        1 L59     -0.062500
     26 H13         3.9170   -1.3060   -0.6360 hn        1 L59      0.508800
     27 H14         3.3410   -1.4100    1.6180 ho        1 L59      0.496000
     28 H1          2.6930    0.8260   -2.1520 hx        1 L59      0.139700
     29 H2          0.3110    1.7270   -0.3150 h1        1 L59      0.109700
     30 H18         0.8840    3.4200   -2.3250 ho        1 L59      0.473000
     31 H17         3.0050    3.1020   -1.1360 hc        1 L59      0.085367
     32 H16         1.7310    3.7800   -0.0390 hc        1 L59      0.085367
     33 H15         2.6630    2.3210    0.4780 hc        1 L59      0.085367
     34 H3          0.5770    0.4240   -3.1600 hn        1 L59      0.487300
     35 H7          2.3130   -3.7120   -3.9810 ha        1 L59      0.147500
     36 H6          1.2840   -4.9680   -5.8680 ha        1 L59      0.185000
     37 H5         -1.9070   -2.0220   -6.0900 ha        1 L59      0.185000
     38 H4         -0.9140   -0.7700   -4.2320 ha        1 L59      0.147500
     39 H12        -0.5070   -7.1450   -9.1390 ha        1 L59      0.145000
     40 H11        -1.5450   -8.4000  -11.0240 ha        1 L59      0.159500
     41 H10        -3.6500   -7.5670  -12.0780 ha        1 L59      0.160000
     42 H9         -4.7230   -5.4720  -11.2460 ha        1 L59      0.159500
     43 H8         -3.6990   -4.2030   -9.3610 ha        1 L59      0.145000
     44 H22         4.2130    0.3390   -0.3160 hn        1 L59      0.508800
     45 H121       -0.0160   -0.3930   -1.8360 hn        1 L59      0.487300
@<TRIPOS>BOND
     1    1    2 2   
     2    2    3 1   
     3    2    5 1   
     4    3    4 1   
     5    3   26 1   
     6    3   44 1   
     7    4   27 1   
     8    5    6 1   
     9    5    9 1   
    10    5   28 1   
    11    6    7 1   
    12    6    8 1   
    13    6   29 1   
    14    7   30 1   
    15    8   31 1   
    16    8   32 1   
    17    8   33 1   
    18    9   10 1   
    19    9   34 1   
    20    9   45 1   
    21   10   11 2   
    22   10   12 1   
    23   12   13 ar  
    24   12   17 ar  
    25   13   14 ar  
    26   13   35 1   
    27   14   15 ar  
    28   14   36 1   
    29   15   16 ar  
    30   15   18 1   
    31   16   17 ar  
    32   16   37 1   
    33   17   38 1   
    34   18   19 3   
    35   19   20 1   
    36   20   21 ar  
    37   20   25 ar  
    38   21   22 ar  
    39   21   39 1   
    40   22   23 ar  
    41   22   40 1   
    42   23   24 ar  
    43   23   41 1   
    44   24   25 ar  
    45   24   42 1   
    46   25   43 1   
@<TRIPOS>SUBSTRUCTURE
     1 L59         1 TEMP              0 ****  ****    0 ROOT
