@<TRIPOS>MOLECULE
L59
   43    38     1     0     0
SMALL
bcc


@<TRIPOS>ATOM
      1 O2         -0.4100    4.3450    3.4470 o         1 L59     -0.332000
      2 C17         0.4740    3.5810    3.6760 c1        1 L59      0.234000
      3 N2          0.4360    2.7940    4.8310 n2        1 L59     -0.201000
      4 O3         -0.6210    2.9000    5.7010 oh        1 L59     -0.234000
      5 C16         1.6170    3.4130    2.6740 c3        1 L59      0.008000
      6 C18         2.0730    4.7730    2.1990 c3        1 L59      0.022000
      7 O4          2.4240    4.7060    0.8140 oh        1 L59     -0.340000
      8 C19         3.2560    5.2010    2.9900 c3        1 L59     -0.252000
      9 N1          1.1640    2.6480    1.5610 n         1 L59     -0.354000
     10 C1          1.5150    1.2340    1.4540 c2        1 L59      0.348000
     11 O1          2.4550    0.7720    2.1340 o         1 L59     -0.383000
     12 C2          0.8130    0.3490    0.4230 c2        1 L59     -0.119000
     13 C7          1.5740   -0.3530   -0.5260 c2        1 L59     -0.078000
     14 C6          0.9580   -1.2790   -1.3720 c1        1 L59     -0.119000
     15 C5         -0.4130   -1.5080   -1.2750 c1        1 L59      0.061000
     16 C4         -1.1750   -0.8080   -0.3280 c1        1 L59     -0.119000
     17 C3         -0.5570    0.1210    0.5210 c1        1 L59     -0.100000
     18 C8         -1.0490   -2.5520   -2.1170 c1        1 L59     -0.124000
     19 C9         -1.5650   -3.4070   -2.8080 c1        1 L59     -0.083000
     20 C10        -2.1970   -4.4710   -3.6700 c1        1 L59      0.019000
     21 C15        -3.5370   -4.8020   -3.4960 c2        1 L59     -0.103000
     22 C14        -4.1040   -5.8060   -4.2520 c1        1 L59     -0.134000
     23 C13        -3.3320   -6.4930   -5.1930 c1        1 L59     -0.125500
     24 C12        -2.0050   -6.1660   -5.3660 c1        1 L59     -0.125500
     25 C11        -1.4330   -5.1500   -4.6000 c1        1 L59     -0.102000
     26 H13         1.1300    2.2150    5.0170 hn        1 L59      0.252000
     27 H14        -0.3940    2.5350    6.4950 ho        1 L59      0.226000
     28 H1          2.3690    2.9470    3.1080 h1        1 L59      0.133000
     29 H2          1.3500    5.4170    2.3190 h1        1 L59      0.108000
     30 H18         2.0630    5.3990    0.3830 ho        1 L59      0.213000
     31 H17         3.9890    4.5590    2.8550 hc        1 L59      0.093000
     32 H16         3.5420    6.0880    2.6950 hc        1 L59      0.093000
     33 H15         3.0180    5.2330    3.9480 hc        1 L59      0.093000
     34 H3          0.5950    3.0390    0.9260 hn        1 L59      0.244000
     35 H7          2.5130   -0.1960   -0.5930 ha        1 L59      0.158000
     36 H6          1.4910   -1.7700   -2.0350 ha        1 L59      0.147000
     37 H5         -2.1220   -0.9650   -0.2600 ha        1 L59      0.146000
     38 H4         -1.0830    0.6060    1.1760 ha        1 L59      0.143000
     39 H12        -4.0650   -4.3340   -2.8530 ha        1 L59      0.139000
     40 H11        -5.0650   -6.0420   -4.1260 ha        1 L59      0.136000
     41 H10        -3.7280   -7.1910   -5.7190 ha        1 L59      0.135500
     42 H9         -1.4520   -6.6590   -6.0400 ha        1 L59      0.135500
     43 H8         -0.5120   -4.9220   -4.7190 ha        1 L59      0.140000
@<TRIPOS>BOND
     1    1    2 1   
     2    2    5 1   
     3    3    4 1   
     4    3   26 1   
     5    4   27 1   
     6    5    6 1   
     7    5    9 1   
     8    5   28 1   
     9    6    7 1   
    10    6    8 1   
    11    6   29 1   
    12    7   30 1   
    13    8   31 1   
    14    8   32 1   
    15    8   33 1   
    16    9   10 1   
    17    9   34 1   
    18   10   11 1   
    19   10   12 1   
    20   12   13 1   
    21   12   17 1   
    22   13   14 1   
    23   13   35 1   
    24   14   36 1   
    25   15   16 1   
    26   15   18 1   
    27   16   37 1   
    28   17   38 1   
    29   18   19 1   
    30   20   21 1   
    31   20   25 1   
    32   21   22 1   
    33   21   39 1   
    34   22   40 1   
    35   23   24 1   
    36   23   41 1   
    37   24   42 1   
    38   25   43 1   
@<TRIPOS>SUBSTRUCTURE
     1 L59         1 TEMP              0 ****  ****    0 ROOT
