@<TRIPOS>MOLECULE
L59
   45    46     1     0     0
SMALL
bcc


@<TRIPOS>ATOM
      1 O2          0.7250    0.0990    0.4190 o         1 L59     -0.362100
      2 C17         1.7520    0.0130   -0.2300 c         1 L59      0.526100
      3 N2          2.8880   -0.7810    0.3930 n4        1 L59     -0.438300
      4 O3          2.8170   -0.8260    1.7420 oh        1 L59     -0.333300
      5 C16         2.0030    0.6180   -1.6070 c3        1 L59      0.038500
      6 C18         1.9480    2.1890   -1.4700 c3        1 L59      0.154100
      7 O4          1.8840    2.6790   -2.7890 oh        1 L59     -0.610800
      8 C19         3.1430    2.6760   -0.6850 c3        1 L59     -0.165100
      9 N1          0.9850    0.1210   -2.5830 n4        1 L59     -0.679800
     10 C1          1.0390   -1.4070   -2.7810 c         1 L59      0.611700
     11 O1          1.6760   -1.9580   -1.8730 o         1 L59     -0.605100
     12 C2          0.3750   -1.9440   -3.9160 ca        1 L59     -0.265600
     13 C7          0.4640   -3.3550   -4.0970 ca        1 L59     -0.025500
     14 C6         -0.1510   -3.9660   -5.1680 ca        1 L59     -0.147500
     15 C5         -0.8860   -3.2060   -6.1110 ca        1 L59      0.240000
     16 C4         -0.9770   -1.7970   -5.9270 ca        1 L59     -0.147500
     17 C3         -0.3640   -1.1830   -4.8600 ca        1 L59     -0.025500
     18 C8         -1.5060   -3.8160   -7.1880 cg        1 L59     -0.264000
     19 C9         -2.0470   -4.3530   -8.1270 ch        1 L59      0.128000
     20 C10        -2.6710   -4.9740   -9.2110 ca        1 L59     -0.074000
     21 C15        -2.5730   -6.3700   -9.3800 ca        1 L59     -0.062500
     22 C14        -3.1980   -6.9830  -10.4620 ca        1 L59     -0.136500
     23 C13        -3.9210   -6.2190  -11.3820 ca        1 L59     -0.058000
     24 C12        -4.0220   -4.8350  -11.2190 ca        1 L59     -0.136500
     25 C11        -3.4030   -4.2090  -10.1430 ca        1 L59     -0.062500
     26 H13         2.8850   -1.7470   -0.0110 hn        1 L59      0.508800
     27 H14         1.9180   -1.1380    2.0180 ho        1 L59      0.496000
     28 H1          3.0180    0.3270   -2.0170 hx        1 L59      0.139700
     29 H2          0.9770    2.4680   -0.9610 h1        1 L59      0.109700
     30 H18         2.5910    3.3280   -2.9340 ho        1 L59      0.473000
     31 H17         3.1620    2.2240    0.3360 hc        1 L59      0.085367
     32 H16         4.1010    2.4470   -1.2140 hc        1 L59      0.085367
     33 H15         3.0750    3.7900   -0.5620 hc        1 L59      0.085367
     34 H3          1.1650    0.6030   -3.4810 hn        1 L59      0.487300
     35 H7          1.0340   -3.9550   -3.3660 ha        1 L59      0.147500
     36 H6         -0.0750   -5.0600   -5.3000 ha        1 L59      0.185000
     37 H5         -1.5520   -1.2020   -6.6580 ha        1 L59      0.185000
     38 H4         -0.4720   -0.0920   -4.7600 ha        1 L59      0.147500
     39 H12        -2.0040   -6.9730   -8.6570 ha        1 L59      0.145000
     40 H11        -3.1210   -8.0740  -10.5930 ha        1 L59      0.159500
     41 H10        -4.4140   -6.7100  -12.2370 ha        1 L59      0.160000
     42 H9         -4.5930   -4.2370  -11.9470 ha        1 L59      0.159500
     43 H8         -3.4830   -3.1190  -10.0160 ha        1 L59      0.145000
     44 H22         3.8060   -0.3300    0.1890 hn        1 L59      0.508800
     45 H121        0.0420    0.3880   -2.2710 hn        1 L59      0.487300
@<TRIPOS>BOND
     1    1    2 2   
     2    2    3 1   
     3    2    5 1   
     4    3    4 1   
     5    3   26 1   
     6    3   44 1   
     7    4   27 1   
     8    5    6 1   
     9    5    9 1   
    10    5   28 1   
    11    6    7 1   
    12    6    8 1   
    13    6   29 1   
    14    7   30 1   
    15    8   31 1   
    16    8   32 1   
    17    8   33 1   
    18    9   10 1   
    19    9   34 1   
    20    9   45 1   
    21   10   11 2   
    22   10   12 1   
    23   12   13 ar  
    24   12   17 ar  
    25   13   14 ar  
    26   13   35 1   
    27   14   15 ar  
    28   14   36 1   
    29   15   16 ar  
    30   15   18 1   
    31   16   17 ar  
    32   16   37 1   
    33   17   38 1   
    34   18   19 3   
    35   19   20 1   
    36   20   21 ar  
    37   20   25 ar  
    38   21   22 ar  
    39   21   39 1   
    40   22   23 ar  
    41   22   40 1   
    42   23   24 ar  
    43   23   41 1   
    44   24   25 ar  
    45   24   42 1   
    46   25   43 1   
@<TRIPOS>SUBSTRUCTURE
     1 L59         1 TEMP              0 ****  ****    0 ROOT
