@<TRIPOS>MOLECULE
L59
   43    44     1     0     0
SMALL
bcc


@<TRIPOS>ATOM
      1 O2          4.4050   -1.9330    0.6030 o         1 L59     -0.569100
      2 C17         4.8690   -0.9800   -0.0460 c         1 L59      0.572100
      3 N2          5.8080   -1.1980   -1.0930 n         1 L59     -0.343400
      4 O3          6.5290   -2.3160   -0.9810 oh        1 L59     -0.435100
      5 C16         4.3420    0.4590    0.1340 c3        1 L59     -0.015300
      6 C18         5.0700    1.0660    1.3700 c3        1 L59      0.145100
      7 O4          4.8260    2.4590    1.4450 oh        1 L59     -0.589800
      8 C19         6.5750    0.9070    1.2470 c3        1 L59     -0.107100
      9 N1          2.9090    0.4730    0.2900 n         1 L59     -0.555900
     10 C1          2.0730    0.9060   -0.7360 c         1 L59      0.668700
     11 O1          2.5250    1.5440   -1.7060 o         1 L59     -0.584100
     12 C2          0.6150    0.6490   -0.5720 ca        1 L59     -0.141600
     13 C7         -0.2790    1.6580   -0.9520 ca        1 L59     -0.091000
     14 C6         -1.6510    1.4590   -0.8280 ca        1 L59     -0.117500
     15 C5         -2.1450    0.2410   -0.3300 ca        1 L59      0.057000
     16 C4         -1.2430   -0.7730    0.0350 ca        1 L59     -0.117500
     17 C3          0.1290   -0.5680   -0.0850 ca        1 L59     -0.091000
     18 C8         -3.5300    0.0370   -0.2010 cg        1 L59     -0.121000
     19 C9         -4.7120   -0.1370   -0.0920 ch        1 L59     -0.078000
     20 C10        -6.0970   -0.3410    0.0360 ca        1 L59      0.015000
     21 C15        -6.9990    0.6690   -0.3410 ca        1 L59     -0.102000
     22 C14        -8.3710    0.4620   -0.2120 ca        1 L59     -0.134000
     23 C13        -8.8550   -0.7460    0.2910 ca        1 L59     -0.117000
     24 C12        -7.9650   -1.7510    0.6660 ca        1 L59     -0.134000
     25 C11        -6.5910   -1.5550    0.5410 ca        1 L59     -0.102000
     26 H13         6.4510   -0.4220   -1.2140 hn        1 L59      0.306500
     27 H14         5.9290   -3.0460   -1.2350 ho        1 L59      0.436000
     28 H1          4.6030    1.0970   -0.7670 h1        1 L59      0.122700
     29 H2          4.7030    0.5610    2.3080 h1        1 L59      0.049700
     30 H18         3.8740    2.5840    1.5440 ho        1 L59      0.414000
     31 H17         6.9350    1.2940    0.2640 hc        1 L59      0.053700
     32 H16         7.0740    1.4970    2.0550 hc        1 L59      0.053700
     33 H15         6.8570   -0.1670    1.3570 hc        1 L59      0.053700
     34 H3          2.5440   -0.1750    0.9530 hn        1 L59      0.319500
     35 H7          0.1140    2.6030   -1.3600 ha        1 L59      0.150000
     36 H6         -2.3520    2.2540   -1.1250 ha        1 L59      0.146500
     37 H5         -1.6240   -1.7320    0.4150 ha        1 L59      0.146500
     38 H4          0.8180   -1.3820    0.1900 ha        1 L59      0.150000
     39 H12        -6.6180    1.6220   -0.7370 ha        1 L59      0.139500
     40 H11        -9.0730    1.2560   -0.5080 ha        1 L59      0.136000
     41 H10        -9.9390   -0.9050    0.3910 ha        1 L59      0.135000
     42 H9         -8.3460   -2.7040    1.0620 ha        1 L59      0.136000
     43 H8         -5.8900   -2.3490    0.8370 ha        1 L59      0.139500
@<TRIPOS>BOND
     1    1    2 2   
     2    2    3 1   
     3    2    5 1   
     4    3    4 1   
     5    3   26 1   
     6    4   27 1   
     7    5    6 1   
     8    5    9 1   
     9    5   28 1   
    10    6    7 1   
    11    6    8 1   
    12    6   29 1   
    13    7   30 1   
    14    8   31 1   
    15    8   32 1   
    16    8   33 1   
    17    9   10 1   
    18    9   34 1   
    19   10   11 2   
    20   10   12 1   
    21   12   13 ar  
    22   12   17 ar  
    23   13   14 ar  
    24   13   35 1   
    25   14   15 ar  
    26   14   36 1   
    27   15   16 ar  
    28   15   18 1   
    29   16   17 ar  
    30   16   37 1   
    31   17   38 1   
    32   18   19 3   
    33   19   20 1   
    34   20   21 ar  
    35   20   25 ar  
    36   21   22 ar  
    37   21   39 1   
    38   22   23 ar  
    39   22   40 1   
    40   23   24 ar  
    41   23   41 1   
    42   24   25 ar  
    43   24   42 1   
    44   25   43 1   
@<TRIPOS>SUBSTRUCTURE
     1 L59         1 TEMP              0 ****  ****    0 ROOT
