@<TRIPOS>MOLECULE
L5G
   46    38     1     0     0
SMALL
bcc


@<TRIPOS>ATOM
      1 N1          2.5250    1.8590   -0.1030 n1        1 L5G     -0.360800
      2 N3          2.2290   -1.3890    1.1950 ne        1 L5G     -0.274400
      3 C4          4.0330    3.6460   -0.0370 c1        1 L5G     -0.055000
      4 C5          4.8010    3.9090   -1.1680 c1        1 L5G     -0.064000
      5 C6          5.1580    5.2150   -1.4760 c1        1 L5G     -0.064000
      6 C7          3.7330    2.3120    0.3180 c1        1 L5G      0.341800
      7 C8          4.5380    1.5080    1.0970 c1        1 L5G     -0.064000
      8 C10         2.8760   -0.2090    1.0120 c1        1 L5G      0.343800
      9 C13        -2.3700   -1.0600   -1.1330 c1        1 L5G      0.167600
     10 C15        -4.4810   -0.1150   -1.7420 c1        1 L5G     -0.064000
     11 C17        -4.4050   -2.2720   -0.7190 cg        1 L5G      0.375800
     12 C20        -2.9560   -4.3880    0.3840 c1        1 L5G     -0.064000
     13 C21        -2.2960   -3.2550   -0.0960 c1        1 L5G     -0.064000
     14 C22        -5.2550   -5.8170    2.0640 c3        1 L5G      0.113700
     15 O2         -4.9860   -5.6850    0.6660 os        1 L5G     -0.309400
     16 C19        -4.3540   -4.4670    0.3140 c1        1 L5G      0.121600
     17 C18        -5.0770   -3.4260   -0.2300 c1        1 L5G     -0.095500
     18 C16        -3.0300   -2.1950   -0.6490 cg        1 L5G     -0.124000
     19 N5         -5.1290   -1.2290   -1.2660 n1        1 L5G     -0.481800
     20 C14        -3.0890   -0.0320   -1.6730 c1        1 L5G     -0.064000
     21 O1         -0.9440   -1.1180   -1.1220 os        1 L5G     -0.291400
     22 C12        -0.3290    0.1150   -0.8630 c3        1 L5G      0.138100
     23 C11         0.9550   -0.1110   -0.0400 cf        1 L5G      0.467300
     24 N2          2.0940    0.5800    0.2520 nf        1 L5G     -0.505700
     25 N4          1.0410   -1.3210    0.5410 ne        1 L5G     -0.320700
     26 C9          4.1190    0.2550    1.4450 c1        1 L5G     -0.064000
     27 C3          3.6240    4.6880    0.7840 c1        1 L5G     -0.048500
     28 C2          3.9800    5.9940    0.4780 c1        1 L5G     -0.064000
     29 C1          4.7480    6.2600   -0.6530 c1        1 L5G     -0.064000
     30 H5          5.0840    3.1860   -1.7370 ha        1 L5G      0.093600
     31 H6          5.7060    5.4030   -2.2820 ha        1 L5G      0.093600
     32 H8          5.3920    1.8280    1.3950 ha        1 L5G      0.093600
     33 H15        -4.9970    0.6230   -2.1320 ha        1 L5G      0.093600
     34 H20        -2.4430   -5.1510    0.6970 ha        1 L5G      0.093600
     35 H21        -1.3170   -3.2010   -0.0470 ha        1 L5G      0.093600
     36 H22        -4.4200   -6.0950    2.5390 h1        1 L5G      0.045033
     37 H22A       -5.9410   -6.4870    2.1980 h1        1 L5G      0.045033
     38 H22B       -5.5590   -4.9690    2.4160 h1        1 L5G      0.045033
     39 H18        -6.0680   -3.4820   -0.2790 ha        1 L5G      0.109500
     40 H14        -2.6260    0.7690   -2.0140 ha        1 L5G      0.093600
     41 H12        -0.1000    0.5590   -1.7230 h1        1 L5G      0.088200
     42 H12A       -0.9240    0.6660   -0.3730 h1        1 L5G      0.088200
     43 H9          4.6840   -0.3110    1.9930 ha        1 L5G      0.093600
     44 H3          3.0900    4.5030    1.5710 ha        1 L5G      0.081500
     45 H2          3.6890    6.7350    1.0630 ha        1 L5G      0.093600
     46 H1          4.9960    7.1700   -0.8660 ha        1 L5G      0.093600
@<TRIPOS>BOND
     1    1    6 3   
     2    2    8 2   
     3    2   25 1   
     4    3   27 3   
     5    4    5 3   
     6    4   30 1   
     7    5   31 1   
     8    7   26 3   
     9    7   32 1   
    10    8   24 2   
    11    9   18 3   
    12    9   21 1   
    13   10   20 3   
    14   10   33 1   
    15   11   18 1   
    16   11   19 3   
    17   12   13 3   
    18   12   34 1   
    19   13   35 1   
    20   14   15 1   
    21   14   36 1   
    22   14   37 1   
    23   14   38 1   
    24   15   16 1   
    25   16   17 3   
    26   17   39 1   
    27   20   40 1   
    28   21   22 1   
    29   22   23 1   
    30   22   41 1   
    31   22   42 1   
    32   23   24 1   
    33   23   25 2   
    34   26   43 1   
    35   27   44 1   
    36   28   29 3   
    37   28   45 1   
    38   29   46 1   
@<TRIPOS>SUBSTRUCTURE
     1 L5G         1 TEMP              0 ****  ****    0 ROOT
