@<TRIPOS>MOLECULE
L5G
   46    50     1     0     0
SMALL
bcc


@<TRIPOS>ATOM
      1 N1         -2.3420    0.6190    0.1360 nc        1 L5G     -0.448800
      2 N3         -2.3850    3.9750   -1.0330 nd        1 L5G     -0.057000
      3 C4         -3.6730   -1.3740   -0.2230 ca        1 L5G     -0.162500
      4 C5         -2.6390   -2.3160   -0.1570 ca        1 L5G     -0.097500
      5 C6         -2.9360   -3.6590    0.0780 ca        1 L5G     -0.133500
      6 C7         -3.3840    0.0450   -0.4860 cd        1 L5G      0.446800
      7 C8         -4.2500    0.7560   -1.4130 cd        1 L5G     -0.228300
      8 C10        -2.9150    2.7060   -1.0260 cc        1 L5G     -0.121300
      9 C13         1.9140    1.0620    1.2810 ca        1 L5G      0.191100
     10 C15         3.3120    0.7050    3.2020 ca        1 L5G      0.453200
     11 C17         3.9220   -0.3410    1.2270 ca        1 L5G      0.445600
     12 C20         3.4810   -0.8830   -1.5220 ca        1 L5G     -0.201000
     13 C21         2.6070   -0.0690   -0.8390 ca        1 L5G     -0.053000
     14 C22         5.3460   -2.5150   -2.8270 c3        1 L5G      0.113700
     15 C19         4.5900   -1.4400   -0.8370 ca        1 L5G      0.138100
     16 C18         4.8180   -1.1830    0.5070 ca        1 L5G     -0.217300
     17 C16         2.8030    0.2160    0.5310 ca        1 L5G     -0.193300
     18 N5          4.1590   -0.0840    2.5690 nb        1 L5G     -0.683000
     19 C14         2.1620    1.3150    2.6140 ca        1 L5G     -0.359300
     20 O1          0.8510    1.5590    0.5620 os        1 L5G     -0.318900
     21 C11        -1.1240    2.7850    0.3420 cc        1 L5G      0.316800
     22 N2         -2.1160    1.8960   -0.1340 na        1 L5G      0.098300
     23 N4         -1.3470    4.0090   -0.2430 nd        1 L5G     -0.327700
     24 C9         -4.0220    2.0740   -1.6810 cc        1 L5G     -0.036000
     25 C3         -5.0010   -1.7830   -0.0390 ca        1 L5G     -0.097500
     26 C2         -5.2890   -3.1250    0.1990 ca        1 L5G     -0.133500
     27 C1         -4.2580   -4.0640    0.2560 ca        1 L5G     -0.110000
     28 H5         -1.5920   -2.0030   -0.2910 ha        1 L5G      0.143500
     29 H6         -2.1220   -4.3970    0.1270 ha        1 L5G      0.139500
     30 H8         -5.0710    0.1990   -1.8850 ha        1 L5G      0.163000
     31 H15         3.5300    0.8930    4.2710 h4        1 L5G      0.022100
     32 H20         3.3190   -1.0950   -2.5870 ha        1 L5G      0.141000
     33 H21         1.7400    0.3780   -1.3510 ha        1 L5G      0.152000
     34 H22         4.3800   -3.0420   -3.0210 h1        1 L5G      0.045367
     35 H22A        5.3970   -1.5610   -3.4050 h1        1 L5G      0.045367
     36 H22B        6.2120   -3.1770   -3.0820 h1        1 L5G      0.045367
     37 H18         5.6870   -1.6270    1.0150 ha        1 L5G      0.168000
     38 H14         1.5240    1.9570    3.2310 ha        1 L5G      0.147000
     39 H12        -0.4670    1.8510    2.1720 h1        1 L5G      0.076700
     40 H12A        0.5080    3.3290    1.6390 h1        1 L5G      0.076700
     41 H9         -4.6360    2.6710   -2.3710 ha        1 L5G      0.174000
     42 H3         -5.8160   -1.0440   -0.0720 ha        1 L5G      0.143500
     43 H2         -6.3320   -3.4430    0.3450 ha        1 L5G      0.139500
     44 H1         -4.4890   -5.1230    0.4430 ha        1 L5G      0.138000
     45 C12        -0.0440    2.4130    1.2960 c3        1 L5G      0.138100
     46 O2          5.5160   -2.2740   -1.4350 os        1 L5G     -0.324900
@<TRIPOS>BOND
     1    1    6 2   
     2    1   22 1   
     3    2    8 2   
     4    2   23 1   
     5    3    4 ar  
     6    3    6 1   
     7    3   25 ar  
     8    4    5 ar  
     9    4   28 1   
    10    5   27 ar  
    11    5   29 1   
    12    6    7 1   
    13    7   24 2   
    14    7   30 1   
    15    8   22 1   
    16    8   24 1   
    17    9   17 ar  
    18    9   19 ar  
    19    9   20 1   
    20   10   18 ar  
    21   10   19 ar  
    22   10   31 1   
    23   11   16 ar  
    24   11   17 ar  
    25   11   18 ar  
    26   12   13 ar  
    27   12   15 ar  
    28   12   32 1   
    29   13   17 ar  
    30   13   33 1   
    31   14   34 1   
    32   14   35 1   
    33   14   36 1   
    34   14   46 1   
    35   15   16 ar  
    36   15   46 1   
    37   16   37 1   
    38   19   38 1   
    39   20   45 1   
    40   21   22 1   
    41   21   23 2   
    42   21   45 1   
    43   24   41 1   
    44   25   26 ar  
    45   25   42 1   
    46   26   27 ar  
    47   26   43 1   
    48   27   44 1   
    49   39   45 1   
    50   40   45 1   
@<TRIPOS>SUBSTRUCTURE
     1 L5G         1 TEMP              0 ****  ****    0 ROOT
