@<TRIPOS>MOLECULE
L5S
   32    35     1     0     0
SMALL
bcc


@<TRIPOS>ATOM
      1 CAS        -0.0820    0.0770   -0.0760 cc        1 L5S     -0.222900
      2 CAJ         1.3490    0.0700   -0.1250 cc        1 L5S     -0.108000
      3 CAP         1.9100   -0.0040    1.1270 cd        1 L5S     -0.177100
      4 CAU        -0.5420   -0.0030    1.2440 cd        1 L5S      0.004700
      5 NAV        -1.8670   -0.0480    1.6370 na        1 L5S     -0.239800
      6 CAR        -2.4530    0.3810    2.8570 cc        1 L5S      0.372800
      7 CAA        -1.7110    0.9920    3.9810 c3        1 L5S     -0.125400
      8 NAM        -3.7950    0.1370    2.7780 nd        1 L5S     -0.336000
      9 NAN        -4.0880   -0.4030    1.6110 nd        1 L5S     -0.333000
     10 CAT        -2.9510   -0.5430    0.8730 cc        1 L5S      0.363800
     11 CAK        -2.8100   -1.1270   -0.5000 c3        1 L5S      0.091500
     12 NAL        -2.0930   -0.3500   -1.4640 n2        1 L5S     -0.587900
     13 CAO        -0.9180    0.1560   -1.2810 ce        1 L5S      0.560500
     14 CAQ        -0.2950    0.9110   -2.4010 ca        1 L5S     -0.140900
     15 CAF        -0.2690    0.3710   -3.6920 ca        1 L5S     -0.098500
     16 CAD         0.3110    1.0940   -4.7350 ca        1 L5S     -0.137000
     17 CAC         0.8520    2.3560   -4.4980 ca        1 L5S     -0.117000
     18 CAE         0.8170    2.9000   -3.2140 ca        1 L5S     -0.137000
     19 CAG         0.2460    2.1810   -2.1650 ca        1 L5S     -0.098500
     20 S           0.7650   -0.0690    2.3340 ss        1 L5S      0.045200
     21 HAJ         1.9010    0.1270   -1.0680 ha        1 L5S      0.173000
     22 HAP         2.9800   -0.0150    1.3380 h4        1 L5S      0.182000
     23 HAA1       -1.3690    2.0200    3.7000 hc        1 L5S      0.066033
     24 HAA2       -0.8180    0.3710    4.2480 hc        1 L5S      0.066033
     25 HAA3       -2.3750    1.0690    4.8790 hc        1 L5S      0.066033
     26 HAK1       -2.3420   -2.1520   -0.3950 h1        1 L5S      0.089200
     27 HAK2       -3.8480   -1.2610   -0.9300 h1        1 L5S      0.089200
     28 HAF        -0.7100   -0.6180   -3.8860 ha        1 L5S      0.142500
     29 HAG         0.2160    2.6100   -1.1520 ha        1 L5S      0.142500
     30 HAD         0.3330    0.6660   -5.7480 ha        1 L5S      0.135500
     31 HAC         1.3040    2.9260   -5.3240 ha        1 L5S      0.134000
     32 HAE         1.2360    3.8990   -3.0270 ha        1 L5S      0.135500
@<TRIPOS>BOND
     1    1    2 1   
     2    1    4 2   
     3    1   13 1   
     4    2    3 2   
     5    2   21 1   
     6    3   20 1   
     7    3   22 1   
     8    4    5 1   
     9    4   20 1   
    10    5    6 1   
    11    5   10 1   
    12    6    7 1   
    13    6    8 2   
    14    7   23 1   
    15    7   24 1   
    16    7   25 1   
    17    8    9 1   
    18    9   10 2   
    19   10   11 1   
    20   11   12 1   
    21   11   26 1   
    22   11   27 1   
    23   12   13 2   
    24   13   14 1   
    25   14   15 ar  
    26   14   19 ar  
    27   15   16 ar  
    28   15   28 1   
    29   16   17 ar  
    30   16   30 1   
    31   17   18 ar  
    32   17   31 1   
    33   18   19 ar  
    34   18   32 1   
    35   19   29 1   
@<TRIPOS>SUBSTRUCTURE
     1 L5S         1 TEMP              0 ****  ****    0 ROOT
