@<TRIPOS>MOLECULE
L5S
   32    35     1     0     0
SMALL
bcc


@<TRIPOS>ATOM
      1 CAS        -0.0810    0.0780   -0.0770 cc        1 L5S     -0.222900
      2 CAJ         1.3510    0.0740   -0.1280 cc        1 L5S     -0.108000
      3 CAP         1.9140    0.0020    1.1220 cd        1 L5S     -0.177100
      4 CAU        -0.5370   -0.0020    1.2440 cd        1 L5S      0.004700
      5 NAV        -1.8620   -0.0500    1.6400 na        1 L5S     -0.239800
      6 CAR        -2.4460    0.3780    2.8600 cc        1 L5S      0.372800
      7 CAA        -1.7040    0.9920    3.9820 c3        1 L5S     -0.125400
      8 NAM        -3.7870    0.1310    2.7840 nd        1 L5S     -0.336000
      9 NAN        -4.0820   -0.4100    1.6180 nd        1 L5S     -0.333000
     10 CAT        -2.9460   -0.5480    0.8770 cc        1 L5S      0.363800
     11 CAK        -2.8060   -1.1320   -0.4950 c3        1 L5S      0.091500
     12 NAL        -2.0930   -0.3530   -1.4610 n2        1 L5S     -0.587900
     13 CAO        -0.9190    0.1550   -1.2800 ce        1 L5S      0.560500
     14 CAQ        -0.3000    0.9110   -2.4020 ca        1 L5S     -0.140900
     15 CAF        -0.2730    0.3710   -3.6920 ca        1 L5S     -0.098500
     16 CAD         0.3030    1.0940   -4.7370 ca        1 L5S     -0.137000
     17 CAC         0.8410    2.3590   -4.5020 ca        1 L5S     -0.117000
     18 CAE         0.8050    2.9030   -3.2170 ca        1 L5S     -0.137000
     19 CAG         0.2370    2.1830   -2.1680 ca        1 L5S     -0.098500
     20 S           0.7720   -0.0650    2.3320 ss        1 L5S      0.045200
     21 HAJ         1.9010    0.1320   -1.0720 ha        1 L5S      0.173000
     22 HAP         2.9840   -0.0070    1.3320 h4        1 L5S      0.182000
     23 HAA1       -1.3640    2.0200    3.7000 hc        1 L5S      0.066033
     24 HAA2       -2.3660    1.0670    4.8810 hc        1 L5S      0.066033
     25 HAA3       -0.8080    0.3720    4.2480 hc        1 L5S      0.066033
     26 HAK1       -3.8450   -1.2690   -0.9240 h1        1 L5S      0.089200
     27 HAK2       -2.3360   -2.1560   -0.3910 h1        1 L5S      0.089200
     28 HAF        -0.7110   -0.6210   -3.8850 ha        1 L5S      0.142500
     29 HAG         0.2070    2.6130   -1.1550 ha        1 L5S      0.142500
     30 HAD         0.3250    0.6660   -5.7500 ha        1 L5S      0.135500
     31 HAC         1.2890    2.9290   -5.3280 ha        1 L5S      0.134000
     32 HAE         1.2210    3.9040   -3.0320 ha        1 L5S      0.135500
@<TRIPOS>BOND
     1    1    2 1   
     2    1    4 2   
     3    1   13 1   
     4    2    3 2   
     5    2   21 1   
     6    3   20 1   
     7    3   22 1   
     8    4    5 1   
     9    4   20 1   
    10    5    6 1   
    11    5   10 1   
    12    6    7 1   
    13    6    8 2   
    14    7   23 1   
    15    7   24 1   
    16    7   25 1   
    17    8    9 1   
    18    9   10 2   
    19   10   11 1   
    20   11   12 1   
    21   11   26 1   
    22   11   27 1   
    23   12   13 2   
    24   13   14 1   
    25   14   15 ar  
    26   14   19 ar  
    27   15   16 ar  
    28   15   28 1   
    29   16   17 ar  
    30   16   30 1   
    31   17   18 ar  
    32   17   31 1   
    33   18   19 ar  
    34   18   32 1   
    35   19   29 1   
@<TRIPOS>SUBSTRUCTURE
     1 L5S         1 TEMP              0 ****  ****    0 ROOT
