@<TRIPOS>MOLECULE
L5S
   32    35     1     0     0
SMALL
bcc


@<TRIPOS>ATOM
      1 CAS        -0.0790    0.0780   -0.0760 cc        1 L5S     -0.222900
      2 CAJ         1.3530    0.0840   -0.1240 cc        1 L5S     -0.108000
      3 CAP         1.9140    0.0150    1.1270 cd        1 L5S     -0.177100
      4 CAU        -0.5380   -0.0040    1.2440 cd        1 L5S      0.004700
      5 NAV        -1.8630   -0.0600    1.6370 na        1 L5S     -0.239800
      6 CAR        -2.4530    0.3650    2.8560 cc        1 L5S      0.372800
      7 CAA        -1.7160    0.9840    3.9790 c3        1 L5S     -0.125400
      8 NAM        -3.7920    0.1100    2.7770 nd        1 L5S     -0.336000
      9 NAN        -4.0810   -0.4340    1.6110 nd        1 L5S     -0.333000
     10 CAT        -2.9420   -0.5650    0.8720 cc        1 L5S      0.363800
     11 CAK        -2.7960   -1.1490   -0.4990 c3        1 L5S      0.091500
     12 NAL        -2.0860   -0.3670   -1.4640 n2        1 L5S     -0.587900
     13 CAO        -0.9150    0.1490   -1.2810 ce        1 L5S      0.560500
     14 CAQ        -0.2980    0.9080   -2.4020 ca        1 L5S     -0.140900
     15 CAF        -0.2640    0.3660   -3.6920 ca        1 L5S     -0.098500
     16 CAD         0.3090    1.0920   -4.7360 ca        1 L5S     -0.137000
     17 CAC         0.8380    2.3610   -4.5010 ca        1 L5S     -0.117000
     18 CAE         0.7940    2.9070   -3.2170 ca        1 L5S     -0.137000
     19 CAG         0.2290    2.1840   -2.1680 ca        1 L5S     -0.098500
     20 S           0.7690   -0.0580    2.3340 ss        1 L5S      0.045200
     21 HAJ         1.9050    0.1430   -1.0670 ha        1 L5S      0.173000
     22 HAP         2.9830    0.0140    1.3390 h4        1 L5S      0.182000
     23 HAA1       -1.3820    2.0140    3.6970 hc        1 L5S      0.066033
     24 HAA2       -2.3810    1.0560    4.8770 hc        1 L5S      0.066033
     25 HAA3       -0.8180    0.3700    4.2470 hc        1 L5S      0.066033
     26 HAK1       -2.3200   -2.1700   -0.3930 h1        1 L5S      0.089200
     27 HAK2       -3.8330   -1.2930   -0.9300 h1        1 L5S      0.089200
     28 HAF        -0.6950   -0.6280   -3.8840 ha        1 L5S      0.142500
     29 HAG         0.1930    2.6150   -1.1560 ha        1 L5S      0.142500
     30 HAD         0.3370    0.6630   -5.7480 ha        1 L5S      0.135500
     31 HAC         1.2840    2.9340   -5.3270 ha        1 L5S      0.134000
     32 HAE         1.2030    3.9110   -3.0310 ha        1 L5S      0.135500
@<TRIPOS>BOND
     1    1    2 1   
     2    1    4 2   
     3    1   13 1   
     4    2    3 2   
     5    2   21 1   
     6    3   20 1   
     7    3   22 1   
     8    4    5 1   
     9    4   20 1   
    10    5    6 1   
    11    5   10 1   
    12    6    7 1   
    13    6    8 2   
    14    7   23 1   
    15    7   24 1   
    16    7   25 1   
    17    8    9 1   
    18    9   10 2   
    19   10   11 1   
    20   11   12 1   
    21   11   26 1   
    22   11   27 1   
    23   12   13 2   
    24   13   14 1   
    25   14   15 ar  
    26   14   19 ar  
    27   15   16 ar  
    28   15   28 1   
    29   16   17 ar  
    30   16   30 1   
    31   17   18 ar  
    32   17   31 1   
    33   18   19 ar  
    34   18   32 1   
    35   19   29 1   
@<TRIPOS>SUBSTRUCTURE
     1 L5S         1 TEMP              0 ****  ****    0 ROOT
