@<TRIPOS>MOLECULE
L5S
   32    35     1     0     0
SMALL
bcc


@<TRIPOS>ATOM
      1 CAS        -0.1820   -0.5940    0.4680 cc        1 L5S     -0.222900
      2 CAJ        -0.7340   -1.8730    0.8020 cc        1 L5S     -0.108000
      3 CAP         0.2160   -2.8660    0.7930 cd        1 L5S     -0.177100
      4 CAU         1.1940   -0.6870    0.2260 cd        1 L5S      0.004700
      5 NAV         2.0320    0.3670   -0.0910 na        1 L5S     -0.239800
      6 CAR         3.2410    0.3550   -0.8340 cc        1 L5S      0.372800
      7 CAA         3.8480   -0.8500   -1.4390 c3        1 L5S     -0.125400
      8 NAM         3.7060    1.6390   -0.8850 nd        1 L5S     -0.336000
      9 NAN         2.8830    2.4440   -0.2410 nd        1 L5S     -0.333000
     10 CAT         1.8430    1.7230    0.2680 cc        1 L5S      0.363800
     11 CAK         0.6910    2.2210    1.0850 c3        1 L5S      0.091500
     12 NAL        -0.6200    1.8400    0.6560 n2        1 L5S     -0.587900
     13 CAO        -0.9920    0.6280    0.4030 ce        1 L5S      0.560500
     14 CAQ        -2.4060    0.3980   -0.0010 ca        1 L5S     -0.140900
     15 CAF        -3.4540    0.9580    0.7370 ca        1 L5S     -0.098500
     16 CAD        -4.7750    0.7410    0.3430 ca        1 L5S     -0.137000
     17 CAC        -5.0520   -0.0230   -0.7900 ca        1 L5S     -0.117000
     18 CAE        -4.0060   -0.5730   -1.5320 ca        1 L5S     -0.137000
     19 CAG        -2.6850   -0.3660   -1.1410 ca        1 L5S     -0.098500
     20 S           1.7300   -2.2950    0.4030 ss        1 L5S      0.045200
     21 HAJ        -1.7960   -2.0100    1.0250 ha        1 L5S      0.173000
     22 HAP         0.0280   -3.9180    1.0080 h4        1 L5S      0.182000
     23 HAA1        3.2290   -1.1970   -2.3040 hc        1 L5S      0.066033
     24 HAA2        4.8780   -0.6130   -1.8080 hc        1 L5S      0.066033
     25 HAA3        3.9200   -1.6770   -0.6870 hc        1 L5S      0.066033
     26 HAK1        0.8620    1.9020    2.1580 h1        1 L5S      0.089200
     27 HAK2        0.7030    3.3520    1.0530 h1        1 L5S      0.089200
     28 HAF        -3.2380    1.5750    1.6230 ha        1 L5S      0.142500
     29 HAG        -1.8600   -0.7990   -1.7260 ha        1 L5S      0.142500
     30 HAD        -5.5970    1.1810    0.9260 ha        1 L5S      0.135500
     31 HAC        -6.0940   -0.1880   -1.1020 ha        1 L5S      0.134000
     32 HAE        -4.2230   -1.1690   -2.4310 ha        1 L5S      0.135500
@<TRIPOS>BOND
     1    1    2 1   
     2    1    4 2   
     3    1   13 1   
     4    2    3 2   
     5    2   21 1   
     6    3   20 1   
     7    3   22 1   
     8    4    5 1   
     9    4   20 1   
    10    5    6 1   
    11    5   10 1   
    12    6    7 1   
    13    6    8 2   
    14    7   23 1   
    15    7   24 1   
    16    7   25 1   
    17    8    9 1   
    18    9   10 2   
    19   10   11 1   
    20   11   12 1   
    21   11   26 1   
    22   11   27 1   
    23   12   13 2   
    24   13   14 1   
    25   14   15 ar  
    26   14   19 ar  
    27   15   16 ar  
    28   15   28 1   
    29   16   17 ar  
    30   16   30 1   
    31   17   18 ar  
    32   17   31 1   
    33   18   19 ar  
    34   18   32 1   
    35   19   29 1   
@<TRIPOS>SUBSTRUCTURE
     1 L5S         1 TEMP              0 ****  ****    0 ROOT
