@<TRIPOS>MOLECULE
L5V
   16    17     1     0     0
SMALL
bcc


@<TRIPOS>ATOM
      1 CL1         0.0250    0.2380    0.0040 cl        1 L5V     -0.128000
      2 C2          1.7230    0.0980   -0.0310 ca        1 L5V      0.368000
      3 C3          2.4240   -0.0250    1.2040 ca        1 L5V      0.298900
      4 N4          3.7630   -0.1360    1.2400 nb        1 L5V     -0.624000
      5 C5          4.4100   -0.1270    0.0590 ca        1 L5V      0.314900
      6 C6          3.7120   -0.0050   -1.1800 ca        1 L5V      0.292000
      7 N7          2.3590    0.1100   -1.2250 nb        1 L5V     -0.599000
      8 C8          4.4700   -0.0040   -2.4360 cc        1 L5V      0.446000
      9 N9          3.9450   -0.2640   -3.6820 nd        1 L5V     -0.459800
     10 N10         4.9790   -0.1540   -4.5110 na        1 L5V     -0.159400
     11 C11         6.1510    0.1760   -3.8040 cd        1 L5V      0.405400
     12 N12         5.8600    0.2750   -2.4930 nc        1 L5V     -0.670000
     13 H3          1.8910   -0.0340    2.1710 h4        1 L5V      0.048100
     14 H5          5.5110   -0.2150    0.0970 h4        1 L5V      0.059100
     15 H10         4.8620   -0.2920   -5.4880 hn        1 L5V      0.332700
     16 H11         7.1280    0.3220   -4.2760 h5        1 L5V      0.077100
@<TRIPOS>BOND
     1    1    2 1   
     2    2    3 ar  
     3    2    7 ar  
     4    3    4 ar  
     5    3   13 1   
     6    4    5 ar  
     7    5    6 ar  
     8    5   14 1   
     9    6    7 ar  
    10    6    8 1   
    11    8    9 2   
    12    8   12 1   
    13    9   10 1   
    14   10   11 1   
    15   10   15 1   
    16   11   12 2   
    17   11   16 1   
@<TRIPOS>SUBSTRUCTURE
     1 L5V         1 TEMP              0 ****  ****    0 ROOT
