@<TRIPOS>MOLECULE
L5Y
   35    37     1     0     0
SMALL
bcc


@<TRIPOS>ATOM
      1 O1         -0.0870   -0.3020    0.0320 oh        1 L5Y     -0.608800
      2 C2          1.2880    0.0390   -0.0260 c3        1 L5Y      0.119400
      3 C3          1.8340   -0.0080    1.4070 c3        1 L5Y      0.188800
      4 N4          1.7680   -1.3290    1.9860 nu        1 L5Y     -0.727600
      5 C5          2.0520   -1.4900    3.3400 ca        1 L5Y      0.192600
      6 C6          1.6620   -2.6770    4.0130 ca        1 L5Y     -0.265300
      7 C7          2.0450   -2.8720    5.3530 ca        1 L5Y      0.452000
      8 N8          2.7790   -1.9640    6.0530 nb        1 L5Y     -0.660000
      9 C9          3.1340   -0.8410    5.4020 ca        1 L5Y      0.369600
     10 C10         2.8060   -0.5420    4.0730 ca        1 L5Y     -0.273300
     11 C11         3.9610    0.1840    6.2110 c3        1 L5Y      0.596600
     12 F12         5.1440   -0.3090    6.6970 f         1 L5Y     -0.230967
     13 F13         4.3270    1.2970    5.4940 f         1 L5Y     -0.230967
     14 F14         3.3100    0.6870    7.3070 f         1 L5Y     -0.230967
     15 C15         1.6480   -4.0990    6.0480 cc        1 L5Y      0.268900
     16 N16         0.6450   -4.9210    5.6280 nd        1 L5Y     -0.491100
     17 N17         0.5610   -5.9520    6.4640 na        1 L5Y      0.002900
     18 C18         1.4850   -5.8500    7.5130 ca        1 L5Y     -0.188500
     19 C19         1.7900   -6.6550    8.6360 ca        1 L5Y      0.398200
     20 N20         2.7640   -6.3080    9.4790 nb        1 L5Y     -0.642000
     21 C21         3.4660   -5.1680    9.2440 ca        1 L5Y      0.354200
     22 C22         3.2530   -4.2990    8.1670 ca        1 L5Y     -0.155300
     23 C23         2.2380   -4.6370    7.2720 ca        1 L5Y     -0.145900
     24 HO1        -0.4250   -0.2520   -0.8700 ho        1 L5Y      0.411000
     25 H2          1.8360   -0.6780   -0.6930 h1        1 L5Y      0.038700
     26 H2A         1.4130    1.0830   -0.4210 h1        1 L5Y      0.038700
     27 H3          1.2630    0.7410    2.0300 h1        1 L5Y      0.053700
     28 H3A         2.9150    0.3100    1.3740 h1        1 L5Y      0.053700
     29 HN4         1.0010   -1.8790    1.6530 hn        1 L5Y      0.425800
     30 H6          1.0690   -3.4420    3.4900 ha        1 L5Y      0.165000
     31 H10         3.1370    0.4050    3.6240 ha        1 L5Y      0.163000
     32 HN17       -0.1780   -6.6100    6.3780 hn        1 L5Y      0.331700
     33 H19         1.2410   -7.5860    8.8530 h4        1 L5Y      0.026100
     34 H21         4.2530   -4.9520    9.9890 h4        1 L5Y      0.027100
     35 H22         3.8590   -3.3910    8.0410 ha        1 L5Y      0.172000
@<TRIPOS>BOND
     1    1    2 1   
     2    1   24 1   
     3    2    3 1   
     4    2   25 1   
     5    2   26 1   
     6    3    4 1   
     7    3   27 1   
     8    3   28 1   
     9    4    5 1   
    10    4   29 1   
    11    5    6 ar  
    12    5   10 ar  
    13    6    7 ar  
    14    6   30 1   
    15    7    8 ar  
    16    7   15 1   
    17    8    9 ar  
    18    9   10 ar  
    19    9   11 1   
    20   10   31 1   
    21   11   12 1   
    22   11   13 1   
    23   11   14 1   
    24   15   16 2   
    25   15   23 1   
    26   16   17 1   
    27   17   18 1   
    28   17   32 1   
    29   18   19 ar  
    30   18   23 ar  
    31   19   20 ar  
    32   19   33 1   
    33   20   21 ar  
    34   21   22 ar  
    35   21   34 1   
    36   22   23 ar  
    37   22   35 1   
@<TRIPOS>SUBSTRUCTURE
     1 L5Y         1 TEMP              0 ****  ****    0 ROOT
