@<TRIPOS>MOLECULE
L5Y
   36    38     1     0     0
SMALL
bcc


@<TRIPOS>ATOM
      1 O1          0.7960    0.7870    0.0870 oh        1 L5Y     -0.632800
      2 C2          1.3930   -0.4740   -0.1520 c3        1 L5Y      0.106400
      3 C3          1.9970   -0.9420    1.1790 c3        1 L5Y      0.100800
      4 N4          1.0050   -0.8630    2.2990 n4        1 L5Y     -0.632400
      5 C5          1.6010   -1.2170    3.5900 ca        1 L5Y     -0.001400
      6 C6          1.4370   -2.5090    4.1070 ca        1 L5Y     -0.208300
      7 C7          2.0230   -2.8090    5.3690 ca        1 L5Y      0.499000
      8 N8          2.7290   -1.8830    6.0730 nb        1 L5Y     -0.590000
      9 C9          2.8650   -0.6550    5.5450 ca        1 L5Y      0.374600
     10 C10         2.3270   -0.2530    4.3070 ca        1 L5Y     -0.213300
     11 C11         3.6790    0.3780    6.3750 c3        1 L5Y      0.604600
     12 F12         4.9710   -0.0070    6.5980 f         1 L5Y     -0.208633
     13 F13         3.7670    1.6020    5.7640 f         1 L5Y     -0.208633
     14 F14         3.1390    0.6270    7.6060 f         1 L5Y     -0.208633
     15 C15         1.8690   -4.1400    5.9350 cc        1 L5Y      0.203900
     16 N16         1.2000   -5.1580    5.2990 nd        1 L5Y     -0.481100
     17 N17         1.2370   -6.2280    6.0650 na        1 L5Y      0.046900
     18 C18         1.9310   -5.9960    7.2650 ca        1 L5Y     -0.204500
     19 C19         2.2400   -6.8010    8.3880 ca        1 L5Y      0.428200
     20 N20         2.9340   -6.2980    9.4090 nb        1 L5Y     -0.627000
     21 C21         3.3430   -5.0020    9.3610 ca        1 L5Y      0.390200
     22 C22         3.0950   -4.1190    8.3030 ca        1 L5Y     -0.177300
     23 C23         2.3700   -4.6170    7.2190 ca        1 L5Y     -0.123900
     24 HO1         0.7420    1.2580   -0.7550 ho        1 L5Y      0.457000
     25 H2          2.2230   -0.4100   -0.9050 h1        1 L5Y      0.076700
     26 H2A         0.6100   -1.1930   -0.5170 h1        1 L5Y      0.076700
     27 H3          2.3500   -2.0060    1.0830 hx        1 L5Y      0.117700
     28 H3A         2.8690   -0.2830    1.4560 hx        1 L5Y      0.117700
     29 HN4         0.6450    0.1050    2.3400 hn        1 L5Y      0.470300
     30 H6          0.8690   -3.2850    3.5690 ha        1 L5Y      0.184000
     31 H10         2.4800    0.7770    3.9440 ha        1 L5Y      0.188000
     32 HN17        0.8010   -7.0770    5.7770 hn        1 L5Y      0.347700
     33 H19         1.9230   -7.8560    8.4600 h4        1 L5Y      0.043100
     34 H21         3.9130   -4.6670   10.2490 h4        1 L5Y      0.043100
     35 H22         3.4600   -3.0830    8.3380 ha        1 L5Y      0.171000
     36 H42         0.2150   -1.4890    2.1010 hn        1 L5Y      0.470300
@<TRIPOS>BOND
     1    1    2 1   
     2    1   24 1   
     3    2    3 1   
     4    2   25 1   
     5    2   26 1   
     6    3    4 1   
     7    3   27 1   
     8    3   28 1   
     9    4    5 1   
    10    4   29 1   
    11    4   36 1   
    12    5    6 ar  
    13    5   10 ar  
    14    6    7 ar  
    15    6   30 1   
    16    7    8 ar  
    17    7   15 1   
    18    8    9 ar  
    19    9   10 ar  
    20    9   11 1   
    21   10   31 1   
    22   11   12 1   
    23   11   13 1   
    24   11   14 1   
    25   15   16 2   
    26   15   23 1   
    27   16   17 1   
    28   17   18 1   
    29   17   32 1   
    30   18   19 ar  
    31   18   23 ar  
    32   19   20 ar  
    33   19   33 1   
    34   20   21 ar  
    35   21   22 ar  
    36   21   34 1   
    37   22   23 ar  
    38   22   35 1   
@<TRIPOS>SUBSTRUCTURE
     1 L5Y         1 TEMP              0 ****  ****    0 ROOT
