@<TRIPOS>MOLECULE
L5Y
   35    37     1     0     0
SMALL
bcc


@<TRIPOS>ATOM
      1 O1         -0.0720   -0.3110    0.0210 oh        1 L5Y     -0.608800
      2 C2          1.3040    0.0270   -0.0350 c3        1 L5Y      0.119400
      3 C3          1.8460   -0.0180    1.3990 c3        1 L5Y      0.188800
      4 N4          1.7770   -1.3370    1.9820 nh        1 L5Y     -0.727600
      5 C5          2.0580   -1.4950    3.3370 ca        1 L5Y      0.192600
      6 C6          1.6630   -2.6780    4.0120 ca        1 L5Y     -0.264300
      7 C7          2.0430   -2.8700    5.3540 ca        1 L5Y      0.452000
      8 N8          2.7770   -1.9620    6.0530 nb        1 L5Y     -0.660000
      9 C9          3.1360   -0.8410    5.4000 ca        1 L5Y      0.369600
     10 C10         2.8110   -0.5450    4.0690 ca        1 L5Y     -0.273300
     11 C11         3.9630    0.1840    6.2070 c3        1 L5Y      0.596600
     12 F12         5.1440   -0.3090    6.6970 f         1 L5Y     -0.230967
     13 F13         4.3320    1.2950    5.4890 f         1 L5Y     -0.230967
     14 F14         3.3100    0.6910    7.3010 f         1 L5Y     -0.230967
     15 C15         1.6430   -4.0950    6.0510 cc        1 L5Y      0.268900
     16 N16         0.6380   -4.9160    5.6320 nd        1 L5Y     -0.491100
     17 N17         0.5510   -5.9450    6.4710 na        1 L5Y      0.002900
     18 C18         1.4730   -5.8410    7.5220 ca        1 L5Y     -0.188500
     19 C19         1.7730   -6.6430    8.6470 ca        1 L5Y      0.398200
     20 N20         2.7460   -6.2960    9.4920 nb        1 L5Y     -0.642000
     21 C21         3.4500   -5.1570    9.2550 ca        1 L5Y      0.354200
     22 C22         3.2420   -4.2910    8.1750 ca        1 L5Y     -0.155300
     23 C23         2.2290   -4.6300    7.2790 ca        1 L5Y     -0.145900
     24 HO1        -0.4090   -0.2620   -0.8810 ho        1 L5Y      0.411000
     25 H2          1.8510   -0.6940   -0.6990 h1        1 L5Y      0.038700
     26 H2A         1.4320    1.0690   -0.4320 h1        1 L5Y      0.038700
     27 H3          1.2750    0.7340    2.0190 h1        1 L5Y      0.053700
     28 H3A         2.9280    0.2990    1.3670 h1        1 L5Y      0.053700
     29 HN4         1.0090   -1.8860    1.6490 hn        1 L5Y      0.425800
     30 H6          1.0700   -3.4440    3.4910 ha        1 L5Y      0.165000
     31 H10         3.1450    0.3990    3.6180 ha        1 L5Y      0.163000
     32 HN17       -0.1890   -6.6010    6.3850 hn        1 L5Y      0.331700
     33 H19         1.2220   -7.5730    8.8660 h4        1 L5Y      0.026100
     34 H21         4.2370   -4.9410   10.0010 h4        1 L5Y      0.027100
     35 H22         3.8500   -3.3850    8.0480 ha        1 L5Y      0.172000
@<TRIPOS>BOND
     1    1    2 1   
     2    1   24 1   
     3    2    3 1   
     4    2   25 1   
     5    2   26 1   
     6    3    4 1   
     7    3   27 1   
     8    3   28 1   
     9    4    5 1   
    10    4   29 1   
    11    5    6 ar  
    12    5   10 ar  
    13    6    7 ar  
    14    6   30 1   
    15    7    8 ar  
    16    7   15 1   
    17    8    9 ar  
    18    9   10 ar  
    19    9   11 1   
    20   10   31 1   
    21   11   12 1   
    22   11   13 1   
    23   11   14 1   
    24   15   16 2   
    25   15   23 1   
    26   16   17 1   
    27   17   18 1   
    28   17   32 1   
    29   18   19 ar  
    30   18   23 ar  
    31   19   20 ar  
    32   19   33 1   
    33   20   21 ar  
    34   21   22 ar  
    35   21   34 1   
    36   22   23 ar  
    37   22   35 1   
@<TRIPOS>SUBSTRUCTURE
     1 L5Y         1 TEMP              0 ****  ****    0 ROOT
