@<TRIPOS>MOLECULE
L5Z
   46    49     1     0     0
SMALL
bcc


@<TRIPOS>ATOM
      1 N01         0.5750   -2.6010    1.1300 nc        1 L5Z     -0.639000
      2 C02         1.7630   -2.0280    0.9220 cd        1 L5Z      0.427400
      3 N03         2.0940   -1.1410    1.9860 na        1 L5Z     -0.269700
      4 C04         1.0140   -1.1950    2.8990 cd        1 L5Z     -0.201600
      5 C05         0.0970   -2.0940    2.3530 cc        1 L5Z      0.310200
      6 C1'         7.9640   -1.9970   -6.8490 ca        1 L5Z     -0.082300
      7 N11         4.1880   -0.4460    1.0830 nb        1 L5Z     -0.762000
      8 C12         3.2600   -0.3680    2.1080 ca        1 L5Z      0.786500
      9 N13         3.4010    0.4220    3.2460 nb        1 L5Z     -0.690000
     10 C14         4.5220    1.1460    3.3280 ca        1 L5Z      0.481200
     11 C15         5.5280    1.1360    2.3360 ca        1 L5Z     -0.384600
     12 C16         5.3040    0.3090    1.2210 ca        1 L5Z      0.452600
     13 C17         6.3710    0.2600    0.1620 c3        1 L5Z     -0.158700
     14 C18         5.8730   -0.3770   -1.1300 c3        1 L5Z      0.115800
     15 N19         6.9150   -0.3600   -2.2060 ny        1 L5Z     -0.728000
     16 C2'         7.5120   -3.1830   -7.4320 ca        1 L5Z     -0.159000
     17 C21         6.4390   -1.0160   -3.4350 cx        1 L5Z     -0.018500
     18 C22         6.6850   -2.4890   -3.6800 cx        1 L5Z     -0.095400
     19 C23         7.4280   -1.4750   -4.4990 cx        1 L5Z     -0.069700
     20 C24         7.0690   -1.2310   -5.9360 c3        1 L5Z     -0.017100
     21 C3'         8.3580   -3.8910   -8.3060 ca        1 L5Z      0.141900
     22 C4'         9.6490   -3.4090   -8.5950 ca        1 L5Z     -0.147000
     23 C5'        10.0790   -2.2230   -8.0080 ca        1 L5Z     -0.094000
     24 C6'         9.2460   -1.5180   -7.1390 ca        1 L5Z     -0.145000
     25 F7'         7.9230   -5.0410   -8.8700 f         1 L5Z     -0.124900
     26 H02         2.4250   -2.1940    0.0670 h5        1 L5Z      0.066100
     27 H04         0.9980   -0.6100    3.8190 h4        1 L5Z      0.207000
     28 H05        -0.8680   -2.4100    2.7510 h4        1 L5Z      0.063100
     29 H14         4.6240    1.7710    4.2380 h4        1 L5Z      0.056100
     30 H15         6.4330    1.7440    2.4410 ha        1 L5Z      0.167000
     31 H17         6.7200    1.3120   -0.0260 hc        1 L5Z      0.080200
     32 H17A        7.2370   -0.3250    0.5790 hc        1 L5Z      0.080200
     33 H18         5.5840   -1.4540   -0.9570 hx        1 L5Z      0.123700
     34 H18A        4.9690    0.1770   -1.5160 hx        1 L5Z      0.123700
     35 HN19        7.7600   -0.8340   -1.8660 hn        1 L5Z      0.447800
     36 H2'         6.5030   -3.5680   -7.2280 ha        1 L5Z      0.149000
     37 H21         5.4690   -0.5710   -3.7580 hx        1 L5Z      0.146700
     38 H22         7.2440   -3.0910   -2.9390 hc        1 L5Z      0.112200
     39 H22A        5.8610   -3.0710   -4.1390 hc        1 L5Z      0.112200
     40 H23         8.5170   -1.3550   -4.3090 hc        1 L5Z      0.105700
     41 H24         7.1670   -0.1320   -6.1530 hc        1 L5Z      0.068200
     42 H24A        5.9970   -1.5150   -6.1200 hc        1 L5Z      0.068200
     43 H4'        10.2990   -3.9690   -9.2840 ha        1 L5Z      0.165000
     44 H5'        11.0850   -1.8370   -8.2360 ha        1 L5Z      0.151000
     45 H6'         9.5960   -0.5760   -6.6910 ha        1 L5Z      0.130000
     46 H192        7.1620    0.6120   -2.4290 hn        1 L5Z      0.447800
@<TRIPOS>BOND
     1    1    2 2   
     2    1    5 1   
     3    2    3 1   
     4    2   26 1   
     5    3    4 1   
     6    3    8 1   
     7    4    5 2   
     8    4   27 1   
     9    5   28 1   
    10    6   16 ar  
    11    6   20 1   
    12    6   24 ar  
    13    7    8 ar  
    14    7   12 ar  
    15    8    9 ar  
    16    9   10 ar  
    17   10   11 ar  
    18   10   29 1   
    19   11   12 ar  
    20   11   30 1   
    21   12   13 1   
    22   13   14 1   
    23   13   31 1   
    24   13   32 1   
    25   14   15 1   
    26   14   33 1   
    27   14   34 1   
    28   15   17 1   
    29   15   35 1   
    30   15   46 1   
    31   16   21 ar  
    32   16   36 1   
    33   17   18 1   
    34   17   19 1   
    35   17   37 1   
    36   18   19 1   
    37   18   38 1   
    38   18   39 1   
    39   19   20 1   
    40   19   40 1   
    41   20   41 1   
    42   20   42 1   
    43   21   22 ar  
    44   21   25 1   
    45   22   23 ar  
    46   22   43 1   
    47   23   24 ar  
    48   23   44 1   
    49   24   45 1   
@<TRIPOS>SUBSTRUCTURE
     1 L5Z         1 TEMP              0 ****  ****    0 ROOT
