@<TRIPOS>MOLECULE
L5Z
   46    49     1     0     0
SMALL
bcc


@<TRIPOS>ATOM
      1 N01         0.3490   -2.1940    0.9740 nc        1 L5Z     -0.639000
      2 C02         1.5590   -1.6680    0.7760 cd        1 L5Z      0.427400
      3 N03         2.0450   -1.0450    1.9610 na        1 L5Z     -0.269700
      4 C04         1.0380   -1.2170    2.9420 cd        1 L5Z     -0.201600
      5 C05         0.0110   -1.9230    2.3130 cc        1 L5Z      0.310200
      6 C1'         7.9300   -2.0560   -6.8520 ca        1 L5Z     -0.082300
      7 N11         4.1250   -0.3410    1.0350 nb        1 L5Z     -0.762000
      8 C12         3.2750   -0.3910    2.1270 ca        1 L5Z      0.786500
      9 N13         3.5570    0.1610    3.3740 nb        1 L5Z     -0.690000
     10 C14         4.7380    0.7770    3.4970 ca        1 L5Z      0.480200
     11 C15         5.6720    0.8800    2.4430 ca        1 L5Z     -0.384600
     12 C16         5.3070    0.2950    1.2180 ca        1 L5Z      0.452600
     13 C17         6.2830    0.4030    0.0790 c3        1 L5Z     -0.157700
     14 C18         5.8360   -0.3820   -1.1490 c3        1 L5Z      0.115800
     15 N19         6.8280   -0.2920   -2.2680 n4        1 L5Z     -0.727000
     16 C2'         7.6380   -3.3330   -7.3360 ca        1 L5Z     -0.159000
     17 C21         6.4070   -1.0870   -3.4340 cx        1 L5Z     -0.018500
     18 C22         6.8560   -2.5220   -3.6040 cx        1 L5Z     -0.095400
     19 C23         7.4120   -1.4660   -4.5140 cx        1 L5Z     -0.069700
     20 C24         6.9670   -1.3690   -5.9440 c3        1 L5Z     -0.017100
     21 C3'         8.5450   -3.9670   -8.2060 ca        1 L5Z      0.141900
     22 C4'         9.7360   -3.3210   -8.5900 ca        1 L5Z     -0.147000
     23 C5'        10.0060   -2.0470   -8.0990 ca        1 L5Z     -0.094000
     24 C6'         9.1130   -1.4150   -7.2350 ca        1 L5Z     -0.145000
     25 F7'         8.2650   -5.2050   -8.6750 f         1 L5Z     -0.124900
     26 H02         2.1330   -1.6890   -0.1550 h5        1 L5Z      0.067100
     27 H04         1.1410   -0.8350    3.9580 h4        1 L5Z      0.207000
     28 H05        -0.9430   -2.2540    2.7290 h4        1 L5Z      0.063100
     29 H14         4.9500    1.2120    4.4940 h4        1 L5Z      0.056100
     30 H15         6.6300    1.3930    2.5820 ha        1 L5Z      0.167000
     31 H17         6.3940    1.4940   -0.1720 hc        1 L5Z      0.080200
     32 H17A        7.2780    0.0260    0.4450 hc        1 L5Z      0.080200
     33 H18         4.8510    0.0140   -1.5320 hx        1 L5Z      0.123700
     34 H18A        5.7070   -1.4740   -0.8960 hx        1 L5Z      0.123700
     35 HN19        6.9270    0.6880   -2.5600 hn        1 L5Z      0.447800
     36 H2'         6.7080   -3.8480   -7.0580 ha        1 L5Z      0.149000
     37 H21         5.3710   -0.8070   -3.7360 hx        1 L5Z      0.146700
     38 H22         7.5250   -2.9890   -2.8560 hc        1 L5Z      0.112200
     39 H22A        6.1100   -3.2450   -3.9900 hc        1 L5Z      0.112200
     40 H23         8.4780   -1.1790   -4.3820 hc        1 L5Z      0.105700
     41 H24         6.8950   -0.2840   -6.2290 hc        1 L5Z      0.068200
     42 H24A        5.9420   -1.8160   -6.0610 hc        1 L5Z      0.068200
     43 H4'        10.4340   -3.8260   -9.2740 ha        1 L5Z      0.165000
     44 H5'        10.9320   -1.5340   -8.4020 ha        1 L5Z      0.151000
     45 H6'         9.3340   -0.4030   -6.8650 ha        1 L5Z      0.130000
     46 H192        7.7430   -0.6200   -1.9380 hn        1 L5Z      0.447800
@<TRIPOS>BOND
     1    1    2 2   
     2    1    5 1   
     3    2    3 1   
     4    2   26 1   
     5    3    4 1   
     6    3    8 1   
     7    4    5 2   
     8    4   27 1   
     9    5   28 1   
    10    6   16 ar  
    11    6   20 1   
    12    6   24 ar  
    13    7    8 ar  
    14    7   12 ar  
    15    8    9 ar  
    16    9   10 ar  
    17   10   11 ar  
    18   10   29 1   
    19   11   12 ar  
    20   11   30 1   
    21   12   13 1   
    22   13   14 1   
    23   13   31 1   
    24   13   32 1   
    25   14   15 1   
    26   14   33 1   
    27   14   34 1   
    28   15   17 1   
    29   15   35 1   
    30   15   46 1   
    31   16   21 ar  
    32   16   36 1   
    33   17   18 1   
    34   17   19 1   
    35   17   37 1   
    36   18   19 1   
    37   18   38 1   
    38   18   39 1   
    39   19   20 1   
    40   19   40 1   
    41   20   41 1   
    42   20   42 1   
    43   21   22 ar  
    44   21   25 1   
    45   22   23 ar  
    46   22   43 1   
    47   23   24 ar  
    48   23   44 1   
    49   24   45 1   
@<TRIPOS>SUBSTRUCTURE
     1 L5Z         1 TEMP              0 ****  ****    0 ROOT
