@<TRIPOS>MOLECULE
L61
   38    38     1     0     0
SMALL
bcc


@<TRIPOS>ATOM
      1 O1          0.3740    1.2180    0.0040 o         1 L61     -0.545100
      2 C2          0.5210    1.2300    1.2290 c         1 L61      0.576900
      3 C3          1.7300    0.6380    1.8950 c3        1 L61     -0.241400
      4 C4          2.3590   -0.5470    1.1570 c3        1 L61      0.215800
      5 N1          2.8190   -0.1600   -0.2390 ny        1 L61     -0.649800
      6 C5          3.0450   -1.3520   -1.1050 c         1 L61      0.621100
      7 O3          4.1280   -1.1730   -1.8850 os        1 L61     -0.407900
      8 C6          4.4260   -2.2720   -2.8100 c3        1 L61      0.154400
      9 O2          2.3210   -2.3380   -1.1050 o         1 L61     -0.431000
     10 C10         3.5050   -1.1070    1.9440 ca        1 L61     -0.189300
     11 C15         3.4720   -2.4490    2.3400 ca        1 L61     -0.103500
     12 C14         4.5160   -2.9730    3.1040 ca        1 L61     -0.116000
     13 C13         5.5940   -2.1650    3.4650 ca        1 L61     -0.079000
     14 C12         5.6310   -0.8270    3.0640 ca        1 L61     -0.116000
     15 C11         4.5890   -0.2970    2.3070 ca        1 L61     -0.103500
     16 C7          5.6970   -1.8460   -3.5330 c3        1 L61     -0.073700
     17 C8          6.9150   -2.0680   -2.6630 c3        1 L61     -0.098600
     18 C9          5.8020   -2.6280   -4.8270 c3        1 L61     -0.098600
     19 HC2        -0.2220    1.7000    1.9110 h4        1 L61      0.058200
     20 H31C        2.4780    1.4610    2.0600 hc        1 L61      0.116200
     21 H32C        1.4400    0.2540    2.9150 hc        1 L61      0.116200
     22 H4          1.5630   -1.3430    1.0010 hx        1 L61      0.130700
     23 H1          3.6890    0.3830   -0.1800 hn        1 L61      0.482300
     24 H61C        3.5520   -2.3750   -3.5030 h1        1 L61      0.079200
     25 H62C        4.5630   -3.2040   -2.2050 h1        1 L61      0.079200
     26 H7          5.6180   -0.7480   -3.7740 hc        1 L61      0.072700
     27 H15         2.6250   -3.0940    2.0570 ha        1 L61      0.139500
     28 H11         4.6220    0.7630    2.0110 ha        1 L61      0.139500
     29 H14         4.4840   -4.0270    3.4220 ha        1 L61      0.161000
     30 H13         6.4170   -2.5810    4.0690 ha        1 L61      0.162000
     31 H12         6.4820   -0.1890    3.3510 ha        1 L61      0.161000
     32 H81C        7.0520   -3.1540   -2.4420 hc        1 L61      0.050700
     33 H82C        7.8300   -1.6980   -3.1860 hc        1 L61      0.050700
     34 H83C        6.8080   -1.5170   -1.6980 hc        1 L61      0.050700
     35 H91C        4.9340   -2.4100   -5.4940 hc        1 L61      0.050700
     36 H92C        5.8330   -3.7260   -4.6250 hc        1 L61      0.050700
     37 H93C        6.7410   -2.3410   -5.3610 hc        1 L61      0.050700
     38 H121        2.0830    0.4170   -0.6910 hn        1 L61      0.482300
@<TRIPOS>BOND
     1    1    2 2   
     2    2    3 1   
     3    2   19 1   
     4    3    4 1   
     5    3   20 1   
     6    3   21 1   
     7    4    5 1   
     8    4   10 1   
     9    4   22 1   
    10    5    6 1   
    11    5   23 1   
    12    5   38 1   
    13    6    7 1   
    14    6    9 2   
    15    7    8 1   
    16    8   16 1   
    17    8   24 1   
    18    8   25 1   
    19   10   11 ar  
    20   10   15 ar  
    21   11   12 ar  
    22   11   27 1   
    23   12   13 ar  
    24   12   29 1   
    25   13   14 ar  
    26   13   30 1   
    27   14   15 ar  
    28   14   31 1   
    29   15   28 1   
    30   16   17 1   
    31   16   18 1   
    32   16   26 1   
    33   17   32 1   
    34   17   33 1   
    35   17   34 1   
    36   18   35 1   
    37   18   36 1   
    38   18   37 1   
@<TRIPOS>SUBSTRUCTURE
     1 L61         1 TEMP              0 ****  ****    0 ROOT
