@<TRIPOS>MOLECULE
L61
   37    34     1     0     0
SMALL
bcc


@<TRIPOS>ATOM
      1 O1         -3.3420    3.5620   -0.2160 o         1 L61     -0.289000
      2 C2         -2.2690    3.3740   -0.9220 c1        1 L61      0.192000
      3 C3         -0.9330    3.0910   -0.2200 c2        1 L61     -0.235000
      4 C4         -0.9770    1.7020    0.4030 c3        1 L61      0.060000
      5 N1          0.1010    0.9370   -0.0720 n         1 L61     -0.327000
      6 C5         -0.1490   -0.3180   -0.7400 c2        1 L61      0.382000
      7 O3          0.9450   -1.0550   -1.3190 os        1 L61     -0.282000
      8 C6          0.5870   -2.2970   -1.8240 c3        1 L61      0.002000
      9 O2         -1.2440   -0.6730   -0.9130 o         1 L61     -0.396000
     10 C10        -0.8810    1.8280    1.9260 c2        1 L61     -0.121000
     11 C15        -1.8830    1.3110    2.7330 c2        1 L61     -0.109000
     12 C14        -1.7590    1.3630    4.1340 c1        1 L61     -0.128000
     13 C13        -0.6830    1.9050    4.6860 c1        1 L61     -0.123500
     14 C12         0.3490    2.4370    3.8670 c1        1 L61     -0.123500
     15 C11         0.2300    2.3880    2.4920 c1        1 L61     -0.122000
     16 C7          1.8350   -2.9700   -2.4620 c3        1 L61     -0.113000
     17 C8          2.2650   -4.1580   -1.6000 c3        1 L61     -0.209500
     18 C9          1.5020   -3.4550   -3.8690 c3        1 L61     -0.209500
     19 HC2        -2.3100    3.4310   -1.8990 ha        1 L61      0.102000
     20 H31C       -0.7850    3.7730    0.4940 ha        1 L61      0.121500
     21 H32C       -0.2190    3.1340   -0.8550 ha        1 L61      0.121500
     22 H4         -1.7840    1.2820    0.1730 h1        1 L61      0.134000
     23 H1          0.9560    1.2730   -0.0290 hn        1 L61      0.229000
     24 H61C       -0.0440   -2.1960   -2.4390 h1        1 L61      0.096000
     25 H62C        0.2220   -2.9030   -1.0410 h1        1 L61      0.096000
     26 H7          2.5260   -2.3540   -2.5070 hc        1 L61      0.104000
     27 H15        -2.6110    0.9450    2.3630 ha        1 L61      0.141000
     28 H11         0.9850    2.7780    1.8850 ha        1 L61      0.131000
     29 H14        -2.4320    1.0160    4.6720 ha        1 L61      0.137000
     30 H13        -0.6050    1.9370    5.6180 ha        1 L61      0.136000
     31 H12         1.1800    2.8570    4.2950 ha        1 L61      0.136000
     32 H81C        1.4530   -4.7450   -1.4010 hc        1 L61      0.077833
     33 H82C        2.6050   -3.8640   -0.8470 hc        1 L61      0.077833
     34 H83C        2.9080   -4.6580   -2.0570 hc        1 L61      0.077833
     35 H91C        2.2640   -3.9130   -4.2360 hc        1 L61      0.077833
     36 H92C        1.2760   -2.6820   -4.4400 hc        1 L61      0.077833
     37 H93C        0.7210   -4.0830   -3.8310 hc        1 L61      0.077833
@<TRIPOS>BOND
     1    1    2 1   
     2    2   19 1   
     3    3    4 1   
     4    3   20 1   
     5    3   21 1   
     6    4    5 1   
     7    4   10 1   
     8    4   22 1   
     9    5    6 1   
    10    5   23 1   
    11    6    7 1   
    12    6    9 1   
    13    7    8 1   
    14    8   16 1   
    15    8   24 1   
    16    8   25 1   
    17   10   11 1   
    18   10   15 1   
    19   11   12 1   
    20   11   27 1   
    21   12   29 1   
    22   13   14 1   
    23   13   30 1   
    24   14   31 1   
    25   15   28 1   
    26   16   17 1   
    27   16   18 1   
    28   16   26 1   
    29   17   32 1   
    30   17   33 1   
    31   17   34 1   
    32   18   35 1   
    33   18   36 1   
    34   18   37 1   
@<TRIPOS>SUBSTRUCTURE
     1 L61         1 TEMP              0 ****  ****    0 ROOT
