@<TRIPOS>MOLECULE
L61
   38    38     1     0     0
SMALL
bcc


@<TRIPOS>ATOM
      1 O1          2.1290   -0.5300   -1.2510 o         1 L61     -0.550100
      2 C2          1.6280    0.0550   -0.2880 c         1 L61      0.578900
      3 C3          2.2100   -0.0250    1.0930 c3        1 L61     -0.238400
      4 C4          3.1270   -1.2240    1.3330 c3        1 L61      0.212800
      5 N1          4.3310   -1.2280    0.4020 n4        1 L61     -0.643800
      6 C5          4.0970   -2.0330   -0.8430 c         1 L61      0.641100
      7 O3          4.6920   -1.4430   -1.8940 os        1 L61     -0.403900
      8 C6          4.3140   -1.9800   -3.2090 c3        1 L61      0.155400
      9 O2          3.4960   -3.0970   -0.8400 o         1 L61     -0.433000
     10 C10         3.6080   -1.2580    2.7530 ca        1 L61     -0.194300
     11 C15         3.3530   -2.3920    3.5320 ca        1 L61     -0.103500
     12 C14         3.7680   -2.4270    4.8630 ca        1 L61     -0.115500
     13 C13         4.4440   -1.3390    5.4160 ca        1 L61     -0.077000
     14 C12         4.7050   -0.2090    4.6360 ca        1 L61     -0.115500
     15 C11         4.2880   -0.1660    3.3080 ca        1 L61     -0.103500
     16 C7          5.2510   -1.3000   -4.1970 c3        1 L61     -0.074700
     17 C8          6.6200   -1.9450   -4.1790 c3        1 L61     -0.098100
     18 C9          4.6330   -1.3760   -5.5790 c3        1 L61     -0.098100
     19 HC2         0.7220    0.6930   -0.3870 h4        1 L61      0.054200
     20 H31C        1.3680   -0.1130    1.8380 hc        1 L61      0.115200
     21 H32C        2.7350    0.9440    1.3140 hc        1 L61      0.115200
     22 H4          2.5490   -2.1750    1.0980 hx        1 L61      0.135700
     23 H1          5.1320   -1.6390    0.9000 hn        1 L61      0.468800
     24 H61C        3.2400   -1.7010   -3.3690 h1        1 L61      0.084700
     25 H62C        4.4420   -3.0920   -3.1860 h1        1 L61      0.084700
     26 H7          5.3550   -0.2170   -3.9020 hc        1 L61      0.070700
     27 H15         2.8180   -3.2560    3.1040 ha        1 L61      0.139500
     28 H11         4.4870    0.7340    2.7060 ha        1 L61      0.139500
     29 H14         3.5590   -3.3180    5.4780 ha        1 L61      0.162000
     30 H13         4.7700   -1.3680    6.4680 ha        1 L61      0.163000
     31 H12         5.2370    0.6510    5.0730 ha        1 L61      0.162000
     32 H81C        6.5620   -3.0100   -4.5090 hc        1 L61      0.050033
     33 H82C        7.0500   -1.9120   -3.1500 hc        1 L61      0.050033
     34 H83C        7.3080   -1.4000   -4.8710 hc        1 L61      0.050033
     35 H91C        3.6510   -0.8450   -5.6030 hc        1 L61      0.050033
     36 H92C        5.3150   -0.8950   -6.3210 hc        1 L61      0.050033
     37 H93C        4.4730   -2.4390   -5.8830 hc        1 L61      0.050033
     38 H121        4.5670   -0.2670    0.1300 hn        1 L61      0.468800
@<TRIPOS>BOND
     1    1    2 2   
     2    2    3 1   
     3    2   19 1   
     4    3    4 1   
     5    3   20 1   
     6    3   21 1   
     7    4    5 1   
     8    4   10 1   
     9    4   22 1   
    10    5    6 1   
    11    5   23 1   
    12    5   38 1   
    13    6    7 1   
    14    6    9 2   
    15    7    8 1   
    16    8   16 1   
    17    8   24 1   
    18    8   25 1   
    19   10   11 ar  
    20   10   15 ar  
    21   11   12 ar  
    22   11   27 1   
    23   12   13 ar  
    24   12   29 1   
    25   13   14 ar  
    26   13   30 1   
    27   14   15 ar  
    28   14   31 1   
    29   15   28 1   
    30   16   17 1   
    31   16   18 1   
    32   16   26 1   
    33   17   32 1   
    34   17   33 1   
    35   17   34 1   
    36   18   35 1   
    37   18   36 1   
    38   18   37 1   
@<TRIPOS>SUBSTRUCTURE
     1 L61         1 TEMP              0 ****  ****    0 ROOT
