@<TRIPOS>MOLECULE
L61
   37    37     1     0     0
SMALL
bcc


@<TRIPOS>ATOM
      1 O1          0.8600   -4.1690    1.4490 o         1 L61     -0.533100
      2 C2          0.7650   -3.1820    0.7180 c         1 L61      0.564900
      3 C3          1.7200   -2.0300    0.8090 c3        1 L61     -0.211400
      4 C4          1.2380   -0.8130    0.0010 c3        1 L61      0.156000
      5 N1         -0.0110   -0.2780    0.5170 n         1 L61     -0.536900
      6 C5         -1.1720   -0.4430   -0.2110 c         1 L61      0.733100
      7 O3         -2.1920    0.3840    0.2060 os        1 L61     -0.442900
      8 C6         -3.4650    0.1420   -0.4260 c3        1 L61      0.152400
      9 O2         -1.3870   -1.2610   -1.1240 o         1 L61     -0.596000
     10 C10         2.3310    0.2280   -0.0190 ca        1 L61     -0.119300
     11 C15         2.9330    0.5760   -1.2320 ca        1 L61     -0.116500
     12 C14         3.9510    1.5280   -1.2590 ca        1 L61     -0.128000
     13 C13         4.3680    2.1420   -0.0770 ca        1 L61     -0.119000
     14 C12         3.7660    1.8000    1.1340 ca        1 L61     -0.128000
     15 C11         2.7500    0.8460    1.1640 ca        1 L61     -0.116500
     16 C7         -4.4390    1.1410    0.1920 c3        1 L61     -0.073700
     17 C8         -4.1940    2.5340   -0.3450 c3        1 L61     -0.091600
     18 C9         -5.8570    0.6920   -0.0910 c3        1 L61     -0.091600
     19 HC2        -0.0340   -3.0950   -0.0560 h4        1 L61      0.025200
     20 H31C        1.8790   -1.7550    1.8850 hc        1 L61      0.082700
     21 H32C        2.7130   -2.3530    0.3950 hc        1 L61      0.082700
     22 H4          1.0500   -1.1690   -1.0620 h1        1 L61      0.085700
     23 H1          0.0410    0.4980    1.1360 hn        1 L61      0.325500
     24 H61C       -3.3550    0.2920   -1.5310 h1        1 L61      0.057200
     25 H62C       -3.7720   -0.9160   -0.2210 h1        1 L61      0.057200
     26 H7         -4.2720    1.1510    1.3060 hc        1 L61      0.064700
     27 H15         2.6050    0.0990   -2.1680 ha        1 L61      0.137000
     28 H11         2.2840    0.5730    2.1240 ha        1 L61      0.137000
     29 H14         4.4240    1.7970   -2.2150 ha        1 L61      0.137000
     30 H13         5.1700    2.8940   -0.1010 ha        1 L61      0.136000
     31 H12         4.0930    2.2820    2.0670 ha        1 L61      0.137000
     32 H81C       -4.8650    3.2670    0.1630 hc        1 L61      0.038867
     33 H82C       -3.1330    2.8310   -0.1640 hc        1 L61      0.038867
     34 H83C       -4.3920    2.5740   -1.4430 hc        1 L61      0.038867
     35 H91C       -6.0510   -0.3090    0.3640 hc        1 L61      0.038867
     36 H92C       -6.5810    1.4250    0.3400 hc        1 L61      0.038867
     37 H93C       -6.0360    0.6230   -1.1910 hc        1 L61      0.038867
@<TRIPOS>BOND
     1    1    2 2   
     2    2    3 1   
     3    2   19 1   
     4    3    4 1   
     5    3   20 1   
     6    3   21 1   
     7    4    5 1   
     8    4   10 1   
     9    4   22 1   
    10    5    6 1   
    11    5   23 1   
    12    6    7 1   
    13    6    9 2   
    14    7    8 1   
    15    8   16 1   
    16    8   24 1   
    17    8   25 1   
    18   10   11 ar  
    19   10   15 ar  
    20   11   12 ar  
    21   11   27 1   
    22   12   13 ar  
    23   12   29 1   
    24   13   14 ar  
    25   13   30 1   
    26   14   15 ar  
    27   14   31 1   
    28   15   28 1   
    29   16   17 1   
    30   16   18 1   
    31   16   26 1   
    32   17   32 1   
    33   17   33 1   
    34   17   34 1   
    35   18   35 1   
    36   18   36 1   
    37   18   37 1   
@<TRIPOS>SUBSTRUCTURE
     1 L61         1 TEMP              0 ****  ****    0 ROOT
