@<TRIPOS>MOLECULE
L61
   38    38     1     0     0
SMALL
bcc


@<TRIPOS>ATOM
      1 O1          2.1500   -0.4850   -1.2580 o         1 L61     -0.550100
      2 C2          1.6680    0.1270   -0.3020 c         1 L61      0.578900
      3 C3          2.2490    0.0460    1.0790 c3        1 L61     -0.238400
      4 C4          3.1320   -1.1760    1.3340 c3        1 L61      0.212800
      5 N1          4.3330   -1.2270    0.4010 n4        1 L61     -0.643800
      6 C5          4.0740   -2.0400   -0.8340 c         1 L61      0.641100
      7 O3          4.6840   -1.4810   -1.8930 os        1 L61     -0.403900
      8 C6          4.2890   -2.0240   -3.2000 c3        1 L61      0.155400
      9 O2          3.4420   -3.0860   -0.8170 o         1 L61     -0.433000
     10 C10         3.6130   -1.2060    2.7530 ca        1 L61     -0.194300
     11 C15         3.3260   -2.3230    3.5460 ca        1 L61     -0.103500
     12 C14         3.7420   -2.3540    4.8770 ca        1 L61     -0.115500
     13 C13         4.4500   -1.2790    5.4150 ca        1 L61     -0.077000
     14 C12         4.7430   -0.1660    4.6220 ca        1 L61     -0.115500
     15 C11         4.3260   -0.1280    3.2940 ca        1 L61     -0.103500
     16 C7          5.2430   -1.3840   -4.1980 c3        1 L61     -0.074700
     17 C8          6.5930   -2.0650   -4.1730 c3        1 L61     -0.098100
     18 C9          4.6210   -1.4600   -5.5780 c3        1 L61     -0.098100
     19 HC2         0.7810    0.7900   -0.4080 h4        1 L61      0.054200
     20 H31C        1.4070   -0.0070    1.8270 hc        1 L61      0.115200
     21 H32C        2.8040    1.0030    1.2880 hc        1 L61      0.115200
     22 H4          2.5260   -2.1120    1.1110 hx        1 L61      0.135700
     23 H1          5.1230   -1.6550    0.9030 hn        1 L61      0.468800
     24 H61C        4.3850   -3.1390   -3.1630 h1        1 L61      0.084700
     25 H62C        3.2230   -1.7160   -3.3620 h1        1 L61      0.084700
     26 H7          5.3770   -0.3000   -3.9180 hc        1 L61      0.070700
     27 H15         2.7660   -3.1760    3.1300 ha        1 L61      0.139500
     28 H11         4.5490    0.7580    2.6810 ha        1 L61      0.139500
     29 H14         3.5090   -3.2310    5.5030 ha        1 L61      0.162000
     30 H13         4.7770   -1.3050    6.4680 ha        1 L61      0.163000
     31 H12         5.3010    0.6830    5.0480 ha        1 L61      0.162000
     32 H81C        7.2950   -1.5500   -4.8720 hc        1 L61      0.050033
     33 H82C        6.5050   -3.1330   -4.4880 hc        1 L61      0.050033
     34 H83C        7.0260   -2.0310   -3.1440 hc        1 L61      0.050033
     35 H91C        4.4320   -2.5220   -5.8680 hc        1 L61      0.050033
     36 H92C        5.3160   -1.0080   -6.3270 hc        1 L61      0.050033
     37 H93C        3.6540   -0.9030   -5.6080 hc        1 L61      0.050033
     38 H121        4.5970   -0.2760    0.1160 hn        1 L61      0.468800
@<TRIPOS>BOND
     1    1    2 2   
     2    2    3 1   
     3    2   19 1   
     4    3    4 1   
     5    3   20 1   
     6    3   21 1   
     7    4    5 1   
     8    4   10 1   
     9    4   22 1   
    10    5    6 1   
    11    5   23 1   
    12    5   38 1   
    13    6    7 1   
    14    6    9 2   
    15    7    8 1   
    16    8   16 1   
    17    8   24 1   
    18    8   25 1   
    19   10   11 ar  
    20   10   15 ar  
    21   11   12 ar  
    22   11   27 1   
    23   12   13 ar  
    24   12   29 1   
    25   13   14 ar  
    26   13   30 1   
    27   14   15 ar  
    28   14   31 1   
    29   15   28 1   
    30   16   17 1   
    31   16   18 1   
    32   16   26 1   
    33   17   32 1   
    34   17   33 1   
    35   17   34 1   
    36   18   35 1   
    37   18   36 1   
    38   18   37 1   
@<TRIPOS>SUBSTRUCTURE
     1 L61         1 TEMP              0 ****  ****    0 ROOT
