@<TRIPOS>MOLECULE
L62
   39    40     1     0     0
SMALL
bcc


@<TRIPOS>ATOM
      1 O2         -0.5600    0.1230   -0.2080 o         1 L62     -0.434000
      2 C5          0.5080   -0.4540   -0.0560 c         1 L62      0.626100
      3 O3          1.2940   -0.4130    1.0330 os        1 L62     -0.412900
      4 C6          0.8400    0.4370    2.1500 c3        1 L62      0.165100
      5 C7          1.5020   -0.1660    3.3890 c3        1 L62     -0.097900
      6 C8          2.4680    0.8780    3.9310 c3        1 L62     -0.082400
      7 C9          2.1840    2.1870    3.2070 c3        1 L62     -0.082400
      8 C10         1.3730    1.8550    1.9620 c3        1 L62     -0.097900
      9 N1          1.1000   -1.3630   -1.0840 ny        1 L62     -0.652800
     10 C4          0.8810   -0.8510   -2.4960 c3        1 L62      0.214800
     11 C3          1.0790   -1.9560   -3.5380 c3        1 L62     -0.240400
     12 C2          0.1580   -3.1330   -3.3970 c         1 L62      0.576900
     13 O1         -0.2780   -3.4990   -2.3030 o         1 L62     -0.545100
     14 C11         1.7940    0.3040   -2.7780 ca        1 L62     -0.187300
     15 C12         1.2450    1.5700   -3.0110 ca        1 L62     -0.104000
     16 C13         2.0810    2.6450   -3.3120 ca        1 L62     -0.116000
     17 C14         3.4630    2.4620   -3.3720 ca        1 L62     -0.080000
     18 C15         4.0130    1.2000   -3.1330 ca        1 L62     -0.116000
     19 C16         3.1820    0.1220   -2.8390 ca        1 L62     -0.104000
     20 H1          0.6370   -2.2870   -0.9820 hn        1 L62      0.480800
     21 H6         -0.2800    0.3920    2.1830 h1        1 L62      0.092700
     22 H71C        2.0370   -1.1160    3.1340 hc        1 L62      0.070450
     23 H72C        0.7110   -0.4130    4.1420 hc        1 L62      0.070450
     24 H101        0.5270    2.5740    1.8260 hc        1 L62      0.070450
     25 H102        2.0170    1.9070    1.0470 hc        1 L62      0.070450
     26 H81C        2.3400    0.9980    5.0360 hc        1 L62      0.062950
     27 H82C        3.5250    0.5560    3.7510 hc        1 L62      0.062950
     28 H91C        1.6030    2.8790    3.8690 hc        1 L62      0.062950
     29 H92C        3.1350    2.7080    2.9340 hc        1 L62      0.062950
     30 H4         -0.2030   -0.5110   -2.5290 hx        1 L62      0.130700
     31 H31C        2.1380   -2.3350   -3.5340 hc        1 L62      0.115200
     32 H32C        0.9120   -1.4730   -4.5430 hc        1 L62      0.115200
     33 HXT        -0.0870   -3.6670   -4.3420 h4        1 L62      0.058200
     34 H12         0.1540    1.7220   -2.9620 ha        1 L62      0.139500
     35 H16         3.6260   -0.8710   -2.6700 ha        1 L62      0.139500
     36 H13         1.6460    3.6390   -3.5030 ha        1 L62      0.160500
     37 H14         4.1220    3.3130   -3.6120 ha        1 L62      0.162000
     38 H15         5.1040    1.0560   -3.1830 ha        1 L62      0.160500
     39 H121        2.1060   -1.4650   -0.9020 hn        1 L62      0.480800
@<TRIPOS>BOND
     1    1    2 2   
     2    2    3 1   
     3    2    9 1   
     4    3    4 1   
     5    4    5 1   
     6    4    8 1   
     7    4   21 1   
     8    5    6 1   
     9    5   22 1   
    10    5   23 1   
    11    6    7 1   
    12    6   26 1   
    13    6   27 1   
    14    7    8 1   
    15    7   28 1   
    16    7   29 1   
    17    8   24 1   
    18    8   25 1   
    19    9   10 1   
    20    9   20 1   
    21    9   39 1   
    22   10   11 1   
    23   10   14 1   
    24   10   30 1   
    25   11   12 1   
    26   11   31 1   
    27   11   32 1   
    28   12   13 2   
    29   12   33 1   
    30   14   15 ar  
    31   14   19 ar  
    32   15   16 ar  
    33   15   34 1   
    34   16   17 ar  
    35   16   36 1   
    36   17   18 ar  
    37   17   37 1   
    38   18   19 ar  
    39   18   38 1   
    40   19   35 1   
@<TRIPOS>SUBSTRUCTURE
     1 L62         1 TEMP              0 ****  ****    0 ROOT
