@<TRIPOS>MOLECULE
L62
   38    39     1     0     0
SMALL
bcc


@<TRIPOS>ATOM
      1 O2          1.2120   -1.3300    0.9830 o         1 L62     -0.596000
      2 C5          0.9790   -0.5210    0.0670 c         1 L62      0.735100
      3 O3          1.9900    0.2750   -0.4250 os        1 L62     -0.440900
      4 C6          3.3080    0.0510    0.1170 c3        1 L62      0.158100
      5 C7          4.2970    0.3900   -1.0040 c3        1 L62     -0.094400
      6 C8          5.2330    1.4660   -0.4720 c3        1 L62     -0.078400
      7 C9          4.9160    1.6700    1.0040 c3        1 L62     -0.078400
      8 C10         3.5680    1.0220    1.2730 c3        1 L62     -0.094400
      9 N1         -0.2140   -0.3390   -0.6060 n         1 L62     -0.537900
     10 C4         -1.4490   -0.8300   -0.0170 c3        1 L62      0.156000
     11 C3         -2.0050   -2.0460   -0.7770 c3        1 L62     -0.211400
     12 C2         -1.0770   -3.2230   -0.7150 c         1 L62      0.564900
     13 O1         -1.2350   -4.2170   -1.4240 o         1 L62     -0.533100
     14 C11        -2.5110    0.2410    0.0400 ca        1 L62     -0.119300
     15 C12        -3.0410    0.6250    1.2760 ca        1 L62     -0.117000
     16 C13        -4.0310    1.6050    1.3380 ca        1 L62     -0.128000
     17 C14        -4.4910    2.2110    0.1690 ca        1 L62     -0.119000
     18 C15        -3.9600    1.8330   -1.0650 ca        1 L62     -0.128000
     19 C16        -2.9730    0.8510   -1.1310 ca        1 L62     -0.117000
     20 H1         -0.2770    0.4260   -1.2380 hn        1 L62      0.325500
     21 H6          3.4030   -1.0170    0.4490 h1        1 L62      0.083700
     22 H71C        4.8650   -0.5290   -1.2920 hc        1 L62      0.058200
     23 H72C        3.7480    0.7500   -1.9100 hc        1 L62      0.058200
     24 H101        2.7580    1.7940    1.3080 hc        1 L62      0.058200
     25 H102        3.5630    0.4770    2.2490 hc        1 L62      0.058200
     26 H81C        6.3010    1.1650   -0.6090 hc        1 L62      0.044450
     27 H82C        5.0810    2.4210   -1.0360 hc        1 L62      0.044450
     28 H91C        5.7070    1.1940    1.6380 hc        1 L62      0.044450
     29 H92C        4.8930    2.7570    1.2610 hc        1 L62      0.044450
     30 H4         -1.2160   -1.1730    1.0410 h1        1 L62      0.085700
     31 H31C       -2.9820   -2.3350   -0.3060 hc        1 L62      0.082700
     32 H32C       -2.2130   -1.7840   -1.8480 hc        1 L62      0.082700
     33 HXT        -0.2380   -3.1460    0.0160 h4        1 L62      0.025200
     34 H12        -2.6790    0.1530    2.2030 ha        1 L62      0.137000
     35 H16        -2.5650    0.5500   -2.1080 ha        1 L62      0.137000
     36 H13        -4.4470    1.9010    2.3120 ha        1 L62      0.137000
     37 H14        -5.2700    2.9850    0.2190 ha        1 L62      0.136000
     38 H15        -4.3210    2.3100   -1.9890 ha        1 L62      0.137000
@<TRIPOS>BOND
     1    1    2 2   
     2    2    3 1   
     3    2    9 1   
     4    3    4 1   
     5    4    5 1   
     6    4    8 1   
     7    4   21 1   
     8    5    6 1   
     9    5   22 1   
    10    5   23 1   
    11    6    7 1   
    12    6   26 1   
    13    6   27 1   
    14    7    8 1   
    15    7   28 1   
    16    7   29 1   
    17    8   24 1   
    18    8   25 1   
    19    9   10 1   
    20    9   20 1   
    21   10   11 1   
    22   10   14 1   
    23   10   30 1   
    24   11   12 1   
    25   11   31 1   
    26   11   32 1   
    27   12   13 2   
    28   12   33 1   
    29   14   15 ar  
    30   14   19 ar  
    31   15   16 ar  
    32   15   34 1   
    33   16   17 ar  
    34   16   36 1   
    35   17   18 ar  
    36   17   37 1   
    37   18   19 ar  
    38   18   38 1   
    39   19   35 1   
@<TRIPOS>SUBSTRUCTURE
     1 L62         1 TEMP              0 ****  ****    0 ROOT
