@<TRIPOS>MOLECULE
L62
   39    40     1     0     0
SMALL
bcc


@<TRIPOS>ATOM
      1 O2         -0.3010    0.0230   -0.1890 o         1 L62     -0.435000
      2 C5          0.8950   -0.2060   -0.0680 c         1 L62      0.625100
      3 O3          1.7180    0.3060    0.8630 os        1 L62     -0.412900
      4 C6          1.1040    1.1830    1.8790 c3        1 L62      0.167100
      5 C7          0.4240    0.3430    2.9570 c3        1 L62     -0.097400
      6 C8          1.3090    0.4020    4.1930 c3        1 L62     -0.082900
      7 C9          2.2900    1.5500    3.9940 c3        1 L62     -0.082900
      8 C10         2.2920    1.9060    2.5140 c3        1 L62     -0.097400
      9 N1          1.6450   -1.1310   -0.9710 n4        1 L62     -0.652800
     10 C4          1.2070   -0.9970   -2.4180 c3        1 L62      0.214800
     11 C3          1.6380   -2.2040   -3.2560 c3        1 L62     -0.240400
     12 C2          1.0880   -3.5230   -2.7980 c         1 L62      0.576900
     13 O1          0.8360   -3.7540   -1.6120 o         1 L62     -0.545100
     14 C11         1.7470    0.2710   -3.0090 ca        1 L62     -0.187300
     15 C12         0.8570    1.2780   -3.3980 ca        1 L62     -0.103500
     16 C13         1.3440    2.4470   -3.9820 ca        1 L62     -0.116000
     17 C14         2.7160    2.6180   -4.1690 ca        1 L62     -0.080000
     18 C15         3.6060    1.6170   -3.7740 ca        1 L62     -0.116000
     19 C16         3.1250    0.4440   -3.1970 ca        1 L62     -0.103500
     20 H1          1.4560   -2.0990   -0.6470 hn        1 L62      0.480800
     21 H6          0.3950    1.8650    1.3450 h1        1 L62      0.089700
     22 H71C        0.2750   -0.7100    2.6100 hc        1 L62      0.071450
     23 H72C       -0.5880    0.7740    3.1730 hc        1 L62      0.071450
     24 H101        2.1860    3.0090    2.3600 hc        1 L62      0.071450
     25 H102        3.2490    1.5860    2.0270 hc        1 L62      0.071450
     26 H81C        1.8620   -0.5630    4.3200 hc        1 L62      0.062950
     27 H82C        0.6930    0.5570    5.1140 hc        1 L62      0.062950
     28 H91C        1.9760    2.4380    4.6010 hc        1 L62      0.062950
     29 H92C        3.3150    1.2610    4.3330 hc        1 L62      0.062950
     30 H4          0.0720   -0.9630   -2.3880 hx        1 L62      0.130700
     31 H31C        2.7590   -2.2880   -3.3040 hc        1 L62      0.115200
     32 H32C        1.2840   -2.0000   -4.3060 hc        1 L62      0.115200
     33 HXT         0.9450   -4.2870   -3.5930 h4        1 L62      0.058200
     34 H12        -0.2280    1.1510   -3.2520 ha        1 L62      0.139500
     35 H16         3.8340   -0.3450   -2.9050 ha        1 L62      0.139500
     36 H13         0.6400    3.2350   -4.2960 ha        1 L62      0.160500
     37 H14         3.0980    3.5430   -4.6310 ha        1 L62      0.162000
     38 H15         4.6890    1.7510   -3.9240 ha        1 L62      0.160500
     39 H121        2.6500   -0.9360   -0.8920 hn        1 L62      0.480800
@<TRIPOS>BOND
     1    1    2 2   
     2    2    3 1   
     3    2    9 1   
     4    3    4 1   
     5    4    5 1   
     6    4    8 1   
     7    4   21 1   
     8    5    6 1   
     9    5   22 1   
    10    5   23 1   
    11    6    7 1   
    12    6   26 1   
    13    6   27 1   
    14    7    8 1   
    15    7   28 1   
    16    7   29 1   
    17    8   24 1   
    18    8   25 1   
    19    9   10 1   
    20    9   20 1   
    21    9   39 1   
    22   10   11 1   
    23   10   14 1   
    24   10   30 1   
    25   11   12 1   
    26   11   31 1   
    27   11   32 1   
    28   12   13 2   
    29   12   33 1   
    30   14   15 ar  
    31   14   19 ar  
    32   15   16 ar  
    33   15   34 1   
    34   16   17 ar  
    35   16   36 1   
    36   17   18 ar  
    37   17   37 1   
    38   18   19 ar  
    39   18   38 1   
    40   19   35 1   
@<TRIPOS>SUBSTRUCTURE
     1 L62         1 TEMP              0 ****  ****    0 ROOT
