@<TRIPOS>MOLECULE
L62
   39    40     1     0     0
SMALL
bcc


@<TRIPOS>ATOM
      1 O2         -0.5570    0.0910   -0.2200 o         1 L62     -0.434000
      2 C5          0.5190   -0.4710   -0.0650 c         1 L62      0.626100
      3 O3          1.2980   -0.4230    1.0290 os        1 L62     -0.412900
      4 C6          0.8260    0.4150    2.1470 c3        1 L62      0.165100
      5 C7          1.4860   -0.1880    3.3880 c3        1 L62     -0.097900
      6 C8          2.4360    0.8640    3.9420 c3        1 L62     -0.082400
      7 C9          2.1420    2.1740    3.2230 c3        1 L62     -0.082400
      8 C10         1.3450    1.8390    1.9700 c3        1 L62     -0.097900
      9 N1          1.1290   -1.3670   -1.0940 n4        1 L62     -0.652800
     10 C4          0.9070   -0.8530   -2.5050 c3        1 L62      0.214800
     11 C3          1.1270   -1.9510   -3.5500 c3        1 L62     -0.240400
     12 C2          0.2240   -3.1430   -3.4170 c         1 L62      0.576900
     13 O1         -0.2100   -3.5200   -2.3250 o         1 L62     -0.545100
     14 C11         1.8020    0.3170   -2.7800 ca        1 L62     -0.187300
     15 C12         1.2330    1.5750   -3.0090 ca        1 L62     -0.104000
     16 C13         2.0530    2.6650   -3.3030 ca        1 L62     -0.116000
     17 C14         3.4370    2.5050   -3.3600 ca        1 L62     -0.080000
     18 C15         4.0070    1.2510   -3.1240 ca        1 L62     -0.116000
     19 C16         3.1930    0.1580   -2.8360 ca        1 L62     -0.104000
     20 H1          0.6810   -2.2980   -0.9970 hn        1 L62      0.480800
     21 H6         -0.2930    0.3570    2.1720 h1        1 L62      0.092700
     22 H71C        2.0330   -1.1300    3.1310 hc        1 L62      0.070450
     23 H72C        0.6920   -0.4470    4.1330 hc        1 L62      0.070450
     24 H101        1.9940    1.9040    1.0600 hc        1 L62      0.070450
     25 H102        0.4920    2.5500    1.8330 hc        1 L62      0.070450
     26 H81C        3.4980    0.5550    3.7690 hc        1 L62      0.062950
     27 H82C        2.2980    0.9770    5.0470 hc        1 L62      0.062950
     28 H91C        1.5490    2.8550    3.8850 hc        1 L62      0.062950
     29 H92C        3.0900    2.7070    2.9600 hc        1 L62      0.062950
     30 H4         -0.1820   -0.5310   -2.5410 hx        1 L62      0.130700
     31 H31C        2.1910   -2.3130   -3.5430 hc        1 L62      0.115200
     32 H32C        0.9560   -1.4680   -4.5540 hc        1 L62      0.115200
     33 HXT        -0.0080   -3.6780   -4.3640 h4        1 L62      0.058200
     34 H12         0.1400    1.7100   -2.9640 ha        1 L62      0.139500
     35 H16         3.6520   -0.8280   -2.6690 ha        1 L62      0.139500
     36 H13         1.6020    3.6520   -3.4930 ha        1 L62      0.160500
     37 H14         4.0830    3.3670   -3.5940 ha        1 L62      0.162000
     38 H15         5.1000    1.1250   -3.1710 ha        1 L62      0.160500
     39 H121        2.1350   -1.4520   -0.9090 hn        1 L62      0.480800
@<TRIPOS>BOND
     1    1    2 2   
     2    2    3 1   
     3    2    9 1   
     4    3    4 1   
     5    4    5 1   
     6    4    8 1   
     7    4   21 1   
     8    5    6 1   
     9    5   22 1   
    10    5   23 1   
    11    6    7 1   
    12    6   26 1   
    13    6   27 1   
    14    7    8 1   
    15    7   28 1   
    16    7   29 1   
    17    8   24 1   
    18    8   25 1   
    19    9   10 1   
    20    9   20 1   
    21    9   39 1   
    22   10   11 1   
    23   10   14 1   
    24   10   30 1   
    25   11   12 1   
    26   11   31 1   
    27   11   32 1   
    28   12   13 2   
    29   12   33 1   
    30   14   15 ar  
    31   14   19 ar  
    32   15   16 ar  
    33   15   34 1   
    34   16   17 ar  
    35   16   36 1   
    36   17   18 ar  
    37   17   37 1   
    38   18   19 ar  
    39   18   38 1   
    40   19   35 1   
@<TRIPOS>SUBSTRUCTURE
     1 L62         1 TEMP              0 ****  ****    0 ROOT
