@<TRIPOS>MOLECULE
L63
   43    44     1     0     0
SMALL
bcc


@<TRIPOS>ATOM
      1 O2          1.0170   -0.4820    0.5050 o         1 L63     -0.361100
      2 C15         1.9370   -0.2390   -0.2550 c         1 L63      0.524100
      3 N2          3.2960   -0.8060    0.1180 ny        1 L63     -0.438300
      4 O3          3.4270   -1.0250    1.4450 oh        1 L63     -0.332300
      5 C14         1.8530    0.5700   -1.5440 c3        1 L63      0.037500
      6 C16         1.4700    2.0550   -1.1660 c3        1 L63      0.155100
      7 O4          1.1160    2.6710   -2.3830 oh        1 L63     -0.611800
      8 C17         2.6270    2.7140   -0.4530 c3        1 L63     -0.165100
      9 N1          0.8440   -0.0320   -2.4690 ny        1 L63     -0.680800
     10 C1          1.2070   -1.4650   -2.9040 c         1 L63      0.616700
     11 O1          2.0740   -1.9560   -2.1700 o         1 L63     -0.596100
     12 C2          0.5220   -2.0020   -4.0300 ca        1 L63     -0.262600
     13 C7          0.8960   -3.3130   -4.4380 ca        1 L63     -0.025500
     14 C6          0.2830   -3.9130   -5.5200 ca        1 L63     -0.151500
     15 C5         -0.7320   -3.2510   -6.2450 cp        1 L63      0.159000
     16 C4         -1.1050   -1.9440   -5.8290 ca        1 L63     -0.151500
     17 C3         -0.4960   -1.3330   -4.7550 ca        1 L63     -0.025500
     18 C8         -1.3750   -3.8790   -7.3770 cp        1 L63     -0.135000
     19 C13        -2.7080   -3.5680   -7.7100 ca        1 L63     -0.074500
     20 C12        -3.3240   -4.1830   -8.7950 ca        1 L63     -0.129500
     21 C11        -2.6210   -5.1060   -9.5720 ca        1 L63     -0.053000
     22 C10        -1.2970   -5.4180   -9.2550 ca        1 L63     -0.129500
     23 C9         -0.6780   -4.8170   -8.1650 ca        1 L63     -0.074500
     24 H13         4.0540   -0.1270   -0.1160 hn        1 L63      0.508300
     25 H14         2.6690   -1.5760    1.7680 ho        1 L63      0.496000
     26 H1          2.8400    0.5830   -2.1000 hx        1 L63      0.139700
     27 H2          0.5440    2.0300   -0.5200 h1        1 L63      0.109700
     28 H18         1.6280    3.4870   -2.5010 ho        1 L63      0.474000
     29 H17         3.5270    2.7880   -1.1110 hc        1 L63      0.086033
     30 H16         2.8890    2.1590    0.4800 hc        1 L63      0.086033
     31 H15         2.3310    3.7560   -0.1550 hc        1 L63      0.086033
     32 H3         -0.0820   -0.0400   -2.0190 hn        1 L63      0.488800
     33 H7          1.6820   -3.8490   -3.8760 ha        1 L63      0.147500
     34 H6          0.5800   -4.9370   -5.8110 ha        1 L63      0.182000
     35 H5         -1.8870   -1.4050   -6.3930 ha        1 L63      0.182000
     36 H4         -0.8270   -0.3190   -4.4810 ha        1 L63      0.147500
     37 H12        -3.2810   -2.8560   -7.0970 ha        1 L63      0.139000
     38 H11        -4.3710   -3.9410   -9.0410 ha        1 L63      0.163500
     39 H10        -3.1110   -5.5880  -10.4350 ha        1 L63      0.166000
     40 H9         -0.7400   -6.1430   -9.8720 ha        1 L63      0.163500
     41 H8          0.3710   -5.0630   -7.9360 ha        1 L63      0.139000
     42 H22         3.4520   -1.6900   -0.4210 hn        1 L63      0.508300
     43 H121        0.7830    0.5870   -3.2970 hn        1 L63      0.488800
@<TRIPOS>BOND
     1    1    2 2   
     2    2    3 1   
     3    2    5 1   
     4    3    4 1   
     5    3   24 1   
     6    3   42 1   
     7    4   25 1   
     8    5    6 1   
     9    5    9 1   
    10    5   26 1   
    11    6    7 1   
    12    6    8 1   
    13    6   27 1   
    14    7   28 1   
    15    8   29 1   
    16    8   30 1   
    17    8   31 1   
    18    9   10 1   
    19    9   32 1   
    20    9   43 1   
    21   10   11 2   
    22   10   12 1   
    23   12   13 ar  
    24   12   17 ar  
    25   13   14 ar  
    26   13   33 1   
    27   14   15 ar  
    28   14   34 1   
    29   15   16 ar  
    30   15   18 1   
    31   16   17 ar  
    32   16   35 1   
    33   17   36 1   
    34   18   19 ar  
    35   18   23 ar  
    36   19   20 ar  
    37   19   37 1   
    38   20   21 ar  
    39   20   38 1   
    40   21   22 ar  
    41   21   39 1   
    42   22   23 ar  
    43   22   40 1   
    44   23   41 1   
@<TRIPOS>SUBSTRUCTURE
     1 L63         1 TEMP              0 ****  ****    0 ROOT
