@<TRIPOS>MOLECULE
L63
   43    44     1     0     0
SMALL
bcc


@<TRIPOS>ATOM
      1 O2          0.8520   -0.5940    0.6350 o         1 L63     -0.351100
      2 C15         1.7690   -0.3490   -0.1230 c         1 L63      0.567100
      3 N2          3.1190   -0.9660    0.2710 n4        1 L63     -0.448300
      4 O3          4.0790   -0.0320    0.0810 oh        1 L63     -0.370300
      5 C14         1.7180    0.4750   -1.4020 c3        1 L63      0.046500
      6 C16         1.3060    1.9520   -1.0170 c3        1 L63      0.156100
      7 O4          0.9220    2.5700   -2.2240 oh        1 L63     -0.613800
      8 C17         2.4560    2.6350   -0.3140 c3        1 L63     -0.154100
      9 N1          0.7410   -0.1200   -2.3670 n4        1 L63     -0.681800
     10 C1          1.1050   -1.5450   -2.8120 c         1 L63      0.617700
     11 O1          1.9310   -2.0700   -2.0550 o         1 L63     -0.591100
     12 C2          0.4610   -2.0530   -3.9800 ca        1 L63     -0.261600
     13 C7          0.8370   -3.3590   -4.3970 ca        1 L63     -0.027000
     14 C6          0.2620   -3.9300   -5.5160 ca        1 L63     -0.150000
     15 C5         -0.7140   -3.2400   -6.2680 cp        1 L63      0.154000
     16 C4         -1.0880   -1.9380   -5.8430 ca        1 L63     -0.150000
     17 C3         -0.5180   -1.3560   -4.7320 ca        1 L63     -0.027000
     18 C8         -1.3170   -3.8380   -7.4390 cp        1 L63     -0.133000
     19 C13        -2.6360   -3.5120   -7.8120 ca        1 L63     -0.076000
     20 C12        -3.2140   -4.0970   -8.9340 ca        1 L63     -0.129000
     21 C11        -2.4860   -5.0050   -9.7070 ca        1 L63     -0.055000
     22 C10        -1.1760   -5.3320   -9.3490 ca        1 L63     -0.129000
     23 C9         -0.5960   -4.7600   -8.2220 ca        1 L63     -0.076000
     24 H13         3.0730   -1.2720    1.2660 hn        1 L63      0.498300
     25 H14         4.9410   -0.3780    0.4210 ho        1 L63      0.501000
     26 H1          2.7290    0.5040   -1.9130 hx        1 L63      0.154700
     27 H2          0.3860    1.9030   -0.3630 h1        1 L63      0.105700
     28 H18         1.4450    3.3770   -2.3600 ho        1 L63      0.472000
     29 H17         2.1250    3.6450    0.0420 hc        1 L63      0.084367
     30 H16         2.7870    2.0420    0.5730 hc        1 L63      0.084367
     31 H15         3.3270    2.7710   -1.0020 hc        1 L63      0.084367
     32 H3         -0.2000   -0.1280   -1.9490 hn        1 L63      0.487800
     33 H7          1.5910   -3.9160   -3.8140 ha        1 L63      0.147500
     34 H6          0.5570   -4.9510   -5.8150 ha        1 L63      0.182000
     35 H5         -1.8400   -1.3790   -6.4260 ha        1 L63      0.182000
     36 H4         -0.8480   -0.3440   -4.4510 ha        1 L63      0.147500
     37 H12        -3.2280   -2.8110   -7.2040 ha        1 L63      0.138500
     38 H11        -4.2500   -3.8440   -9.2130 ha        1 L63      0.162500
     39 H10        -2.9460   -5.4640  -10.5990 ha        1 L63      0.165000
     40 H9         -0.6000   -6.0450   -9.9620 ha        1 L63      0.162500
     41 H8          0.4430   -5.0170   -7.9600 ha        1 L63      0.138500
     42 H22         3.2830   -1.7940   -0.3470 hn        1 L63      0.498300
     43 H121        0.7100    0.5100   -3.1880 hn        1 L63      0.487800
@<TRIPOS>BOND
     1    1    2 2   
     2    2    3 1   
     3    2    5 1   
     4    3    4 1   
     5    3   24 1   
     6    3   42 1   
     7    4   25 1   
     8    5    6 1   
     9    5    9 1   
    10    5   26 1   
    11    6    7 1   
    12    6    8 1   
    13    6   27 1   
    14    7   28 1   
    15    8   29 1   
    16    8   30 1   
    17    8   31 1   
    18    9   10 1   
    19    9   32 1   
    20    9   43 1   
    21   10   11 2   
    22   10   12 1   
    23   12   13 ar  
    24   12   17 ar  
    25   13   14 ar  
    26   13   33 1   
    27   14   15 ar  
    28   14   34 1   
    29   15   16 ar  
    30   15   18 1   
    31   16   17 ar  
    32   16   35 1   
    33   17   36 1   
    34   18   19 ar  
    35   18   23 ar  
    36   19   20 ar  
    37   19   37 1   
    38   20   21 ar  
    39   20   38 1   
    40   21   22 ar  
    41   21   39 1   
    42   22   23 ar  
    43   22   40 1   
    44   23   41 1   
@<TRIPOS>SUBSTRUCTURE
     1 L63         1 TEMP              0 ****  ****    0 ROOT
