@<TRIPOS>MOLECULE
L63
   41    42     1     0     0
SMALL
bcc


@<TRIPOS>ATOM
      1 O2          3.8170   -1.8990    0.6690 o         1 L63     -0.566100
      2 C15         4.1480   -0.9570   -0.0680 c         1 L63      0.589100
      3 N2          5.1500   -1.1310   -1.0670 n         1 L63     -0.344400
      4 O3          6.0270   -2.1060   -0.8160 oh        1 L63     -0.434100
      5 C14         3.4020    0.3900   -0.0720 c3        1 L63     -0.001300
      6 C16         4.0020    1.3050    1.0410 c3        1 L63      0.136100
      7 O4          3.8620    2.6650    0.6640 oh        1 L63     -0.601800
      8 C17         5.4880    1.0780    1.2420 c3        1 L63     -0.108100
      9 N1          1.9860    0.1670    0.0780 n         1 L63     -0.572900
     10 C1          1.0430    1.0170   -0.4680 c         1 L63      0.680700
     11 O1          1.3990    2.0810   -1.0190 o         1 L63     -0.617100
     12 C2         -0.3890    0.6350   -0.3420 ca        1 L63     -0.146600
     13 C7         -1.3330    1.6630   -0.2210 ca        1 L63     -0.086000
     14 C6         -2.6870    1.3590   -0.1100 ca        1 L63     -0.131000
     15 C5         -3.1190    0.0240   -0.1260 cp        1 L63     -0.004000
     16 C4         -2.1680   -0.9990   -0.2610 ca        1 L63     -0.131000
     17 C3         -0.8130   -0.6980   -0.3690 ca        1 L63     -0.086000
     18 C8         -4.5400   -0.2960   -0.0090 cp        1 L63     -0.051000
     19 C13        -4.9600   -1.3830    0.7720 ca        1 L63     -0.113500
     20 C12        -6.3150   -1.6850    0.8840 ca        1 L63     -0.130500
     21 C11        -7.2640   -0.9110    0.2160 ca        1 L63     -0.121000
     22 C10        -6.8530    0.1700   -0.5640 ca        1 L63     -0.130500
     23 C9         -5.4990    0.4790   -0.6760 ca        1 L63     -0.113500
     24 H13         5.6750   -0.2820   -1.2530 hn        1 L63      0.307500
     25 H14         5.5500   -2.9440   -0.9840 ho        1 L63      0.436000
     26 H1          3.5630    0.9280   -1.0590 h1        1 L63      0.108700
     27 H2          3.4580    1.1270    2.0120 h1        1 L63      0.051700
     28 H18         2.9450    2.8070    0.3880 ho        1 L63      0.429000
     29 H17         6.0510    1.2720    0.2980 hc        1 L63      0.053033
     30 H16         5.8640    1.7920    2.0160 hc        1 L63      0.053033
     31 H15         5.6790    0.0350    1.5910 hc        1 L63      0.053033
     32 H3          1.7030   -0.6260    0.6080 hn        1 L63      0.334500
     33 H7         -0.9930    2.7110   -0.2240 ha        1 L63      0.148500
     34 H6         -3.4230    2.1700   -0.0060 ha        1 L63      0.143500
     35 H5         -2.4980   -2.0490   -0.2910 ha        1 L63      0.143500
     36 H4         -0.0910   -1.5190   -0.4940 ha        1 L63      0.148500
     37 H12        -4.2150   -1.9930    1.3040 ha        1 L63      0.136000
     38 H11        -6.6360   -2.5370    1.5020 ha        1 L63      0.135000
     39 H10        -8.3340   -1.1520    0.3050 ha        1 L63      0.134000
     40 H9         -7.5990    0.7810   -1.0940 ha        1 L63      0.135000
     41 H8         -5.1790    1.3290   -1.2970 ha        1 L63      0.136000
@<TRIPOS>BOND
     1    1    2 2   
     2    2    3 1   
     3    2    5 1   
     4    3    4 1   
     5    3   24 1   
     6    4   25 1   
     7    5    6 1   
     8    5    9 1   
     9    5   26 1   
    10    6    7 1   
    11    6    8 1   
    12    6   27 1   
    13    7   28 1   
    14    8   29 1   
    15    8   30 1   
    16    8   31 1   
    17    9   10 1   
    18    9   32 1   
    19   10   11 2   
    20   10   12 1   
    21   12   13 ar  
    22   12   17 ar  
    23   13   14 ar  
    24   13   33 1   
    25   14   15 ar  
    26   14   34 1   
    27   15   16 ar  
    28   15   18 1   
    29   16   17 ar  
    30   16   35 1   
    31   17   36 1   
    32   18   19 ar  
    33   18   23 ar  
    34   19   20 ar  
    35   19   37 1   
    36   20   21 ar  
    37   20   38 1   
    38   21   22 ar  
    39   21   39 1   
    40   22   23 ar  
    41   22   40 1   
    42   23   41 1   
@<TRIPOS>SUBSTRUCTURE
     1 L63         1 TEMP              0 ****  ****    0 ROOT
