@<TRIPOS>MOLECULE
L63
   43    44     1     0     0
SMALL
bcc


@<TRIPOS>ATOM
      1 O2          1.0250   -0.5050    0.5120 o         1 L63     -0.361100
      2 C15         1.9370   -0.2430   -0.2520 c         1 L63      0.524100
      3 N2          3.3070   -0.7910    0.1090 n4        1 L63     -0.438300
      4 O3          3.4480   -1.0160    1.4350 oh        1 L63     -0.332300
      5 C14         1.8330    0.5730   -1.5360 c3        1 L63      0.037500
      6 C16         1.4290    2.0490   -1.1470 c3        1 L63      0.155100
      7 O4          1.0580    2.6670   -2.3570 oh        1 L63     -0.611800
      8 C17         2.5790    2.7220   -0.4360 c3        1 L63     -0.165100
      9 N1          0.8270   -0.0390   -2.4580 n4        1 L63     -0.680800
     10 C1          1.2110   -1.4630   -2.9050 c         1 L63      0.616700
     11 O1          2.0890   -1.9460   -2.1790 o         1 L63     -0.596100
     12 C2          0.5290   -2.0040   -4.0320 ca        1 L63     -0.262600
     13 C7          0.9220   -3.3050   -4.4510 ca        1 L63     -0.025500
     14 C6          0.3130   -3.9070   -5.5330 ca        1 L63     -0.151500
     15 C5         -0.7160   -3.2560   -6.2490 cp        1 L63      0.159000
     16 C4         -1.1070   -1.9590   -5.8220 ca        1 L63     -0.151500
     17 C3         -0.5040   -1.3460   -4.7470 ca        1 L63     -0.025500
     18 C8         -1.3540   -3.8870   -7.3830 cp        1 L63     -0.135000
     19 C13        -2.6940   -3.5950   -7.7070 ca        1 L63     -0.074500
     20 C12        -3.3050   -4.2110   -8.7940 ca        1 L63     -0.129500
     21 C11        -2.5910   -5.1170   -9.5820 ca        1 L63     -0.053000
     22 C10        -1.2600   -5.4100   -9.2730 ca        1 L63     -0.129500
     23 C9         -0.6460   -4.8070   -8.1810 ca        1 L63     -0.074500
     24 H13         3.4730   -1.6690   -0.4360 hn        1 L63      0.508300
     25 H14         2.7010   -1.5790    1.7580 ho        1 L63      0.496000
     26 H1          2.8160    0.6040   -2.0970 hx        1 L63      0.139700
     27 H2          0.5070    2.0060   -0.4950 h1        1 L63      0.109700
     28 H18         1.5570    3.4920   -2.4730 ho        1 L63      0.474000
     29 H17         2.8560    2.1660    0.4920 hc        1 L63      0.086033
     30 H16         2.2690    3.7570   -0.1300 hc        1 L63      0.086033
     31 H15         3.4740    2.8130   -1.0990 hc        1 L63      0.086033
     32 H3          0.7520    0.5840   -3.2820 hn        1 L63      0.488800
     33 H7          1.7180   -3.8330   -3.8960 ha        1 L63      0.147500
     34 H6          0.6240   -4.9240   -5.8330 ha        1 L63      0.182000
     35 H5         -1.9010   -1.4280   -6.3780 ha        1 L63      0.182000
     36 H4         -0.8490   -0.3390   -4.4650 ha        1 L63      0.147500
     37 H12        -3.2760   -2.8960   -7.0870 ha        1 L63      0.139000
     38 H11        -4.3570   -3.9840   -9.0330 ha        1 L63      0.163500
     39 H10        -3.0770   -5.6010  -10.4460 ha        1 L63      0.166000
     40 H9         -0.6950   -6.1210   -9.8980 ha        1 L63      0.163500
     41 H8          0.4080   -5.0370   -7.9590 ha        1 L63      0.139000
     42 H22         4.0520   -0.0990   -0.1250 hn        1 L63      0.508300
     43 H121       -0.0950   -0.0650   -2.0030 hn        1 L63      0.488800
@<TRIPOS>BOND
     1    1    2 2   
     2    2    3 1   
     3    2    5 1   
     4    3    4 1   
     5    3   24 1   
     6    3   42 1   
     7    4   25 1   
     8    5    6 1   
     9    5    9 1   
    10    5   26 1   
    11    6    7 1   
    12    6    8 1   
    13    6   27 1   
    14    7   28 1   
    15    8   29 1   
    16    8   30 1   
    17    8   31 1   
    18    9   10 1   
    19    9   32 1   
    20    9   43 1   
    21   10   11 2   
    22   10   12 1   
    23   12   13 ar  
    24   12   17 ar  
    25   13   14 ar  
    26   13   33 1   
    27   14   15 ar  
    28   14   34 1   
    29   15   16 ar  
    30   15   18 1   
    31   16   17 ar  
    32   16   35 1   
    33   17   36 1   
    34   18   19 ar  
    35   18   23 ar  
    36   19   20 ar  
    37   19   37 1   
    38   20   21 ar  
    39   20   38 1   
    40   21   22 ar  
    41   21   39 1   
    42   22   23 ar  
    43   22   40 1   
    44   23   41 1   
@<TRIPOS>SUBSTRUCTURE
     1 L63         1 TEMP              0 ****  ****    0 ROOT
