@<TRIPOS>MOLECULE
L64
   77    83     1     0     0
SMALL
bcc


@<TRIPOS>ATOM
      1 C1         -0.3650    0.4670    0.0570 ca        1 L64     -0.255300
      2 N1         -0.2710   -0.6410    2.2140 nb        1 L64     -0.664000
      3 O1          3.8540    0.4430    2.0230 o         1 L64     -0.584100
      4 C2          1.0280    0.4750   -0.0260 ca        1 L64     -0.063000
      5 N2          3.9630   -0.5190   -0.0620 n         1 L64     -0.453800
      6 O2         11.1790   -4.9470   -9.4870 o         1 L64     -0.601100
      7 C3          1.7670   -0.0840    1.0220 ca        1 L64     -0.255900
      8 N3          6.0970   -4.1890   -0.8610 na        1 L64     -0.008800
      9 O3         10.1880  -10.3820   -0.8480 os        1 L64     -0.411600
     10 C4          1.0720   -0.6210    2.1280 ca        1 L64      0.439200
     11 N4          5.9060   -5.0540    0.1570 nc        1 L64     -0.509100
     12 C5         -0.9680   -0.1040    1.1930 ca        1 L64      0.411200
     13 N5          8.8060   -6.2290   -3.2280 nb        1 L64     -0.771000
     14 C6          3.2540   -0.0560    1.0510 c         1 L64      0.669700
     15 N6          7.4940   -4.1690   -2.9540 nb        1 L64     -0.721000
     16 C7          3.3980   -1.4880   -0.9740 c3        1 L64      0.078000
     17 N7         10.3760   -2.9650   -8.5660 n         1 L64     -0.467100
     18 C8          3.9640   -2.9030   -0.8240 c3        1 L64     -0.118400
     19 N8         11.6190   -2.9600  -10.6160 n         1 L64     -0.474100
     20 C9          5.4960   -2.8580   -0.9260 c3        1 L64      0.081000
     21 N9         13.5140   -4.5160  -14.0760 nb        1 L64     -0.680000
     22 C10         6.0370   -1.9090    0.1540 c3        1 L64     -0.118400
     23 N10         8.7110   -8.0650   -1.6520 nh        1 L64     -0.731300
     24 C11         5.4130   -0.5230   -0.0200 c3        1 L64      0.078000
     25 C12         7.0330   -4.7000   -1.7850 ca        1 L64      0.462800
     26 C13         7.4280   -6.0060   -1.2710 ca        1 L64     -0.460500
     27 C14         6.6620   -6.1490   -0.0500 cd        1 L64      0.380800
     28 C15         8.3480   -6.7550   -2.0570 ca        1 L64      0.728200
     29 C16         8.3610   -4.9850   -3.6190 cp        1 L64      0.757500
     30 C17         8.9010   -4.4760   -4.9090 cp        1 L64     -0.162500
     31 C18         9.2830   -3.1350   -5.0320 ca        1 L64     -0.063500
     32 C19         9.7920   -2.6550   -6.2320 ca        1 L64     -0.172500
     33 C20         9.9220   -3.5130   -7.3510 ca        1 L64      0.081600
     34 C21         9.5320   -4.8620   -7.2180 ca        1 L64     -0.172500
     35 C22         9.0330   -5.3310   -6.0070 ca        1 L64     -0.063500
     36 C23        11.0680   -3.7050   -9.5490 c         1 L64      0.781100
     37 C24        12.2200   -3.5260  -11.7490 ca        1 L64      0.109600
     38 C25        12.3270   -2.7400  -12.9250 ca        1 L64     -0.284300
     39 C26        12.9790   -3.2810  -14.0410 ca        1 L64      0.415200
     40 C27        13.4050   -5.2560  -12.9570 ca        1 L64      0.415200
     41 C28        12.7810   -4.8210  -11.7770 ca        1 L64     -0.284300
     42 C29         9.4030   -8.8950   -2.6320 c3        1 L64      0.149800
     43 C30         9.5720  -10.3360   -2.1300 c3        1 L64      0.121900
     44 C31         9.4740   -9.6190    0.1170 c3        1 L64      0.121900
     45 C32         9.3130   -8.1590   -0.3270 c3        1 L64      0.149800
     46 H1         -0.9810    0.9000   -0.7420 ha        1 L64      0.149000
     47 H2          1.5370    0.9180   -0.8950 ha        1 L64      0.149000
     48 H4          1.6260   -1.0440    2.9870 h4        1 L64      0.040100
     49 H5         -2.0680   -0.1330    1.2970 h4        1 L64      0.027100
     50 H7          2.2800   -1.5390   -0.8480 h1        1 L64      0.064950
     51 H7A         3.6120   -1.1230   -2.0210 h1        1 L64      0.064950
     52 HN7        10.4980   -1.9760   -8.5520 hn        1 L64      0.311500
     53 H8          3.6530   -3.3440    0.1580 hc        1 L64      0.068950
     54 H8A         3.5380   -3.5420   -1.6400 hc        1 L64      0.068950
     55 HN8        11.3400   -2.0090  -10.7220 hn        1 L64      0.315500
     56 H9          5.7720   -2.4390   -1.9410 h1        1 L64      0.087700
     57 H10         5.8080   -2.3110    1.1740 hc        1 L64      0.068950
     58 H10A        7.1490   -1.8070    0.0630 hc        1 L64      0.068950
     59 H11         5.7660    0.1410    0.8200 h1        1 L64      0.064950
     60 H11A        5.7700   -0.0810   -0.9950 h1        1 L64      0.064950
     61 H14         6.6390   -7.0010    0.6310 h4        1 L64      0.059800
     62 H18         9.1870   -2.4480   -4.1760 ha        1 L64      0.150000
     63 H19        10.0880   -1.5970   -6.2980 ha        1 L64      0.152000
     64 H21         9.6270   -5.5600   -8.0670 ha        1 L64      0.152000
     65 H22         8.7410   -6.3900   -5.9250 ha        1 L64      0.150000
     66 H25        11.9150   -1.7230  -12.9780 ha        1 L64      0.160500
     67 H26        13.0770   -2.6880  -14.9690 h4        1 L64      0.024100
     68 H27        13.8500   -6.2670  -13.0040 h4        1 L64      0.024100
     69 H28        12.7310   -5.4910  -10.9050 ha        1 L64      0.160500
     70 H29        10.4220   -8.4770   -2.8770 h1        1 L64      0.059450
     71 H29A        8.7930   -8.9160   -3.5770 h1        1 L64      0.059450
     72 H30        10.2800  -10.8900   -2.8000 h1        1 L64      0.058450
     73 H30A        8.5830  -10.8630   -2.0910 h1        1 L64      0.058450
     74 H31        10.1070   -9.6680    1.0410 h1        1 L64      0.058450
     75 H31A        8.4730  -10.0910    0.3070 h1        1 L64      0.058450
     76 H32        10.3300   -7.6700   -0.3160 h1        1 L64      0.059450
     77 H32A        8.6590   -7.6250    0.4150 h1        1 L64      0.059450
@<TRIPOS>BOND
     1    1    4 ar  
     2    1   12 ar  
     3    1   46 1   
     4    2   10 ar  
     5    2   12 ar  
     6    3   14 2   
     7    4    7 ar  
     8    4   47 1   
     9    5   14 1   
    10    5   16 1   
    11    5   24 1   
    12    6   36 2   
    13    7   10 ar  
    14    7   14 1   
    15    8   11 1   
    16    8   20 1   
    17    8   25 1   
    18    9   43 1   
    19    9   44 1   
    20   10   48 1   
    21   11   27 2   
    22   12   49 1   
    23   13   28 ar  
    24   13   29 ar  
    25   15   25 ar  
    26   15   29 ar  
    27   16   18 1   
    28   16   50 1   
    29   16   51 1   
    30   17   33 1   
    31   17   36 1   
    32   17   52 1   
    33   18   20 1   
    34   18   53 1   
    35   18   54 1   
    36   19   36 1   
    37   19   37 1   
    38   19   55 1   
    39   20   22 1   
    40   20   56 1   
    41   21   39 ar  
    42   21   40 ar  
    43   22   24 1   
    44   22   57 1   
    45   22   58 1   
    46   23   28 1   
    47   23   42 1   
    48   23   45 1   
    49   24   59 1   
    50   24   60 1   
    51   25   26 ar  
    52   26   27 1   
    53   26   28 ar  
    54   27   61 1   
    55   29   30 1   
    56   30   31 ar  
    57   30   35 ar  
    58   31   32 ar  
    59   31   62 1   
    60   32   33 ar  
    61   32   63 1   
    62   33   34 ar  
    63   34   35 ar  
    64   34   64 1   
    65   35   65 1   
    66   37   38 ar  
    67   37   41 ar  
    68   38   39 ar  
    69   38   66 1   
    70   39   67 1   
    71   40   41 ar  
    72   40   68 1   
    73   41   69 1   
    74   42   43 1   
    75   42   70 1   
    76   42   71 1   
    77   43   72 1   
    78   43   73 1   
    79   44   45 1   
    80   44   74 1   
    81   44   75 1   
    82   45   76 1   
    83   45   77 1   
@<TRIPOS>SUBSTRUCTURE
     1 L64         1 TEMP              0 ****  ****    0 ROOT
