@<TRIPOS>MOLECULE
L64
   77    83     1     0     0
SMALL
bcc


@<TRIPOS>ATOM
      1 C1         -8.6100   -3.9850    2.0860 ca        1 L64     -0.255300
      2 N1         -9.9390   -1.9990    1.6640 nb        1 L64     -0.664000
      3 O1         -7.6820   -1.8760   -1.9580 o         1 L64     -0.584100
      4 C2         -7.7410   -3.6530    1.0460 ca        1 L64     -0.063000
      5 N2         -5.7580   -2.0440   -0.7100 n         1 L64     -0.453800
      6 O2          6.8080   -0.9920    0.4920 o         1 L64     -0.601100
      7 C3         -7.9810   -2.4830    0.3180 ca        1 L64     -0.255900
      8 N3         -2.9610    1.2120   -0.2300 na        1 L64     -0.008800
      9 O3          1.0380    7.4630   -0.1210 os        1 L64     -0.411600
     10 C4         -9.1010   -1.6920    0.6570 ca        1 L64      0.439200
     11 N4         -3.6360    2.3750   -0.1260 nc        1 L64     -0.509100
     12 C5         -9.6910   -3.1260    2.3590 ca        1 L64      0.411200
     13 N5          0.9720    2.4820   -0.0710 nb        1 L64     -0.771000
     14 C6         -7.1490   -2.0880   -0.8510 c         1 L64      0.669700
     15 N6         -0.5330    0.5500   -0.2710 nb        1 L64     -0.721000
     16 C7         -5.1310   -1.8280    0.5750 c3        1 L64      0.078000
     17 N7          5.1640   -2.4130   -0.3440 n         1 L64     -0.467100
     18 C8         -4.5540   -0.4230    0.7690 c3        1 L64     -0.118400
     19 N8          7.4660   -3.0820   -0.2920 n         1 L64     -0.474100
     20 C9         -3.6000   -0.0930   -0.3900 c3        1 L64      0.082000
     21 N9         11.5820   -2.9570    0.7250 nb        1 L64     -0.680000
     22 C10        -4.3670   -0.2180   -1.7140 c3        1 L64     -0.118400
     23 N10         0.1670    4.7520    0.1780 nh        1 L64     -0.731300
     24 C11        -4.9500   -1.6260   -1.8400 c3        1 L64      0.078000
     25 C12        -1.5680    1.4380   -0.2160 ca        1 L64      0.462800
     26 C13        -1.3990    2.8800   -0.0920 ca        1 L64     -0.460500
     27 C14        -2.7530    3.3880   -0.0330 cd        1 L64      0.380800
     28 C15        -0.0630    3.3670   -0.0220 ca        1 L64      0.728200
     29 C16         0.6940    1.1370   -0.1840 cp        1 L64      0.757500
     30 C17         1.8730    0.2300   -0.2290 cp        1 L64     -0.162500
     31 C18         1.8980   -0.8500   -1.1190 ca        1 L64     -0.063500
     32 C19         2.9970   -1.6970   -1.1670 ca        1 L64     -0.172500
     33 C20         4.1040   -1.4870   -0.3080 ca        1 L64      0.081600
     34 C21         4.0690   -0.3990    0.5870 ca        1 L64     -0.172500
     35 C22         2.9650    0.4480    0.6170 ca        1 L64     -0.063500
     36 C23         6.4990   -2.0890   -0.0190 c         1 L64      0.780100
     37 C24         8.8150   -2.9990    0.0830 ca        1 L64      0.109600
     38 C25         9.5720   -4.1960    0.1640 ca        1 L64     -0.284300
     39 C26        10.9340   -4.1120    0.4820 ca        1 L64      0.415200
     40 C27        10.8550   -1.8270    0.6480 ca        1 L64      0.415200
     41 C28         9.4870   -1.7840    0.3340 ca        1 L64     -0.284300
     42 C29         1.5210    5.1540    0.5440 c3        1 L64      0.149800
     43 C30         1.5880    6.6440    0.9050 c3        1 L64      0.121900
     44 C31        -0.3030    7.1050   -0.4310 c3        1 L64      0.121900
     45 C32        -0.4120    5.6280   -0.8350 c3        1 L64      0.149800
     46 H1         -8.4600   -4.8970    2.6790 ha        1 L64      0.149000
     47 H2         -6.8880   -4.3030    0.7970 ha        1 L64      0.149000
     48 H4         -9.3350   -0.7760    0.0830 h4        1 L64      0.040100
     49 H5        -10.4010   -3.3510    3.1760 h4        1 L64      0.027100
     50 H7         -5.8620   -2.0280    1.4070 h1        1 L64      0.064950
     51 H7A        -4.2910   -2.5780    0.6640 h1        1 L64      0.064950
     52 HN7         5.0050   -3.2010   -0.9340 hn        1 L64      0.311500
     53 H8         -5.3800    0.3330    0.8180 hc        1 L64      0.069200
     54 H8A        -4.0050   -0.3990    1.7450 hc        1 L64      0.069200
     55 HN8         7.1500   -4.0010   -0.5140 hn        1 L64      0.315500
     56 H9         -2.7630   -0.8550   -0.3880 h1        1 L64      0.087700
     57 H10        -5.1850    0.5460   -1.7630 hc        1 L64      0.069200
     58 H10A       -3.6790   -0.0430   -2.5810 hc        1 L64      0.069200
     59 H11        -4.1030   -2.3660   -1.9280 h1        1 L64      0.064950
     60 H11A       -5.5670   -1.6800   -2.7820 h1        1 L64      0.064950
     61 H14        -3.0770    4.4230    0.0910 h4        1 L64      0.059800
     62 H18         1.0470   -1.0350   -1.7930 ha        1 L64      0.150000
     63 H19         2.9920   -2.5350   -1.8800 ha        1 L64      0.152000
     64 H21         4.9170   -0.2000    1.2640 ha        1 L64      0.152000
     65 H22         2.9620    1.2960    1.3210 ha        1 L64      0.150000
     66 H25         9.1170   -5.1790   -0.0180 ha        1 L64      0.160500
     67 H26        11.5460   -5.0300    0.5500 h4        1 L64      0.024100
     68 H27        11.4030   -0.8880    0.8510 h4        1 L64      0.024100
     69 H28         8.9650   -0.8160    0.2950 ha        1 L64      0.160500
     70 H29         1.8400    4.5550    1.4420 h1        1 L64      0.059450
     71 H29A        2.2500    4.9520   -0.2930 h1        1 L64      0.059450
     72 H30         2.6590    6.9690    0.9780 h1        1 L64      0.058450
     73 H30A        1.0550    6.8450    1.8710 h1        1 L64      0.058450
     74 H31        -0.9670    7.3290    0.4450 h1        1 L64      0.058450
     75 H31A       -0.5750    7.7580   -1.3020 h1        1 L64      0.058450
     76 H32         0.1100    5.4900   -1.8260 h1        1 L64      0.059450
     77 H32A       -1.4970    5.3690   -0.9710 h1        1 L64      0.059450
@<TRIPOS>BOND
     1    1    4 ar  
     2    1   12 ar  
     3    1   46 1   
     4    2   10 ar  
     5    2   12 ar  
     6    3   14 2   
     7    4    7 ar  
     8    4   47 1   
     9    5   14 1   
    10    5   16 1   
    11    5   24 1   
    12    6   36 2   
    13    7   10 ar  
    14    7   14 1   
    15    8   11 1   
    16    8   20 1   
    17    8   25 1   
    18    9   43 1   
    19    9   44 1   
    20   10   48 1   
    21   11   27 2   
    22   12   49 1   
    23   13   28 ar  
    24   13   29 ar  
    25   15   25 ar  
    26   15   29 ar  
    27   16   18 1   
    28   16   50 1   
    29   16   51 1   
    30   17   33 1   
    31   17   36 1   
    32   17   52 1   
    33   18   20 1   
    34   18   53 1   
    35   18   54 1   
    36   19   36 1   
    37   19   37 1   
    38   19   55 1   
    39   20   22 1   
    40   20   56 1   
    41   21   39 ar  
    42   21   40 ar  
    43   22   24 1   
    44   22   57 1   
    45   22   58 1   
    46   23   28 1   
    47   23   42 1   
    48   23   45 1   
    49   24   59 1   
    50   24   60 1   
    51   25   26 ar  
    52   26   27 1   
    53   26   28 ar  
    54   27   61 1   
    55   29   30 1   
    56   30   31 ar  
    57   30   35 ar  
    58   31   32 ar  
    59   31   62 1   
    60   32   33 ar  
    61   32   63 1   
    62   33   34 ar  
    63   34   35 ar  
    64   34   64 1   
    65   35   65 1   
    66   37   38 ar  
    67   37   41 ar  
    68   38   39 ar  
    69   38   66 1   
    70   39   67 1   
    71   40   41 ar  
    72   40   68 1   
    73   41   69 1   
    74   42   43 1   
    75   42   70 1   
    76   42   71 1   
    77   43   72 1   
    78   43   73 1   
    79   44   45 1   
    80   44   74 1   
    81   44   75 1   
    82   45   76 1   
    83   45   77 1   
@<TRIPOS>SUBSTRUCTURE
     1 L64         1 TEMP              0 ****  ****    0 ROOT
