@<TRIPOS>MOLECULE
L64
   77    83     1     0     0
SMALL
bcc


@<TRIPOS>ATOM
      1 C1         -0.3670    0.4390   -0.0340 ca        1 L64     -0.255300
      2 N1         -0.3240   -0.6900    2.1140 nb        1 L64     -0.664000
      3 O1          3.7960    0.4270    2.0500 o         1 L64     -0.584100
      4 C2          1.0280    0.4580   -0.0770 ca        1 L64     -0.063000
      5 N2          3.9700   -0.5140   -0.0410 n         1 L64     -0.453800
      6 O2         11.1440   -4.9540   -9.4930 o         1 L64     -0.601100
      7 C3          1.7420   -0.1060    0.9860 ca        1 L64     -0.255900
      8 N3          6.1550   -4.1590   -0.8160 na        1 L64     -0.008800
      9 O3         10.2000  -10.3810   -0.8450 os        1 L64     -0.411600
     10 C4          1.0200   -0.6590    2.0660 ca        1 L64      0.439200
     11 N4          5.9630   -5.0250    0.2000 nc        1 L64     -0.509100
     12 C5         -0.9960   -0.1480    1.0790 ca        1 L64      0.411200
     13 N5          8.8230   -6.2190   -3.2120 nb        1 L64     -0.771000
     14 C6          3.2270   -0.0670    1.0560 c         1 L64      0.669700
     15 N6          7.5280   -4.1510   -2.9250 nb        1 L64     -0.721000
     16 C7          3.4380   -1.4780   -0.9780 c3        1 L64      0.078000
     17 N7         10.3620   -2.9660   -8.5650 ns        1 L64     -0.467100
     18 C8          4.0110   -2.8890   -0.8280 c3        1 L64     -0.118900
     19 N8         11.5850   -2.9700  -10.6270 ns        1 L64     -0.474100
     20 C9          5.5450   -2.8320   -0.8850 c3        1 L64      0.082000
     21 N9         13.4390   -4.5400  -14.1040 nb        1 L64     -0.680000
     22 C10         6.0480   -1.8910    0.2190 c3        1 L64     -0.118900
     23 N10         8.7300   -8.0550   -1.6360 nh        1 L64     -0.731300
     24 C11         5.4180   -0.5080    0.0430 c3        1 L64      0.078000
     25 C12         7.0750   -4.6790   -1.7520 ca        1 L64      0.462800
     26 C13         7.4640   -5.9880   -1.2420 ca        1 L64     -0.460500
     27 C14         6.7090   -6.1250   -0.0150 cd        1 L64      0.380800
     28 C15         8.3720   -6.7430   -2.0370 ca        1 L64      0.728200
     29 C16         8.3820   -4.9720   -3.5980 cp        1 L64      0.757500
     30 C17         8.9140   -4.4660   -4.8940 cp        1 L64     -0.162500
     31 C18         9.3030   -3.1280   -5.0200 ca        1 L64     -0.063500
     32 C19         9.8030   -2.6520   -6.2260 ca        1 L64     -0.172500
     33 C20         9.9160   -3.5110   -7.3460 ca        1 L64      0.081600
     34 C21         9.5180   -4.8570   -7.2090 ca        1 L64     -0.172500
     35 C22         9.0290   -5.3230   -5.9930 ca        1 L64     -0.063500
     36 C23        11.0400   -3.7110   -9.5550 c         1 L64      0.780100
     37 C24        12.1730   -3.5400  -11.7660 ca        1 L64      0.109600
     38 C25        12.2730   -2.7550  -12.9440 ca        1 L64     -0.284300
     39 C26        12.9110   -3.3010  -14.0650 ca        1 L64      0.415200
     40 C27        13.3360   -5.2780  -12.9830 ca        1 L64      0.415200
     41 C28        12.7250   -4.8380  -11.7970 ca        1 L64     -0.284300
     42 C29         9.4080   -8.8890   -2.6220 c3        1 L64      0.149800
     43 C30         9.5720  -10.3310   -2.1220 c3        1 L64      0.121900
     44 C31         9.4990   -9.6140    0.1260 c3        1 L64      0.121900
     45 C32         9.3440   -8.1530   -0.3160 c3        1 L64      0.149800
     46 H1         -0.9640    0.8750   -0.8450 ha        1 L64      0.149000
     47 H2          1.5580    0.9140   -0.9270 ha        1 L64      0.149000
     48 H4          1.5530   -1.0870    2.9360 h4        1 L64      0.040100
     49 H5         -2.0990   -0.1860    1.1520 h4        1 L64      0.027100
     50 H7          3.6790   -1.0990   -2.0150 h1        1 L64      0.064950
     51 H7A         2.3180   -1.5380   -0.8840 h1        1 L64      0.064950
     52 HN7        10.4910   -1.9780   -8.5530 hn        1 L64      0.311500
     53 H8          3.6760   -3.3430    0.1400 hc        1 L64      0.068950
     54 H8A         3.6130   -3.5220   -1.6620 hc        1 L64      0.068950
     55 HN8        11.3110   -2.0180  -10.7310 hn        1 L64      0.315500
     56 H9          5.8470   -2.4000   -1.8870 h1        1 L64      0.087700
     57 H10         7.1610   -1.7800    0.1610 hc        1 L64      0.068950
     58 H10A        5.7940   -2.3060    1.2280 hc        1 L64      0.068950
     59 H11         5.8000   -0.0530   -0.9170 h1        1 L64      0.064950
     60 H11A        5.7430    0.1500    0.8990 h1        1 L64      0.064950
     61 H14         6.6870   -6.9770    0.6670 h4        1 L64      0.059800
     62 H18         9.2200   -2.4410   -4.1640 ha        1 L64      0.150000
     63 H19        10.1060   -1.5970   -6.2950 ha        1 L64      0.152000
     64 H21         9.6010   -5.5560   -8.0580 ha        1 L64      0.152000
     65 H22         8.7300   -6.3800   -5.9080 ha        1 L64      0.150000
     66 H25        11.8660   -1.7370  -12.9930 ha        1 L64      0.160500
     67 H26        13.0040   -2.7100  -14.9940 h4        1 L64      0.024100
     68 H27        13.7750   -6.2920  -13.0340 h4        1 L64      0.024100
     69 H28        12.6800   -5.5080  -10.9250 ha        1 L64      0.160500
     70 H29        10.4270   -8.4770   -2.8760 h1        1 L64      0.059450
     71 H29A        8.7890   -8.9060   -3.5610 h1        1 L64      0.059450
     72 H30        10.2710  -10.8900   -2.7990 h1        1 L64      0.058450
     73 H30A        8.5800  -10.8520   -2.0730 h1        1 L64      0.058450
     74 H31         8.4980  -10.0790    0.3250 h1        1 L64      0.058450
     75 H31A       10.1420   -9.6680    1.0440 h1        1 L64      0.058450
     76 H32        10.3650   -7.6700   -0.3150 h1        1 L64      0.059450
     77 H32A        8.7000   -7.6150    0.4320 h1        1 L64      0.059450
@<TRIPOS>BOND
     1    1    4 ar  
     2    1   12 ar  
     3    1   46 1   
     4    2   10 ar  
     5    2   12 ar  
     6    3   14 2   
     7    4    7 ar  
     8    4   47 1   
     9    5   14 1   
    10    5   16 1   
    11    5   24 1   
    12    6   36 2   
    13    7   10 ar  
    14    7   14 1   
    15    8   11 1   
    16    8   20 1   
    17    8   25 1   
    18    9   43 1   
    19    9   44 1   
    20   10   48 1   
    21   11   27 2   
    22   12   49 1   
    23   13   28 ar  
    24   13   29 ar  
    25   15   25 ar  
    26   15   29 ar  
    27   16   18 1   
    28   16   50 1   
    29   16   51 1   
    30   17   33 1   
    31   17   36 1   
    32   17   52 1   
    33   18   20 1   
    34   18   53 1   
    35   18   54 1   
    36   19   36 1   
    37   19   37 1   
    38   19   55 1   
    39   20   22 1   
    40   20   56 1   
    41   21   39 ar  
    42   21   40 ar  
    43   22   24 1   
    44   22   57 1   
    45   22   58 1   
    46   23   28 1   
    47   23   42 1   
    48   23   45 1   
    49   24   59 1   
    50   24   60 1   
    51   25   26 ar  
    52   26   27 1   
    53   26   28 ar  
    54   27   61 1   
    55   29   30 1   
    56   30   31 ar  
    57   30   35 ar  
    58   31   32 ar  
    59   31   62 1   
    60   32   33 ar  
    61   32   63 1   
    62   33   34 ar  
    63   34   35 ar  
    64   34   64 1   
    65   35   65 1   
    66   37   38 ar  
    67   37   41 ar  
    68   38   39 ar  
    69   38   66 1   
    70   39   67 1   
    71   40   41 ar  
    72   40   68 1   
    73   41   69 1   
    74   42   43 1   
    75   42   70 1   
    76   42   71 1   
    77   43   72 1   
    78   43   73 1   
    79   44   45 1   
    80   44   74 1   
    81   44   75 1   
    82   45   76 1   
    83   45   77 1   
@<TRIPOS>SUBSTRUCTURE
     1 L64         1 TEMP              0 ****  ****    0 ROOT
