@<TRIPOS>MOLECULE
L64
   79    85     1     0     0
SMALL
bcc


@<TRIPOS>ATOM
      1 C1         -0.0660    0.2220    1.5880 ca        1 L64     -0.252300
      2 N1          1.3060   -0.1460    3.5560 nb        1 L64     -0.656000
      3 O1          4.5410    0.7220    0.9330 o         1 L64     -0.574100
      4 C2          1.0620    0.1940    0.7680 ca        1 L64     -0.062000
      5 N2          3.6570   -0.7160   -0.6230 n         1 L64     -0.457800
      6 O2         11.2640   -1.1020   -9.9160 o         1 L64     -0.303100
      7 C3          2.3170   -0.0090    1.3560 ca        1 L64     -0.272900
      8 N3          5.7280   -4.4160   -1.4890 na        1 L64      0.029200
      9 O3         10.6980   -9.9150   -1.6060 os        1 L64     -0.395600
     10 C4          2.3890   -0.1600    2.7590 ca        1 L64      0.445200
     11 N4          5.7260   -5.2880   -0.4680 nc        1 L64     -0.466100
     12 C5          0.1050    0.0430    2.9740 ca        1 L64      0.425200
     13 N5          8.6660   -5.9970   -3.9470 nb        1 L64     -0.801000
     14 C6          3.5790    0.0160    0.5770 c         1 L64      0.674700
     15 N6          7.0390   -4.1730   -3.6230 nb        1 L64     -0.690000
     16 C7          2.8900   -1.9250   -0.8160 c3        1 L64      0.078000
     17 N7          9.5180   -2.6140   -9.3760 n4        1 L64     -0.479200
     18 C8          3.6930   -3.2200   -0.6430 c3        1 L64     -0.118900
     19 N8         11.9920   -3.1220   -8.9170 n4        1 L64     -0.504200
     20 C9          4.9350   -3.1790   -1.5430 c3        1 L64      0.076000
     21 N9         13.6100   -5.6990  -11.9180 nb        1 L64     -0.568000
     22 C10         5.7670   -1.9360   -1.1950 c3        1 L64     -0.118900
     23 N10         8.9420   -7.7980   -2.3680 nh        1 L64     -0.733300
     24 C11         4.8990   -0.6860   -1.3660 c3        1 L64      0.078000
     25 C12         6.7100   -4.7640   -2.4350 ca        1 L64      0.434800
     26 C13         7.3420   -5.9850   -1.9360 ca        1 L64     -0.423500
     27 C14         6.6490   -6.2470   -0.6950 cd        1 L64      0.383800
     28 C15         8.3500   -6.5850   -2.7490 ca        1 L64      0.755200
     29 C16         7.9970   -4.8520   -4.3090 cp        1 L64      0.671500
     30 C17         8.3970   -4.2690   -5.6190 cp        1 L64      0.010500
     31 C18         8.4120   -2.8760   -5.8020 ca        1 L64     -0.075000
     32 C19         8.7930   -2.3230   -7.0200 ca        1 L64     -0.110000
     33 C20         9.1790   -3.1800   -8.0710 ca        1 L64     -0.172400
     34 C21         9.1550   -4.5830   -7.9060 ca        1 L64     -0.110000
     35 C22         8.7650   -5.1130   -6.6860 ca        1 L64     -0.075000
     36 C23        10.9530   -2.1860   -9.4500 c         1 L64      0.485100
     37 C24        12.5120   -4.0040   -9.9780 ca        1 L64     -0.053400
     38 C25        13.3030   -3.4670  -11.0080 ca        1 L64     -0.230300
     39 C26        13.8290   -4.3740  -11.9570 ca        1 L64      0.459200
     40 C27        12.8520   -6.1900  -10.9190 ca        1 L64      0.459200
     41 C28        12.2700   -5.3880   -9.9140 ca        1 L64     -0.230300
     42 C29         9.7140   -8.5310   -3.3630 c3        1 L64      0.157800
     43 C30        10.0710   -9.9470   -2.8800 c3        1 L64      0.118900
     44 C31         9.8700   -9.3030   -0.6250 c3        1 L64      0.118900
     45 C32         9.5140   -7.8640   -1.0270 c3        1 L64      0.157800
     46 H1         -1.0670    0.3870    1.1680 ha        1 L64      0.156000
     47 H2          0.9690    0.3420   -0.3190 ha        1 L64      0.146000
     48 H4          3.3660   -0.2870    3.2610 h4        1 L64      0.041100
     49 H5         -0.7630    0.0570    3.6600 h4        1 L64      0.038100
     50 H7          2.4750   -1.8950   -1.8660 h1        1 L64      0.067950
     51 H7A         2.0210   -1.9540   -0.1010 h1        1 L64      0.067950
     52 HN7         8.9360   -1.7680   -9.5520 hn        1 L64      0.508800
     53 H8          3.0370   -4.0850   -0.9200 hc        1 L64      0.071700
     54 H8A         3.9920   -3.3440    0.4300 hc        1 L64      0.071700
     55 HN8        12.7780   -2.5420   -8.5580 hn        1 L64      0.508800
     56 H9          4.5960   -3.0970   -2.6210 h1        1 L64      0.073700
     57 H10         6.6510   -1.8510   -1.8760 hc        1 L64      0.071700
     58 H10A        6.1430   -2.0020   -0.1410 hc        1 L64      0.071700
     59 H11         4.6310   -0.5760   -2.4560 h1        1 L64      0.067950
     60 H11A        5.5010    0.2150   -1.0550 h1        1 L64      0.067950
     61 H14         6.7770   -7.0860   -0.0050 h4        1 L64      0.079800
     62 H18         8.1030   -2.2010   -4.9790 ha        1 L64      0.208500
     63 H19         8.7730   -1.2260   -7.1410 ha        1 L64      0.161500
     64 H21         9.3970   -5.2660   -8.7380 ha        1 L64      0.161500
     65 H22         8.7310   -6.2120   -6.5560 ha        1 L64      0.208500
     66 H25        13.5330   -2.3930  -11.0950 ha        1 L64      0.180000
     67 H26        14.4680   -4.0050  -12.7900 h4        1 L64      0.088600
     68 H27        12.7050   -7.2920  -10.9140 h4        1 L64      0.088600
     69 H28        11.6820   -5.8620   -9.1130 ha        1 L64      0.180000
     70 H29         9.0990   -8.6250   -4.3000 h1        1 L64      0.056450
     71 H29A       10.6680   -7.9830   -3.6110 h1        1 L64      0.056450
     72 H30        10.8380  -10.3980   -3.5620 h1        1 L64      0.072200
     73 H30A        9.1560  -10.5950   -2.8410 h1        1 L64      0.072200
     74 H31        10.4950   -9.2930    0.3070 h1        1 L64      0.072200
     75 H31A        8.9450   -9.9170   -0.4670 h1        1 L64      0.072200
     76 H32         8.7780   -7.4550   -0.2830 h1        1 L64      0.056450
     77 H32A       10.4510   -7.2380   -0.9800 h1        1 L64      0.056450
     78 H72         9.3280   -3.3060  -10.1220 hn        1 L64      0.508800
     79 H82        11.6120   -3.6940   -8.1390 hn        1 L64      0.508800
@<TRIPOS>BOND
     1    1    4 ar  
     2    1   12 ar  
     3    1   46 1   
     4    2   10 ar  
     5    2   12 ar  
     6    3   14 2   
     7    4    7 ar  
     8    4   47 1   
     9    5   14 1   
    10    5   16 1   
    11    5   24 1   
    12    6   36 2   
    13    7   10 ar  
    14    7   14 1   
    15    8   11 1   
    16    8   20 1   
    17    8   25 1   
    18    9   43 1   
    19    9   44 1   
    20   10   48 1   
    21   11   27 2   
    22   12   49 1   
    23   13   28 ar  
    24   13   29 ar  
    25   15   25 ar  
    26   15   29 ar  
    27   16   18 1   
    28   16   50 1   
    29   16   51 1   
    30   17   33 1   
    31   17   36 1   
    32   17   52 1   
    33   17   78 1   
    34   18   20 1   
    35   18   53 1   
    36   18   54 1   
    37   19   36 1   
    38   19   37 1   
    39   19   55 1   
    40   19   79 1   
    41   20   22 1   
    42   20   56 1   
    43   21   39 ar  
    44   21   40 ar  
    45   22   24 1   
    46   22   57 1   
    47   22   58 1   
    48   23   28 1   
    49   23   42 1   
    50   23   45 1   
    51   24   59 1   
    52   24   60 1   
    53   25   26 ar  
    54   26   27 1   
    55   26   28 ar  
    56   27   61 1   
    57   29   30 1   
    58   30   31 ar  
    59   30   35 ar  
    60   31   32 ar  
    61   31   62 1   
    62   32   33 ar  
    63   32   63 1   
    64   33   34 ar  
    65   34   35 ar  
    66   34   64 1   
    67   35   65 1   
    68   37   38 ar  
    69   37   41 ar  
    70   38   39 ar  
    71   38   66 1   
    72   39   67 1   
    73   40   41 ar  
    74   40   68 1   
    75   41   69 1   
    76   42   43 1   
    77   42   70 1   
    78   42   71 1   
    79   43   72 1   
    80   43   73 1   
    81   44   45 1   
    82   44   74 1   
    83   44   75 1   
    84   45   76 1   
    85   45   77 1   
@<TRIPOS>SUBSTRUCTURE
     1 L64         1 TEMP              0 ****  ****    0 ROOT
