@<TRIPOS>MOLECULE
L64
   77    68     1     0     0
SMALL
bcc


@<TRIPOS>ATOM
      1 C1         -4.9730    7.6160    3.6840 c1        1 L64     -0.123500
      2 N1         -5.1720    7.0080    5.9850 n1        1 L64     -0.148000
      3 O1         -2.2720    5.1890    6.5260 o         1 L64     -0.346000
      4 C2         -3.7060    7.1000    3.6500 c1        1 L64     -0.123500
      5 N2         -2.2260    4.1630    4.4580 n         1 L64     -0.312000
      6 O2          0.1890   -4.5920   -5.2920 o         1 L64     -0.362000
      7 C3         -3.1670    6.5390    4.7760 c1        1 L64     -0.169000
      8 N3          0.5580    2.1480    2.0150 n2        1 L64     -0.144000
      9 O3          5.8560   -3.0460    1.7550 os        1 L64     -0.268000
     10 C4         -3.9070    6.4930    5.9530 c1        1 L64     -0.042000
     11 N4          1.5810    2.3600    2.9060 n2        1 L64     -0.044000
     12 C5         -5.7120    7.5690    4.8620 c1        1 L64     -0.053000
     13 N5          2.0890   -1.0240   -0.0920 n1        1 L64     -0.245000
     14 C6         -2.4810    5.2880    5.3290 c2        1 L64      0.343000
     15 N6          0.2630    0.4710    0.1640 n1        1 L64     -0.194000
     16 C7         -1.7180    2.8780    4.9450 c3        1 L64     -0.038000
     17 N7         -1.1710   -2.7380   -5.2790 n         1 L64     -0.322000
     18 C8         -0.4910    2.4110    4.1710 c3        1 L64     -0.196500
     19 N8         -1.2440   -4.4410   -7.0870 n         1 L64     -0.328000
     20 C9         -0.7130    2.4300    2.6920 c2        1 L64      0.061000
     21 N9          0.1090   -7.9280   -8.9740 n1        1 L64     -0.148000
     22 C10        -1.2320    3.7500    2.2200 c3        1 L64     -0.196500
     23 N10         3.5710   -1.3550    1.6570 n3        1 L64     -0.222000
     24 C11        -2.4540    4.2060    3.0110 c3        1 L64     -0.038000
     25 C12         0.9110    1.0870    1.2040 c1        1 L64      0.071000
     26 C13         2.1310    0.6530    1.5900 c1        1 L64     -0.246000
     27 C14         2.5510    1.4490    2.6550 c1        1 L64     -0.119000
     28 C15         2.7290   -0.4200    0.9300 c1        1 L64      0.206000
     29 C16         0.8510   -0.5830   -0.4820 c1        1 L64      0.125000
     30 C17         0.3620   -1.1370   -1.6850 c1        1 L64     -0.056000
     31 C18         0.7660   -0.6120   -2.9090 c1        1 L64     -0.123500
     32 C19         0.2880   -1.1630   -4.0960 c1        1 L64     -0.123500
     33 C20        -0.5950   -2.2400   -4.0590 c1        1 L64      0.090000
     34 C21        -0.9990   -2.7660   -2.8340 c1        1 L64     -0.152000
     35 C22        -0.5200   -2.2140   -1.6470 c1        1 L64     -0.063000
     36 C23        -0.7000   -3.9680   -5.8450 c2        1 L64      0.408000
     37 C24        -0.7410   -5.6470   -7.6770 c2        1 L64      0.117000
     38 C25        -1.4160   -6.8260   -7.5050 c2        1 L64     -0.240000
     39 C26        -0.9860   -7.9750   -8.1600 c1        1 L64     -0.049000
     40 C27         0.7840   -6.7520   -9.1470 c1        1 L64     -0.053000
     41 C28         0.3570   -5.6020   -8.4940 c1        1 L64     -0.198000
     42 C29         3.5750   -2.6090    0.9890 c3        1 L64     -0.087000
     43 C30         4.5540   -3.5940    1.6110 c3        1 L64     -0.028000
     44 C31         5.8530   -1.7930    2.4220 c3        1 L64     -0.028000
     45 C32         4.8750   -0.8070    1.8000 c3        1 L64     -0.087000
     46 H1         -5.3590    8.0160    2.8810 ha        1 L64      0.146500
     47 H2         -3.1860    7.1320    2.8210 ha        1 L64      0.146500
     48 H4         -3.5210    6.0910    6.7600 ha        1 L64      0.170000
     49 H5         -6.6230    7.9390    4.8870 ha        1 L64      0.163500
     50 H7         -1.4800    2.9680    5.8960 h1        1 L64      0.105000
     51 H7A        -2.4270    2.2000    4.8560 h1        1 L64      0.105000
     52 HN7        -1.8370   -2.2620   -5.7010 hn        1 L64      0.226000
     53 H8          0.2660    3.0010    4.3870 hc        1 L64      0.108250
     54 H8A        -0.2680    1.4920    4.4490 hc        1 L64      0.108250
     55 HN8        -1.9140   -3.9740   -7.5010 hn        1 L64      0.229000
     56 H9         -1.3620    1.7300    2.4570 ha        1 L64      0.126000
     57 H10        -0.5230    4.4230    2.3140 hc        1 L64      0.108250
     58 H10A       -1.4770    3.6750    1.2690 hc        1 L64      0.108250
     59 H11        -2.6760    5.1240    2.7510 h1        1 L64      0.105000
     60 H11A       -3.2100    3.6220    2.7910 h1        1 L64      0.105000
     61 H14         3.4010    1.3630    3.1370 DU        1 L64      0.188000
     62 H18         1.3880    0.1480   -2.9360 ha        1 L64      0.146500
     63 H19         0.5730   -0.7920   -4.9590 ha        1 L64      0.146500
     64 H21        -1.6220   -3.5260   -2.8070 ha        1 L64      0.173000
     65 H22        -0.8050   -2.5850   -0.7850 ha        1 L64      0.152000
     66 H25        -2.2030   -6.8600   -6.9190 ha        1 L64      0.139000
     67 H26        -1.4690   -8.8200   -8.0360 ha        1 L64      0.159000
     68 H27         1.5710   -6.7200   -9.7330 ha        1 L64      0.163500
     69 H28         0.8410   -4.7590   -8.6180 ha        1 L64      0.182000
     70 H29         2.6730   -2.9910    1.0260 h1        1 L64      0.098500
     71 H29A        3.8230   -2.4660    0.0440 h1        1 L64      0.098500
     72 H30         4.2190   -3.8570    2.5010 h1        1 L64      0.098000
     73 H30A        4.6060   -4.3930    1.0420 h1        1 L64      0.098000
     74 H31         6.7590   -1.4100    2.3850 h1        1 L64      0.098000
     75 H31A        5.6070   -1.9350    3.3610 h1        1 L64      0.098000
     76 H32         5.2090   -0.5450    0.9140 h1        1 L64      0.098500
     77 H32A        4.8240   -0.0070    2.3710 h1        1 L64      0.098500
@<TRIPOS>BOND
     1    1    4 1   
     2    1   46 1   
     3    2   12 1   
     4    3   14 1   
     5    4   47 1   
     6    5   14 1   
     7    5   16 1   
     8    5   24 1   
     9    6   36 1   
    10    7   10 1   
    11    7   14 1   
    12    8   11 1   
    13    8   25 1   
    14    9   43 1   
    15    9   44 1   
    16   10   48 1   
    17   11   27 1   
    18   12   49 1   
    19   13   29 1   
    20   15   25 1   
    21   16   18 1   
    22   16   50 1   
    23   16   51 1   
    24   17   33 1   
    25   17   36 1   
    26   17   52 1   
    27   18   20 1   
    28   18   53 1   
    29   18   54 1   
    30   19   36 1   
    31   19   37 1   
    32   19   55 1   
    33   20   22 1   
    34   20   56 1   
    35   21   40 1   
    36   22   24 1   
    37   22   57 1   
    38   22   58 1   
    39   23   28 1   
    40   23   42 1   
    41   23   45 1   
    42   24   59 1   
    43   24   60 1   
    44   26   28 1   
    45   30   35 1   
    46   31   32 1   
    47   31   62 1   
    48   32   63 1   
    49   33   34 1   
    50   34   64 1   
    51   35   65 1   
    52   37   38 1   
    53   37   41 1   
    54   38   39 1   
    55   38   66 1   
    56   39   67 1   
    57   40   68 1   
    58   41   69 1   
    59   42   43 1   
    60   42   70 1   
    61   42   71 1   
    62   43   72 1   
    63   43   73 1   
    64   44   45 1   
    65   44   74 1   
    66   44   75 1   
    67   45   76 1   
    68   45   77 1   
@<TRIPOS>SUBSTRUCTURE
     1 L64         1 TEMP              0 ****  ****    0 ROOT
