@<TRIPOS>MOLECULE
L66
   50    54     1     0     0
SMALL
bcc


@<TRIPOS>ATOM
      1 O2         -0.1020   -0.0840   -0.0880 o         1 L66     -0.647500
      2 C17         1.1500   -0.0720   -0.0700 c         1 L66      0.817500
      3 N4          1.8210   -0.1350    1.1640 ns        1 L66     -0.583500
      4 C16         3.2200   -0.1330    1.3170 c         1 L66      0.770100
      5 O3          3.7190   -0.1890    2.4550 o         1 L66     -0.630500
      6 N5          1.8840    0.0050   -1.2800 n         1 L66     -0.422300
      7 C18         1.2060    0.0710   -2.5470 c3        1 L66      0.090300
      8 C2          3.2720    0.0120   -1.2180 cc        1 L66      0.520200
      9 C3          3.9370   -0.0600    0.0660 cd        1 L66     -0.367200
     10 N1          4.1730    0.0810   -2.2920 nc        1 L66     -0.692000
     11 C1          5.3960    0.0470   -1.6520 cd        1 L66      0.522000
     12 N2          5.2950   -0.0420   -0.2140 na        1 L66     -0.086900
     13 C4          6.5790   -0.0390    0.3200 cc        1 L66     -0.106300
     14 N3          6.7530    0.1370   -1.9790 na        1 L66     -0.106000
     15 C5          7.4780    0.0420   -0.7560 cd        1 L66     -0.031300
     16 C10         8.9320    0.0340   -0.6700 ca        1 L66     -0.004000
     17 C11         9.6290    1.1110   -0.0900 ca        1 L66     -0.078300
     18 C40         8.9180    2.3140    0.4020 c3        1 L66     -0.054800
     19 C12        11.0230    1.0420    0.0090 ca        1 L66     -0.100000
     20 C13        11.7260   -0.0640   -0.4600 ca        1 L66     -0.193000
     21 C15         9.6220   -1.0810   -1.1530 ca        1 L66     -0.124000
     22 C14        11.0200   -1.1240   -1.0440 ca        1 L66      0.113100
     23 O41        11.6390   -2.2500   -1.5400 oh        1 L66     -0.497100
     24 C32         7.2600    0.0250   -3.2940 ca        1 L66     -0.033200
     25 C33         7.5180    1.1960   -4.0320 ca        1 L66     -0.066000
     26 C34         8.0020    1.1220   -5.3350 ca        1 L66     -0.165000
     27 C35         8.2360   -0.1170   -5.9290 ca        1 L66     -0.075000
     28 C36         7.9920   -1.2920   -5.2240 ca        1 L66     -0.203000
     29 C37         7.5080   -1.2350   -3.9100 ca        1 L66      0.148100
     30 O38         7.2690   -2.3530   -3.1410 os        1 L66     -0.322900
     31 C39         7.3380   -3.6110   -3.8060 c3        1 L66      0.111700
     32 H1          1.2480   -0.1870    1.9780 hn        1 L66      0.355500
     33 H2          1.5060   -0.8060   -3.1800 h1        1 L66      0.062700
     34 H3          1.4940    1.0180   -3.0780 h1        1 L66      0.062700
     35 H4          0.0950    0.0550   -2.3830 h1        1 L66      0.062700
     36 H5          6.7700   -0.1020    1.3930 h4        1 L66      0.211000
     37 H6          8.5660    2.9320   -0.4630 hc        1 L66      0.049367
     38 H7          9.5860    2.9470    1.0370 hc        1 L66      0.049367
     39 H8          8.0240    2.0250    1.0100 hc        1 L66      0.049367
     40 H9         11.5750    1.8780    0.4660 ha        1 L66      0.138000
     41 H10        12.8210   -0.1050   -0.3750 ha        1 L66      0.137000
     42 H11         9.0800   -1.9210   -1.6170 ha        1 L66      0.168000
     43 H12        12.5900   -2.1580   -1.3830 ho        1 L66      0.420000
     44 H13         7.3300    2.1830   -3.5780 ha        1 L66      0.151000
     45 H14         8.1960    2.0480   -5.8950 ha        1 L66      0.143000
     46 H15         8.6150   -0.1700   -6.9610 ha        1 L66      0.139000
     47 H16         8.1820   -2.2620   -5.7050 ha        1 L66      0.145000
     48 H17         8.3860   -3.8250   -4.1270 h1        1 L66      0.051367
     49 H18         6.6420   -3.6390   -4.6790 h1        1 L66      0.051367
     50 H19         7.0110   -4.3350   -3.0150 h1        1 L66      0.051367
@<TRIPOS>BOND
     1    1    2 2   
     2    2    3 1   
     3    2    6 1   
     4    3    4 1   
     5    3   32 1   
     6    4    5 2   
     7    4    9 1   
     8    6    7 1   
     9    6    8 1   
    10    7   33 1   
    11    7   34 1   
    12    7   35 1   
    13    8    9 2   
    14    8   10 1   
    15    9   12 1   
    16   10   11 2   
    17   11   12 1   
    18   11   14 1   
    19   12   13 1   
    20   13   15 2   
    21   13   36 1   
    22   14   15 1   
    23   14   24 1   
    24   15   16 1   
    25   16   17 ar  
    26   16   21 ar  
    27   17   18 1   
    28   17   19 ar  
    29   18   37 1   
    30   18   38 1   
    31   18   39 1   
    32   19   20 ar  
    33   19   40 1   
    34   20   22 ar  
    35   20   41 1   
    36   21   22 ar  
    37   21   42 1   
    38   22   23 1   
    39   23   43 1   
    40   24   25 ar  
    41   24   29 ar  
    42   25   26 ar  
    43   25   44 1   
    44   26   27 ar  
    45   26   45 1   
    46   27   28 ar  
    47   27   46 1   
    48   28   29 ar  
    49   28   47 1   
    50   29   30 1   
    51   30   31 1   
    52   31   48 1   
    53   31   49 1   
    54   31   50 1   
@<TRIPOS>SUBSTRUCTURE
     1 L66         1 TEMP              0 ****  ****    0 ROOT
