@<TRIPOS>MOLECULE
L66
   50    54     1     0     0
SMALL
bcc


@<TRIPOS>ATOM
      1 O2         -0.0970   -0.1400   -0.0860 o         1 L66     -0.647500
      2 C17         1.1540   -0.1180   -0.0680 c         1 L66      0.817500
      3 N4          1.8270   -0.1760    1.1660 n         1 L66     -0.583500
      4 C16         3.2260   -0.1620    1.3190 c         1 L66      0.770100
      5 O3          3.7250   -0.2150    2.4570 o         1 L66     -0.630500
      6 N5          1.8870   -0.0330   -1.2780 n         1 L66     -0.422300
      7 C18         1.2080    0.0290   -2.5450 c3        1 L66      0.090300
      8 C2          3.2750   -0.0140   -1.2170 cc        1 L66      0.520200
      9 C3          3.9410   -0.0820    0.0670 cd        1 L66     -0.367200
     10 N1          4.1750    0.0640   -2.2900 nc        1 L66     -0.692000
     11 C1          5.3990    0.0390   -1.6520 cd        1 L66      0.522000
     12 N2          5.2990   -0.0530   -0.2130 na        1 L66     -0.086900
     13 C4          6.5830   -0.0390    0.3200 cc        1 L66     -0.106300
     14 N3          6.7540    0.1410   -1.9790 na        1 L66     -0.106000
     15 C5          7.4810    0.0510   -0.7560 cd        1 L66     -0.031300
     16 C10         8.9350    0.0550   -0.6710 ca        1 L66     -0.004000
     17 C11         9.6230    1.1370   -0.0890 ca        1 L66     -0.078300
     18 C40         8.9030    2.3330    0.4050 c3        1 L66     -0.054800
     19 C12        11.0180    1.0790    0.0090 ca        1 L66     -0.100000
     20 C13        11.7300   -0.0200   -0.4630 ca        1 L66     -0.193000
     21 C15         9.6340   -1.0540   -1.1550 ca        1 L66     -0.124000
     22 C14        11.0330   -1.0850   -1.0480 ca        1 L66      0.113100
     23 O41        11.6600   -2.2050   -1.5450 oh        1 L66     -0.497100
     24 C32         7.2620    0.0340   -3.2940 ca        1 L66     -0.033200
     25 C33         7.5110    1.2080   -4.0310 ca        1 L66     -0.066000
     26 C34         7.9950    1.1390   -5.3340 ca        1 L66     -0.165000
     27 C35         8.2380   -0.0970   -5.9290 ca        1 L66     -0.075000
     28 C36         8.0040   -1.2740   -5.2260 ca        1 L66     -0.203000
     29 C37         7.5200   -1.2230   -3.9120 ca        1 L66      0.148100
     30 O38         7.2900   -2.3440   -3.1430 os        1 L66     -0.322900
     31 C39         7.3690   -3.6010   -3.8100 c3        1 L66      0.111700
     32 H1          1.2540   -0.2340    1.9810 hn        1 L66      0.355500
     33 H2          1.5150   -0.8450   -3.1790 h1        1 L66      0.062700
     34 H3          0.0980    0.0030   -2.3800 h1        1 L66      0.062700
     35 H4          1.4880    0.9790   -3.0740 h1        1 L66      0.062700
     36 H5          6.7750   -0.1020    1.3930 h4        1 L66      0.211000
     37 H6          8.0110    2.0360    1.0120 hc        1 L66      0.049367
     38 H7          8.5450    2.9490   -0.4590 hc        1 L66      0.049367
     39 H8          9.5660    2.9710    1.0390 hc        1 L66      0.049367
     40 H9         11.5640    1.9190    0.4660 ha        1 L66      0.138000
     41 H10        12.8250   -0.0520   -0.3780 ha        1 L66      0.137000
     42 H11         9.0990   -1.8980   -1.6210 ha        1 L66      0.168000
     43 H12        12.6110   -2.1060   -1.3890 ho        1 L66      0.420000
     44 H13         7.3150    2.1930   -3.5760 ha        1 L66      0.151000
     45 H14         8.1810    2.0680   -5.8930 ha        1 L66      0.143000
     46 H15         8.6180   -0.1460   -6.9610 ha        1 L66      0.139000
     47 H16         8.2020   -2.2430   -5.7070 ha        1 L66      0.145000
     48 H17         6.6730   -3.6330   -4.6830 h1        1 L66      0.051367
     49 H18         7.0480   -4.3270   -3.0200 h1        1 L66      0.051367
     50 H19         8.4190   -3.8050   -4.1310 h1        1 L66      0.051367
@<TRIPOS>BOND
     1    1    2 2   
     2    2    3 1   
     3    2    6 1   
     4    3    4 1   
     5    3   32 1   
     6    4    5 2   
     7    4    9 1   
     8    6    7 1   
     9    6    8 1   
    10    7   33 1   
    11    7   34 1   
    12    7   35 1   
    13    8    9 2   
    14    8   10 1   
    15    9   12 1   
    16   10   11 2   
    17   11   12 1   
    18   11   14 1   
    19   12   13 1   
    20   13   15 2   
    21   13   36 1   
    22   14   15 1   
    23   14   24 1   
    24   15   16 1   
    25   16   17 ar  
    26   16   21 ar  
    27   17   18 1   
    28   17   19 ar  
    29   18   37 1   
    30   18   38 1   
    31   18   39 1   
    32   19   20 ar  
    33   19   40 1   
    34   20   22 ar  
    35   20   41 1   
    36   21   22 ar  
    37   21   42 1   
    38   22   23 1   
    39   23   43 1   
    40   24   25 ar  
    41   24   29 ar  
    42   25   26 ar  
    43   25   44 1   
    44   26   27 ar  
    45   26   45 1   
    46   27   28 ar  
    47   27   46 1   
    48   28   29 ar  
    49   28   47 1   
    50   29   30 1   
    51   30   31 1   
    52   31   48 1   
    53   31   49 1   
    54   31   50 1   
@<TRIPOS>SUBSTRUCTURE
     1 L66         1 TEMP              0 ****  ****    0 ROOT
