@<TRIPOS>MOLECULE
L66
   50    43     1     0     0
SMALL
bcc


@<TRIPOS>ATOM
      1 O2         -6.7060    0.2170    1.8730 o         1 L66     -0.363500
      2 C17        -5.5080    0.2460    1.8450 c1        1 L66      0.407500
      3 N4         -4.7840    0.1510    3.0390 n3        1 L66     -0.363000
      4 C16        -3.3460    0.1120    3.0090 c1        1 L66      0.407500
      5 O3         -2.7170    0.0730    4.0480 o         1 L66     -0.363500
      6 N5         -4.8050    0.2290    0.5620 n2        1 L66     -0.238000
      7 C18        -5.5710    0.1590   -0.7020 c3        1 L66     -0.065000
      8 C2         -3.3360    0.1350    0.5300 c2        1 L66      0.112000
      9 C3         -2.6270    0.1040    1.7030 c1        1 L66     -0.257000
     10 N1         -2.4410    0.1740   -0.5000 n2        1 L66     -0.166000
     11 C1         -1.1770    0.1670    0.0380 c2        1 L66      0.082000
     12 N2         -1.2970    0.1240    1.3960 n3        1 L66     -0.047000
     13 C4         -0.0520    0.1550    1.9290 c1        1 L66     -0.082000
     14 N3          0.1580    0.2240   -0.2650 n2        1 L66     -0.087000
     15 C5          0.8510    0.2160    0.8950 c1        1 L66     -0.007000
     16 C10         2.3760    0.1790    1.1790 c1        1 L66     -0.004000
     17 C11         3.0040    1.2950    1.5950 c2        1 L66     -0.071000
     18 C40         2.2400    2.5430    1.7770 c3        1 L66     -0.180000
     19 C12         4.3770    1.2770    1.8400 c1        1 L66     -0.100000
     20 C13         5.0850    0.1350    1.6610 c1        1 L66     -0.193000
     21 C15         3.0990   -1.0000    0.9930 c1        1 L66     -0.124000
     22 C14         4.4460   -1.0160    1.2340 c1        1 L66      0.068000
     23 O41         5.1950   -2.1540    0.9320 o         1 L66     -0.251000
     24 C32         0.5850    0.2590   -1.6320 c1        1 L66      0.012000
     25 C33         1.0550    1.4440   -2.1840 c1        1 L66     -0.127250
     26 C34         1.4990    1.4700   -3.5060 c1        1 L66     -0.127250
     27 C35         1.4710    0.3050   -4.2740 c1        1 L66     -0.127250
     28 C36         0.9970   -0.8900   -3.7180 c1        1 L66     -0.127250
     29 C37         0.5570   -0.9170   -2.4080 c1        1 L66      0.103000
     30 O38         0.1680   -2.1840   -1.7960 os        1 L66     -0.206000
     31 C39        -0.2480   -3.1880   -2.7440 c3        1 L66     -0.078000
     32 H1         -5.2370    0.1680    3.8660 hn        1 L66      0.269000
     33 H2         -6.3780    0.6550   -0.6140 h1        1 L66      0.102000
     34 H3         -5.0210    0.5460   -1.4450 h1        1 L66      0.102000
     35 H4         -5.7790   -0.7610   -0.9010 h1        1 L66      0.102000
     36 H5          0.1650    0.1360    2.8730 DU        1 L66      0.211000
     37 H6          1.4600    2.5540    1.1410 hc        1 L66      0.088667
     38 H7          2.8030    3.2890    1.6020 hc        1 L66      0.088667
     39 H8          1.9150    2.5930    2.6890 hc        1 L66      0.088667
     40 H9          4.8210    2.0740    2.1370 ha        1 L66      0.138000
     41 H10         6.0240    0.1280    1.8300 ha        1 L66      0.137000
     42 H11         2.6180   -1.8600    0.6730 ha        1 L66      0.168000
     43 H12         5.3490   -2.6240    1.6900 ho        1 L66      0.219000
     44 H13         1.0740    2.3070   -1.6150 ha        1 L66      0.144500
     45 H14         1.8570    2.3740   -3.9270 ha        1 L66      0.144500
     46 H15         1.7850    0.3240   -5.2080 ha        1 L66      0.144500
     47 H16         0.9790   -1.6730   -4.2350 ha        1 L66      0.144500
     48 H17         0.5830   -3.5150   -3.2930 h1        1 L66      0.090667
     49 H18        -0.9180   -2.8030   -3.3570 h1        1 L66      0.090667
     50 H19        -0.6510   -3.9600   -2.2560 h1        1 L66      0.090667
@<TRIPOS>BOND
     1    1    2 1   
     2    2    3 1   
     3    3    4 1   
     4    3   32 1   
     5    4    5 1   
     6    6    7 1   
     7    6    8 1   
     8    7   33 1   
     9    7   34 1   
    10    7   35 1   
    11    8    9 1   
    12    8   10 1   
    13    9   12 1   
    14   10   11 1   
    15   11   12 1   
    16   11   14 1   
    17   12   13 1   
    18   13   15 1   
    19   14   15 1   
    20   16   17 1   
    21   16   21 1   
    22   17   18 1   
    23   17   19 1   
    24   18   37 1   
    25   18   38 1   
    26   18   39 1   
    27   19   40 1   
    28   20   22 1   
    29   20   41 1   
    30   21   42 1   
    31   23   43 1   
    32   24   29 1   
    33   25   26 1   
    34   25   44 1   
    35   26   45 1   
    36   27   28 1   
    37   27   46 1   
    38   28   47 1   
    39   29   30 1   
    40   30   31 1   
    41   31   48 1   
    42   31   49 1   
    43   31   50 1   
@<TRIPOS>SUBSTRUCTURE
     1 L66         1 TEMP              0 ****  ****    0 ROOT
