@<TRIPOS>MOLECULE
L66
   50    54     1     0     0
SMALL
bcc


@<TRIPOS>ATOM
      1 O2         -6.6040   -0.3000    0.2230 o         1 L66     -0.646500
      2 C17        -5.3990    0.0340    0.1890 c         1 L66      0.817500
      3 N4         -5.0470    1.3730    0.4380 n         1 L66     -0.583500
      4 C16        -3.7310    1.8720    0.4310 c         1 L66      0.770100
      5 O3         -3.5240    3.0760    0.6610 o         1 L66     -0.631500
      6 N5         -4.3970   -0.9260   -0.1010 n         1 L66     -0.422300
      7 C18        -4.7470   -2.2980   -0.3560 c3        1 L66      0.090300
      8 C2         -3.0690   -0.5170   -0.1260 cc        1 L66      0.522200
      9 C3         -2.7360    0.8670    0.1390 cd        1 L66     -0.370200
     10 N1         -1.9390   -1.3060   -0.3860 nc        1 L66     -0.693000
     11 C1         -0.9090   -0.3920   -0.2760 cd        1 L66      0.525000
     12 N2         -1.3540    0.9440    0.0480 na        1 L66     -0.085900
     13 C4         -0.2440    1.7760    0.1080 cc        1 L66     -0.106300
     14 N3          0.4780   -0.3530   -0.4210 na        1 L66     -0.109000
     15 C5          0.8880    0.9850   -0.1600 cd        1 L66     -0.030300
     16 C10         2.2710    1.4360   -0.1600 ca        1 L66      0.001000
     17 C11         2.6700    2.5380   -0.9420 ca        1 L66     -0.082300
     18 C40         1.7140    3.2660   -1.8080 c3        1 L66     -0.057800
     19 C12         4.0030    2.9610   -0.8890 ca        1 L66     -0.099000
     20 C13         4.9350    2.3160   -0.0830 ca        1 L66     -0.194000
     21 C15         3.1960    0.7760    0.6560 ca        1 L66     -0.129000
     22 C14         4.5250    1.2210    0.6890 ca        1 L66      0.115100
     23 O41         5.3830    0.5260    1.5120 oh        1 L66     -0.496100
     24 C32         1.2870   -1.4860   -0.6630 ca        1 L66     -0.032200
     25 C33         1.6430   -1.8130   -1.9860 ca        1 L66     -0.069000
     26 C34         2.4180   -2.9380   -2.2550 ca        1 L66     -0.164000
     27 C35         2.8480   -3.7610   -1.2160 ca        1 L66     -0.074000
     28 C36         2.5150   -3.4620    0.1010 ca        1 L66     -0.203000
     29 C37         1.7420   -2.3300    0.3910 ca        1 L66      0.149100
     30 O38         1.4030   -1.9500    1.6720 os        1 L66     -0.320900
     31 C39         1.6670   -2.8950    2.7070 c3        1 L66      0.112700
     32 H1         -5.7990    1.9990    0.6340 hn        1 L66      0.355500
     33 H2         -5.8610   -2.4220   -0.2930 h1        1 L66      0.062700
     34 H3         -4.3930   -2.5910   -1.3810 h1        1 L66      0.062700
     35 H4         -4.2510   -2.9600    0.4040 h1        1 L66      0.062700
     36 H5         -0.3140    2.8410    0.3370 h4        1 L66      0.211000
     37 H6          1.2170    4.0840   -1.2260 hc        1 L66      0.049700
     38 H7          2.2390    3.7290   -2.6800 hc        1 L66      0.049700
     39 H8          0.9180    2.5830   -2.1950 hc        1 L66      0.049700
     40 H9          4.3190    3.8220   -1.4990 ha        1 L66      0.138000
     41 H10         5.9780    2.6600   -0.0510 ha        1 L66      0.137000
     42 H11         2.8900   -0.0840    1.2740 ha        1 L66      0.168000
     43 H12         6.2540    0.9450    1.4540 ho        1 L66      0.420000
     44 H13         1.3030   -1.1770   -2.8190 ha        1 L66      0.151000
     45 H14         2.6840   -3.1770   -3.2950 ha        1 L66      0.143000
     46 H15         3.4560   -4.6520   -1.4350 ha        1 L66      0.140000
     47 H16         2.8640   -4.1180    0.9120 ha        1 L66      0.146000
     48 H17         1.2080   -2.4160    3.6090 h1        1 L66      0.051033
     49 H18         1.1790   -3.8740    2.4860 h1        1 L66      0.051033
     50 H19         2.7680   -3.0220    2.8450 h1        1 L66      0.051033
@<TRIPOS>BOND
     1    1    2 2   
     2    2    3 1   
     3    2    6 1   
     4    3    4 1   
     5    3   32 1   
     6    4    5 2   
     7    4    9 1   
     8    6    7 1   
     9    6    8 1   
    10    7   33 1   
    11    7   34 1   
    12    7   35 1   
    13    8    9 2   
    14    8   10 1   
    15    9   12 1   
    16   10   11 2   
    17   11   12 1   
    18   11   14 1   
    19   12   13 1   
    20   13   15 2   
    21   13   36 1   
    22   14   15 1   
    23   14   24 1   
    24   15   16 1   
    25   16   17 ar  
    26   16   21 ar  
    27   17   18 1   
    28   17   19 ar  
    29   18   37 1   
    30   18   38 1   
    31   18   39 1   
    32   19   20 ar  
    33   19   40 1   
    34   20   22 ar  
    35   20   41 1   
    36   21   22 ar  
    37   21   42 1   
    38   22   23 1   
    39   23   43 1   
    40   24   25 ar  
    41   24   29 ar  
    42   25   26 ar  
    43   25   44 1   
    44   26   27 ar  
    45   26   45 1   
    46   27   28 ar  
    47   27   46 1   
    48   28   29 ar  
    49   28   47 1   
    50   29   30 1   
    51   30   31 1   
    52   31   48 1   
    53   31   49 1   
    54   31   50 1   
@<TRIPOS>SUBSTRUCTURE
     1 L66         1 TEMP              0 ****  ****    0 ROOT
