@<TRIPOS>MOLECULE
L66
   50    54     1     0     0
SMALL
bcc


@<TRIPOS>ATOM
      1 O2         -0.1040   -0.0830   -0.0960 o         1 L66     -0.647500
      2 C17         1.1480   -0.0710   -0.0760 c         1 L66      0.817500
      3 N4          1.8180   -0.1330    1.1580 n         1 L66     -0.583500
      4 C16         3.2170   -0.1300    1.3130 c         1 L66      0.770100
      5 O3          3.7140   -0.1850    2.4520 o         1 L66     -0.630500
      6 N5          1.8830    0.0050   -1.2860 n         1 L66     -0.422300
      7 C18         1.2060    0.0700   -2.5540 c3        1 L66      0.090300
      8 C2          3.2710    0.0120   -1.2220 cc        1 L66      0.520200
      9 C3          3.9340   -0.0590    0.0630 cd        1 L66     -0.367200
     10 N1          4.1730    0.0800   -2.2950 nc        1 L66     -0.692000
     11 C1          5.3960    0.0470   -1.6540 cd        1 L66      0.522000
     12 N2          5.2930   -0.0410   -0.2160 na        1 L66     -0.086900
     13 C4          6.5760   -0.0370    0.3200 cc        1 L66     -0.106300
     14 N3          6.7530    0.1370   -1.9800 na        1 L66     -0.106000
     15 C5          7.4770    0.0430   -0.7550 cd        1 L66     -0.031300
     16 C10         8.9310    0.0360   -0.6680 ca        1 L66     -0.004000
     17 C11         9.6270    1.1130   -0.0880 ca        1 L66     -0.078300
     18 C40         8.9150    2.3170    0.4010 c3        1 L66     -0.054800
     19 C12        11.0210    1.0440    0.0120 ca        1 L66     -0.100000
     20 C13        11.7240   -0.0620   -0.4550 ca        1 L66     -0.193000
     21 C15         9.6210   -1.0810   -1.1480 ca        1 L66     -0.124000
     22 C14        11.0190   -1.1230   -1.0380 ca        1 L66      0.113100
     23 O41        11.6380   -2.2500   -1.5310 oh        1 L66     -0.497100
     24 C32         7.2620    0.0240   -3.2930 ca        1 L66     -0.033200
     25 C33         7.5200    1.1940   -4.0330 ca        1 L66     -0.066000
     26 C34         8.0050    1.1180   -5.3350 ca        1 L66     -0.165000
     27 C35         8.2400   -0.1210   -5.9270 ca        1 L66     -0.075000
     28 C36         7.9960   -1.2950   -5.2220 ca        1 L66     -0.203000
     29 C37         7.5110   -1.2370   -3.9090 ca        1 L66      0.148100
     30 O38         7.2710   -2.3540   -3.1380 os        1 L66     -0.322900
     31 C39         7.3420   -3.6140   -3.8020 c3        1 L66      0.111700
     32 H1          1.2430   -0.1840    1.9720 hn        1 L66      0.355500
     33 H2          1.5070   -0.8090   -3.1850 h1        1 L66      0.062700
     34 H3          1.4950    1.0160   -3.0850 h1        1 L66      0.062700
     35 H4          0.0960    0.0540   -2.3900 h1        1 L66      0.062700
     36 H5          6.7660   -0.0990    1.3930 h4        1 L66      0.211000
     37 H6          8.5680    2.9350   -0.4650 hc        1 L66      0.049367
     38 H7          9.5820    2.9490    1.0380 hc        1 L66      0.049367
     39 H8          8.0180    2.0300    1.0040 hc        1 L66      0.049367
     40 H9         11.5730    1.8810    0.4680 ha        1 L66      0.138000
     41 H10        12.8190   -0.1030   -0.3680 ha        1 L66      0.137000
     42 H11         9.0800   -1.9210   -1.6120 ha        1 L66      0.168000
     43 H12        12.5890   -2.1580   -1.3740 ho        1 L66      0.420000
     44 H13         7.3310    2.1810   -3.5800 ha        1 L66      0.151000
     45 H14         8.1990    2.0440   -5.8960 ha        1 L66      0.143000
     46 H15         8.6210   -0.1750   -6.9590 ha        1 L66      0.139000
     47 H16         8.1880   -2.2660   -5.7010 ha        1 L66      0.145000
     48 H17         8.3910   -3.8260   -4.1210 h1        1 L66      0.051367
     49 H18         6.6470   -3.6430   -4.6750 h1        1 L66      0.051367
     50 H19         7.0160   -4.3360   -3.0100 h1        1 L66      0.051367
@<TRIPOS>BOND
     1    1    2 2   
     2    2    3 1   
     3    2    6 1   
     4    3    4 1   
     5    3   32 1   
     6    4    5 2   
     7    4    9 1   
     8    6    7 1   
     9    6    8 1   
    10    7   33 1   
    11    7   34 1   
    12    7   35 1   
    13    8    9 2   
    14    8   10 1   
    15    9   12 1   
    16   10   11 2   
    17   11   12 1   
    18   11   14 1   
    19   12   13 1   
    20   13   15 2   
    21   13   36 1   
    22   14   15 1   
    23   14   24 1   
    24   15   16 1   
    25   16   17 ar  
    26   16   21 ar  
    27   17   18 1   
    28   17   19 ar  
    29   18   37 1   
    30   18   38 1   
    31   18   39 1   
    32   19   20 ar  
    33   19   40 1   
    34   20   22 ar  
    35   20   41 1   
    36   21   22 ar  
    37   21   42 1   
    38   22   23 1   
    39   23   43 1   
    40   24   25 ar  
    41   24   29 ar  
    42   25   26 ar  
    43   25   44 1   
    44   26   27 ar  
    45   26   45 1   
    46   27   28 ar  
    47   27   46 1   
    48   28   29 ar  
    49   28   47 1   
    50   29   30 1   
    51   30   31 1   
    52   31   48 1   
    53   31   49 1   
    54   31   50 1   
@<TRIPOS>SUBSTRUCTURE
     1 L66         1 TEMP              0 ****  ****    0 ROOT
