@<TRIPOS>MOLECULE
L6C
   36    37     1     0     0
SMALL
bcc


@<TRIPOS>ATOM
      1 O1          1.8930    0.0010   -1.0890 o         1 L6C     -0.554100
      2 C2          1.4430    0.4590   -0.0360 c         1 L6C      0.577900
      3 C3          2.1000    0.2150    1.2910 c3        1 L6C     -0.239400
      4 C4          2.9890   -1.0280    1.3520 c3        1 L6C      0.211800
      5 C12         3.5950   -1.1890    2.7130 ca        1 L6C     -0.192300
      6 C17         3.3470   -2.3620    3.4360 ca        1 L6C     -0.104000
      7 C16         3.8810   -2.5140    4.7150 ca        1 L6C     -0.115500
      8 C15         4.6670   -1.5040    5.2720 ca        1 L6C     -0.078000
      9 C14         4.9210   -0.3370    4.5480 ca        1 L6C     -0.115500
     10 C13         4.3860   -0.1770    3.2720 ca        1 L6C     -0.104000
     11 N1          4.0990   -0.9910    0.3110 n4        1 L6C     -0.642800
     12 C5          3.8180   -1.8540   -0.8850 c         1 L6C      0.632100
     13 O2          3.1190   -2.8520   -0.8400 o         1 L6C     -0.408000
     14 O3          4.5020   -1.3620   -1.9500 os        1 L6C     -0.316200
     15 C6          4.1930   -1.9160   -3.2140 ca        1 L6C      0.050100
     16 C7          3.0450   -1.4810   -3.8830 ca        1 L6C     -0.104500
     17 C8          2.8480   -1.9190   -5.1920 ca        1 L6C     -0.112500
     18 C9          3.7750   -2.7710   -5.7970 ca        1 L6C     -0.092000
     19 C10         4.9090   -3.1970   -5.1020 ca        1 L6C     -0.112500
     20 C11         5.1300   -2.7780   -3.7900 ca        1 L6C     -0.104500
     21 H31C        2.6720    1.1410    1.5770 hc        1 L6C      0.115200
     22 H32C        1.3020    0.0740    2.0750 hc        1 L6C      0.115200
     23 HXT         0.5320    1.0970   -0.0070 h4        1 L6C      0.054200
     24 H4          2.3520   -1.9370    1.1050 hx        1 L6C      0.135700
     25 H1          4.2320   -0.0280   -0.0230 hn        1 L6C      0.471300
     26 H17         2.7270   -3.1640    3.0040 ha        1 L6C      0.140000
     27 H13         4.5800    0.7530    2.7160 ha        1 L6C      0.140000
     28 H16         3.6780   -3.4350    5.2860 ha        1 L6C      0.161500
     29 H15         5.0870   -1.6270    6.2840 ha        1 L6C      0.163000
     30 H14         5.5400    0.4610    4.9880 ha        1 L6C      0.161500
     31 H7          2.3250   -0.8140   -3.3830 ha        1 L6C      0.160000
     32 H11         6.0200   -3.1030   -3.2320 ha        1 L6C      0.160000
     33 H8          1.9550   -1.5890   -5.7470 ha        1 L6C      0.158500
     34 H9          3.6080   -3.1120   -6.8320 ha        1 L6C      0.158000
     35 H10         5.6340   -3.8690   -5.5880 ha        1 L6C      0.158500
     36 H12         4.9750   -1.3180    0.7400 hn        1 L6C      0.471300
@<TRIPOS>BOND
     1    1    2 2   
     2    2    3 1   
     3    2   23 1   
     4    3    4 1   
     5    3   21 1   
     6    3   22 1   
     7    4    5 1   
     8    4   11 1   
     9    4   24 1   
    10    5    6 ar  
    11    5   10 ar  
    12    6    7 ar  
    13    6   26 1   
    14    7    8 ar  
    15    7   28 1   
    16    8    9 ar  
    17    8   29 1   
    18    9   10 ar  
    19    9   30 1   
    20   10   27 1   
    21   11   12 1   
    22   11   25 1   
    23   11   36 1   
    24   12   13 2   
    25   12   14 1   
    26   14   15 1   
    27   15   16 ar  
    28   15   20 ar  
    29   16   17 ar  
    30   16   31 1   
    31   17   18 ar  
    32   17   33 1   
    33   18   19 ar  
    34   18   34 1   
    35   19   20 ar  
    36   19   35 1   
    37   20   32 1   
@<TRIPOS>SUBSTRUCTURE
     1 L6C         1 TEMP              0 ****  ****    0 ROOT
