@<TRIPOS>MOLECULE
L6C
   35    36     1     0     0
SMALL
bcc


@<TRIPOS>ATOM
      1 O1          0.9810   -4.1510    1.4110 o         1 L6C     -0.530100
      2 C2          0.9440   -3.1430    0.7040 c         1 L6C      0.564900
      3 C3          2.0200   -2.1000    0.7470 c3        1 L6C     -0.210400
      4 C4          1.6090   -0.8150    0.0090 c3        1 L6C      0.154000
      5 C12         2.8010    0.1080   -0.0760 ca        1 L6C     -0.122300
      6 C17         3.3360    0.4340   -1.3260 ca        1 L6C     -0.116000
      7 C16         4.4440    1.2770   -1.4130 ca        1 L6C     -0.127500
      8 C15         5.0180    1.8010   -0.2560 ca        1 L6C     -0.118000
      9 C14         4.4840    1.4800    0.9930 ca        1 L6C     -0.127500
     10 C13         3.3790    0.6360    1.0840 ca        1 L6C     -0.116000
     11 N1          0.4680   -0.1690    0.6400 n         1 L6C     -0.532900
     12 C5         -0.7520   -0.1720   -0.0060 c         1 L6C      0.737100
     13 O2         -1.1320   -0.9330   -0.9080 o         1 L6C     -0.572000
     14 O3         -1.6100    0.7870    0.5150 os        1 L6C     -0.366200
     15 C6         -2.9400    0.7820    0.0900 ca        1 L6C      0.116100
     16 C7         -3.7170   -0.3800    0.0550 ca        1 L6C     -0.132500
     17 C8         -5.0710   -0.2700   -0.2610 ca        1 L6C     -0.116000
     18 C9         -5.6330    0.9770   -0.5320 ca        1 L6C     -0.137000
     19 C10        -4.8440    2.1270   -0.4970 ca        1 L6C     -0.116000
     20 C11        -3.4870    2.0420   -0.1920 ca        1 L6C     -0.132500
     21 H31C        2.2910   -1.8780    1.8120 hc        1 L6C      0.083700
     22 H32C        2.9370   -2.5110    0.2460 hc        1 L6C      0.083700
     23 HXT         0.1090   -2.9550   -0.0110 h4        1 L6C      0.022200
     24 H4          1.3010   -1.1140   -1.0430 h1        1 L6C      0.085700
     25 H1          0.6560    0.5790    1.2690 hn        1 L6C      0.327500
     26 H17         2.8830    0.0280   -2.2440 ha        1 L6C      0.137000
     27 H13         2.9670    0.3780    2.0720 ha        1 L6C      0.137000
     28 H16         4.8620    1.5290   -2.3990 ha        1 L6C      0.137500
     29 H15         5.8910    2.4670   -0.3260 ha        1 L6C      0.137000
     30 H14         4.9360    1.8920    1.9070 ha        1 L6C      0.137500
     31 H7         -3.2570   -1.3600    0.2490 ha        1 L6C      0.151500
     32 H11        -2.8520    2.9380   -0.1600 ha        1 L6C      0.151500
     33 H8         -5.6940   -1.1760   -0.2950 ha        1 L6C      0.137000
     34 H9         -6.7030    1.0540   -0.7780 ha        1 L6C      0.135000
     35 H10        -5.2900    3.1080   -0.7150 ha        1 L6C      0.137000
@<TRIPOS>BOND
     1    1    2 2   
     2    2    3 1   
     3    2   23 1   
     4    3    4 1   
     5    3   21 1   
     6    3   22 1   
     7    4    5 1   
     8    4   11 1   
     9    4   24 1   
    10    5    6 ar  
    11    5   10 ar  
    12    6    7 ar  
    13    6   26 1   
    14    7    8 ar  
    15    7   28 1   
    16    8    9 ar  
    17    8   29 1   
    18    9   10 ar  
    19    9   30 1   
    20   10   27 1   
    21   11   12 1   
    22   11   25 1   
    23   12   13 2   
    24   12   14 1   
    25   14   15 1   
    26   15   16 ar  
    27   15   20 ar  
    28   16   17 ar  
    29   16   31 1   
    30   17   18 ar  
    31   17   33 1   
    32   18   19 ar  
    33   18   34 1   
    34   19   20 ar  
    35   19   35 1   
    36   20   32 1   
@<TRIPOS>SUBSTRUCTURE
     1 L6C         1 TEMP              0 ****  ****    0 ROOT
