@<TRIPOS>MOLECULE
L6C
   35    31     1     0     0
SMALL
bcc


@<TRIPOS>ATOM
      1 O1         -2.8780    3.7160    0.7150 o         1 L6C     -0.287000
      2 C2         -2.3330    3.4420   -0.3390 c1        1 L6C      0.191000
      3 C3         -0.8460    3.1590   -0.3700 c2        1 L6C     -0.235000
      4 C4         -0.5900    1.7540    0.1290 c3        1 L6C      0.060000
      5 C12         0.1740    1.8130    1.4310 c2        1 L6C     -0.123000
      6 C17        -0.4100    1.3470    2.5990 c1        1 L6C     -0.109000
      7 C16         0.3060    1.3620    3.7850 c1        1 L6C     -0.124500
      8 C15         1.6060    1.8410    3.8040 c1        1 L6C     -0.124500
      9 C14         2.1900    2.3070    2.6370 c1        1 L6C     -0.127000
     10 C13         1.4740    2.2920    1.4500 c2        1 L6C     -0.121000
     11 N1          0.1720    1.0400   -0.8350 n         1 L6C     -0.325000
     12 C5         -0.1350   -0.3190   -1.1190 c2        1 L6C      0.389000
     13 O2         -1.2910   -0.6930   -1.1190 o         1 L6C     -0.375000
     14 O3          0.8960   -1.2220   -1.4320 os        1 L6C     -0.234000
     15 C6          0.4440   -2.5130   -1.7580 c2        1 L6C      0.065000
     16 C7          0.5370   -2.9700   -3.0630 c2        1 L6C     -0.130000
     17 C8          0.1770   -4.2730   -3.3700 c1        1 L6C     -0.121000
     18 C9         -0.2770   -5.1190   -2.3700 c1        1 L6C     -0.124500
     19 C10        -0.3710   -4.6630   -1.0650 c1        1 L6C     -0.124500
     20 C11        -0.0100   -3.3600   -0.7590 c1        1 L6C     -0.126000
     21 H31C       -0.3800    3.7990    0.2050 ha        1 L6C      0.122500
     22 H32C       -0.5170    3.2440   -1.2860 ha        1 L6C      0.122500
     23 HXT        -2.8530    3.4180   -1.1670 ha        1 L6C      0.102000
     24 H4         -1.4430    1.2980    0.2720 h1        1 L6C      0.134000
     25 H1          0.8810    1.4420   -1.2430 hn        1 L6C      0.231000
     26 H17        -1.3250    1.0100    2.5850 ha        1 L6C      0.140000
     27 H13         1.8860    2.6200    0.6280 ha        1 L6C      0.131000
     28 H16        -0.1050    1.0340    4.6080 ha        1 L6C      0.136000
     29 H15         2.1110    1.8520    4.6400 ha        1 L6C      0.136000
     30 H14         3.1060    2.6440    2.6500 ha        1 L6C      0.137000
     31 H7          0.8570   -2.3740   -3.7670 ha        1 L6C      0.147000
     32 H11        -0.0760   -3.0390    0.1610 ha        1 L6C      0.158000
     33 H8          0.2430   -4.5940   -4.2890 ha        1 L6C      0.136000
     34 H9         -0.5310   -6.0370   -2.5860 ha        1 L6C      0.136000
     35 H10        -0.6900   -5.2590   -0.3620 ha        1 L6C      0.136000
@<TRIPOS>BOND
     1    1    2 1   
     2    2   23 1   
     3    3    4 1   
     4    3   21 1   
     5    3   22 1   
     6    4    5 1   
     7    4   11 1   
     8    4   24 1   
     9    5    6 1   
    10    5   10 1   
    11    6   26 1   
    12    7    8 1   
    13    7   28 1   
    14    8   29 1   
    15    9   10 1   
    16    9   30 1   
    17   10   27 1   
    18   11   12 1   
    19   11   25 1   
    20   12   13 1   
    21   12   14 1   
    22   14   15 1   
    23   15   16 1   
    24   15   20 1   
    25   16   17 1   
    26   16   31 1   
    27   17   33 1   
    28   18   19 1   
    29   18   34 1   
    30   19   35 1   
    31   20   32 1   
@<TRIPOS>SUBSTRUCTURE
     1 L6C         1 TEMP              0 ****  ****    0 ROOT
