@<TRIPOS>MOLECULE
L6C
   36    37     1     0     0
SMALL
bcc


@<TRIPOS>ATOM
      1 O1          1.8290   -0.0710   -1.0740 o         1 L6C     -0.554100
      2 C2          1.3560    0.3520   -0.0170 c         1 L6C      0.577900
      3 C3          2.0230    0.1240    1.3080 c3        1 L6C     -0.239400
      4 C4          2.9720   -1.0750    1.3550 c3        1 L6C      0.211800
      5 C12         3.5830   -1.2230    2.7150 ca        1 L6C     -0.192300
      6 C17         3.3930   -2.4150    3.4230 ca        1 L6C     -0.104000
      7 C16         3.9320   -2.5560    4.7020 ca        1 L6C     -0.115500
      8 C15         4.6680   -1.5170    5.2710 ca        1 L6C     -0.078000
      9 C14         4.8660   -0.3300    4.5610 ca        1 L6C     -0.115500
     10 C13         4.3250   -0.1800    3.2870 ca        1 L6C     -0.104000
     11 N1          4.0790   -0.9720    0.3160 ny        1 L6C     -0.642800
     12 C5          3.8410   -1.8330   -0.8900 c         1 L6C      0.632100
     13 O2          3.1900   -2.8640   -0.8580 o         1 L6C     -0.408000
     14 O3          4.5000   -1.2970   -1.9480 os        1 L6C     -0.316200
     15 C6          4.2200   -1.8490   -3.2200 ca        1 L6C      0.050100
     16 C7          3.0520   -1.4620   -3.8840 ca        1 L6C     -0.104500
     17 C8          2.8770   -1.8930   -5.1990 ca        1 L6C     -0.112500
     18 C9          3.8440   -2.6920   -5.8130 ca        1 L6C     -0.092000
     19 C10         4.9970   -3.0720   -5.1220 ca        1 L6C     -0.112500
     20 C11         5.1970   -2.6590   -3.8050 ca        1 L6C     -0.104500
     21 H31C        2.5500    1.0730    1.6060 hc        1 L6C      0.115200
     22 H32C        1.2330   -0.0640    2.0900 hc        1 L6C      0.115200
     23 HXT         0.4160    0.9450    0.0190 h4        1 L6C      0.054200
     24 H4          2.3790   -2.0110    1.0970 hx        1 L6C      0.135700
     25 H1          4.1650    0.0000   -0.0060 hn        1 L6C      0.471300
     26 H17         2.8120   -3.2410    2.9820 ha        1 L6C      0.140000
     27 H13         4.4740    0.7640    2.7420 ha        1 L6C      0.140000
     28 H16         3.7740   -3.4930    5.2620 ha        1 L6C      0.161500
     29 H15         5.0930   -1.6310    6.2820 ha        1 L6C      0.163000
     30 H14         5.4460    0.4920    5.0120 ha        1 L6C      0.161500
     31 H7          2.3010   -0.8350   -3.3780 ha        1 L6C      0.160000
     32 H11         6.1010   -2.9480   -3.2490 ha        1 L6C      0.160000
     33 H8          1.9710   -1.5990   -5.7520 ha        1 L6C      0.158500
     34 H9          3.6950   -3.0280   -6.8520 ha        1 L6C      0.158000
     35 H10         5.7530   -3.7030   -5.6140 ha        1 L6C      0.158500
     36 H12         4.9700   -1.2620    0.7430 hn        1 L6C      0.471300
@<TRIPOS>BOND
     1    1    2 2   
     2    2    3 1   
     3    2   23 1   
     4    3    4 1   
     5    3   21 1   
     6    3   22 1   
     7    4    5 1   
     8    4   11 1   
     9    4   24 1   
    10    5    6 ar  
    11    5   10 ar  
    12    6    7 ar  
    13    6   26 1   
    14    7    8 ar  
    15    7   28 1   
    16    8    9 ar  
    17    8   29 1   
    18    9   10 ar  
    19    9   30 1   
    20   10   27 1   
    21   11   12 1   
    22   11   25 1   
    23   11   36 1   
    24   12   13 2   
    25   12   14 1   
    26   14   15 1   
    27   15   16 ar  
    28   15   20 ar  
    29   16   17 ar  
    30   16   31 1   
    31   17   18 ar  
    32   17   33 1   
    33   18   19 ar  
    34   18   34 1   
    35   19   20 ar  
    36   19   35 1   
    37   20   32 1   
@<TRIPOS>SUBSTRUCTURE
     1 L6C         1 TEMP              0 ****  ****    0 ROOT
