@<TRIPOS>MOLECULE
L6C
   36    37     1     0     0
SMALL
bcc


@<TRIPOS>ATOM
      1 O1          1.8560   -0.0290   -1.0680 o         1 L6C     -0.554100
      2 C2          1.3990    0.4060   -0.0080 c         1 L6C      0.577900
      3 C3          2.0670    0.1650    1.3140 c3        1 L6C     -0.239400
      4 C4          2.9870   -1.0560    1.3580 c3        1 L6C      0.211800
      5 C12         3.6020   -1.2170    2.7150 ca        1 L6C     -0.192300
      6 C17         3.3870   -2.4030    3.4260 ca        1 L6C     -0.104000
      7 C16         3.9300   -2.5550    4.7020 ca        1 L6C     -0.115500
      8 C15         4.6940   -1.5320    5.2650 ca        1 L6C     -0.078000
      9 C14         4.9150   -0.3510    4.5530 ca        1 L6C     -0.115500
     10 C13         4.3710   -0.1910    3.2810 ca        1 L6C     -0.104000
     11 N1          4.0910   -0.9820    0.3130 n4        1 L6C     -0.642800
     12 C5          3.8250   -1.8400   -0.8900 c         1 L6C      0.632100
     13 O2          3.1510   -2.8550   -0.8530 o         1 L6C     -0.408000
     14 O3          4.4920   -1.3220   -1.9530 os        1 L6C     -0.316200
     15 C6          4.1920   -1.8700   -3.2220 ca        1 L6C      0.050100
     16 C7          3.0310   -1.4560   -3.8810 ca        1 L6C     -0.104500
     17 C8          2.8380   -1.8850   -5.1940 ca        1 L6C     -0.112500
     18 C9          3.7820   -2.7090   -5.8110 ca        1 L6C     -0.092000
     19 C10         4.9290   -3.1160   -5.1250 ca        1 L6C     -0.112500
     20 C11         5.1460   -2.7060   -3.8100 ca        1 L6C     -0.104500
     21 H31C        2.6180    1.1010    1.6070 hc        1 L6C      0.115200
     22 H32C        1.2760   -0.0040    2.0990 hc        1 L6C      0.115200
     23 HXT         0.4730    1.0220    0.0320 h4        1 L6C      0.054200
     24 H4          2.3700   -1.9780    1.1050 hx        1 L6C      0.135700
     25 H1          4.1970   -0.0130   -0.0120 hn        1 L6C      0.471300
     26 H17         2.7850   -3.2160    2.9890 ha        1 L6C      0.140000
     27 H13         4.5400    0.7490    2.7340 ha        1 L6C      0.140000
     28 H16         3.7530   -3.4860    5.2640 ha        1 L6C      0.161500
     29 H15         5.1220   -1.6540    6.2740 ha        1 L6C      0.163000
     30 H14         5.5170    0.4570    4.9990 ha        1 L6C      0.161500
     31 H7          2.2980   -0.8100   -3.3730 ha        1 L6C      0.160000
     32 H11         6.0450   -3.0150   -3.2580 ha        1 L6C      0.160000
     33 H8          1.9370   -1.5710   -5.7430 ha        1 L6C      0.158500
     34 H9          3.6190   -3.0450   -6.8480 ha        1 L6C      0.158000
     35 H10         5.6670   -3.7670   -5.6200 ha        1 L6C      0.158500
     36 H12         4.9760   -1.2910    0.7350 hn        1 L6C      0.471300
@<TRIPOS>BOND
     1    1    2 2   
     2    2    3 1   
     3    2   23 1   
     4    3    4 1   
     5    3   21 1   
     6    3   22 1   
     7    4    5 1   
     8    4   11 1   
     9    4   24 1   
    10    5    6 ar  
    11    5   10 ar  
    12    6    7 ar  
    13    6   26 1   
    14    7    8 ar  
    15    7   28 1   
    16    8    9 ar  
    17    8   29 1   
    18    9   10 ar  
    19    9   30 1   
    20   10   27 1   
    21   11   12 1   
    22   11   25 1   
    23   11   36 1   
    24   12   13 2   
    25   12   14 1   
    26   14   15 1   
    27   15   16 ar  
    28   15   20 ar  
    29   16   17 ar  
    30   16   31 1   
    31   17   18 ar  
    32   17   33 1   
    33   18   19 ar  
    34   18   34 1   
    35   19   20 ar  
    36   19   35 1   
    37   20   32 1   
@<TRIPOS>SUBSTRUCTURE
     1 L6C         1 TEMP              0 ****  ****    0 ROOT
