@<TRIPOS>MOLECULE
L6G
   64    66     1     0     0
SMALL
bcc


@<TRIPOS>ATOM
      1 C1          1.7740    1.3610   -0.4250 c3        1 L6G      0.083700
      2 C2          2.8020    0.3510    0.0080 c3        1 L6G     -0.100200
      3 C3          2.2270   -0.9970    0.2210 c2        1 L6G     -0.060200
      4 C4          2.0790   -1.6500    1.3800 c2        1 L6G     -0.267200
      5 C5          2.5250   -1.1800    2.7280 c3        1 L6G      0.191700
      6 C6          2.7280    1.2050    3.5340 c         1 L6G      0.512100
      7 C7          2.2160    2.4500    4.2750 c3        1 L6G      0.065500
      8 C8          2.4330    2.2310    5.8000 c3        1 L6G     -0.066700
      9 C9          2.3230    0.7840    6.2210 c3        1 L6G     -0.129600
     10 C10         3.8080    2.7730    6.1630 c3        1 L6G     -0.129600
     11 C11        -0.0370    3.5070    4.9280 c         1 L6G      0.551100
     12 C12        -1.3280    2.6970    5.1570 c3        1 L6G      0.092200
     13 C13        -2.2730    3.1080    4.0130 c3        1 L6G     -0.111100
     14 C14        -1.9540    3.1300    6.5110 c3        1 L6G     -0.098300
     15 C15        -1.5010    0.6710    6.2360 ce        1 L6G      0.429200
     16 C16        -1.4830   -0.7720    6.4650 cc        1 L6G      0.281000
     17 C17        -2.3370   -1.3890    7.4090 cd        1 L6G     -0.248400
     18 C18        -1.0170   -2.9170    6.1440 cd        1 L6G      0.186700
     19 C19        -0.4870   -4.1300    5.4630 c3        1 L6G      0.106500
     20 C20         1.0660   -2.9440    3.8750 c         1 L6G      0.546100
     21 C21         2.4160   -2.2840    3.7920 c3        1 L6G     -0.182400
     22 N1          1.8060    0.0930    3.1420 ny        1 L6G     -0.727800
     23 N2          0.8810    2.9520    3.8270 ny        1 L6G     -0.685800
     24 N3         -1.0370    1.2570    5.1540 n2        1 L6G     -0.709900
     25 N4         -0.7110   -1.6580    5.7450 nc        1 L6G     -0.651000
     26 N5          0.9240   -3.9740    4.9750 ny        1 L6G     -0.664800
     27 O1          3.9160    1.1030    3.2600 o         1 L6G     -0.374100
     28 O2          0.3020    4.5620    5.4220 o         1 L6G     -0.357100
     29 O3          0.1070   -2.7680    3.1420 o         1 L6G     -0.380100
     30 S1          0.6100    1.7170    0.9260 sh        1 L6G     -0.585900
     31 S2         -2.2190    1.6430    7.4510 ss        1 L6G     -0.022300
     32 S3         -2.1790   -3.0090    7.3730 ss        1 L6G      0.324700
     33 H1          1.2000    1.0170   -1.3200 h1        1 L6G      0.127700
     34 H2          2.2550    2.3440   -0.6650 h1        1 L6G      0.127700
     35 H3          3.3580    0.7180    0.9130 hc        1 L6G      0.095700
     36 H4          3.5730    0.2760   -0.8210 hc        1 L6G      0.095700
     37 H5          1.8980   -1.5030   -0.7130 ha        1 L6G      0.187000
     38 H6          1.6340   -2.6610    1.3650 ha        1 L6G      0.168000
     39 H7          3.6400   -0.9380    2.6540 hx        1 L6G      0.157700
     40 H8          2.9570    3.2760    3.9770 hx        1 L6G      0.173700
     41 H9          1.6720    2.8280    6.3800 hc        1 L6G      0.097700
     42 H10         1.3200    0.3530    5.9950 hc        1 L6G      0.071200
     43 H11         3.1210    0.1620    5.7450 hc        1 L6G      0.071200
     44 H12         2.4760    0.7230    7.3320 hc        1 L6G      0.071200
     45 H13         4.0060    2.5870    7.2490 hc        1 L6G      0.071200
     46 H14         4.6070    2.2690    5.5670 hc        1 L6G      0.071200
     47 H15         3.8630    3.8760    5.9890 hc        1 L6G      0.071200
     48 H16        -3.2720    2.6230    4.1600 hc        1 L6G      0.083033
     49 H17        -2.4180    4.2170    4.0240 hc        1 L6G      0.083033
     50 H18        -1.8770    2.7940    3.0180 hc        1 L6G      0.083033
     51 H19        -2.9330    3.6500    6.3470 h1        1 L6G      0.140200
     52 H20        -1.3010    3.8340    7.0860 h1        1 L6G      0.140200
     53 H22        -3.0240   -0.8360    8.0650 h4        1 L6G      0.237000
     54 H23        -1.1330   -4.3650    4.5590 hx        1 L6G      0.141200
     55 H24        -0.5010   -5.0150    6.1680 hx        1 L6G      0.141200
     56 H25         2.7130   -1.8810    4.8010 hc        1 L6G      0.133700
     57 H26         3.1780   -3.0710    3.5040 hc        1 L6G      0.133700
     58 H27         1.2340    0.4360    2.2760 hn        1 L6G      0.489300
     59 H28         0.3500    2.2370    3.3140 hn        1 L6G      0.469800
     60 H31         1.2370   -4.8870    4.6090 hn        1 L6G      0.476800
     61 H32        -0.5610    1.3320    0.3800 hs        1 L6G      0.335800
     62 H121        1.1520   -0.1010    3.9100 hn        1 L6G      0.489300
     63 H221        1.0530    3.7250    3.1600 hn        1 L6G      0.469800
     64 H52         1.5270   -3.7140    5.7640 hn        1 L6G      0.476800
@<TRIPOS>BOND
     1    1    2 1   
     2    1   30 1   
     3    1   33 1   
     4    1   34 1   
     5    2    3 1   
     6    2   35 1   
     7    2   36 1   
     8    3    4 2   
     9    3   37 1   
    10    4    5 1   
    11    4   38 1   
    12    5   21 1   
    13    5   22 1   
    14    5   39 1   
    15    6    7 1   
    16    6   22 1   
    17    6   27 2   
    18    7    8 1   
    19    7   23 1   
    20    7   40 1   
    21    8    9 1   
    22    8   10 1   
    23    8   41 1   
    24    9   42 1   
    25    9   43 1   
    26    9   44 1   
    27   10   45 1   
    28   10   46 1   
    29   10   47 1   
    30   11   12 1   
    31   11   23 1   
    32   11   28 2   
    33   12   13 1   
    34   12   14 1   
    35   12   24 1   
    36   13   48 1   
    37   13   49 1   
    38   13   50 1   
    39   14   31 1   
    40   14   51 1   
    41   14   52 1   
    42   15   16 1   
    43   15   24 2   
    44   15   31 1   
    45   16   17 2   
    46   16   25 1   
    47   17   32 1   
    48   17   53 1   
    49   18   19 1   
    50   18   25 2   
    51   18   32 1   
    52   19   26 1   
    53   19   54 1   
    54   19   55 1   
    55   20   21 1   
    56   20   26 1   
    57   20   29 2   
    58   21   56 1   
    59   21   57 1   
    60   22   58 1   
    61   22   62 1   
    62   23   59 1   
    63   23   63 1   
    64   26   60 1   
    65   26   64 1   
    66   30   61 1   
@<TRIPOS>SUBSTRUCTURE
     1 L6G         1 TEMP              0 ****  ****    0 ROOT
