@<TRIPOS>MOLECULE
L6G
   64    66     1     0     0
SMALL
bcc


@<TRIPOS>ATOM
      1 C1          1.6000    1.6130   -0.0750 c3        1 L6G      0.079700
      2 C2          2.6810    0.7030    0.4450 c3        1 L6G     -0.088200
      3 C3          2.2560   -0.7150    0.5130 c2        1 L6G     -0.052200
      4 C4          2.0670   -1.4610    1.6080 c2        1 L6G     -0.273200
      5 C5          2.2650   -1.0130    3.0200 c3        1 L6G      0.201700
      6 C6          1.5850    0.8620    4.5190 c         1 L6G      0.552100
      7 C7          1.9090    2.2890    4.0590 c3        1 L6G      0.069500
      8 C8          3.2180    2.8020    4.7240 c3        1 L6G     -0.071700
      9 C9          3.1210    3.0470    6.2100 c3        1 L6G     -0.126600
     10 C10         4.3350    1.8290    4.4030 c3        1 L6G     -0.126600
     11 C11        -0.1800    3.1470    5.3690 c         1 L6G      0.535100
     12 C12        -1.4780    2.3320    5.1650 c3        1 L6G      0.105200
     13 C13        -2.1550    2.7740    3.8610 c3        1 L6G     -0.121100
     14 C14        -2.4340    2.6580    6.3510 c3        1 L6G     -0.106300
     15 C15        -1.7380    0.2540    6.1250 ce        1 L6G      0.438200
     16 C16        -1.6170   -1.1810    6.3700 cc        1 L6G      0.284000
     17 C17        -2.4480   -1.8550    7.2960 cd        1 L6G     -0.250400
     18 C18        -0.8900   -3.2700    6.1800 cd        1 L6G      0.191700
     19 C19        -0.1580   -4.4380    5.6150 c3        1 L6G      0.105500
     20 C20         1.2710   -3.1330    4.0220 c         1 L6G      0.552100
     21 C21         2.4480   -2.1980    3.9830 c3        1 L6G     -0.181400
     22 N1          1.1370   -0.0980    3.4550 n4        1 L6G     -0.706800
     23 N2          0.7630    3.2450    4.1730 n4        1 L6G     -0.681800
     24 N3         -1.1160    0.9100    5.1650 n2        1 L6G     -0.736900
     25 N4         -0.7150   -2.0040    5.7290 nc        1 L6G     -0.659000
     26 N5          1.2400   -4.1090    5.1760 n4        1 L6G     -0.662800
     27 O1          1.7380    0.4180    5.6460 o         1 L6G     -0.381100
     28 O2          0.1640    3.7650    6.3560 o         1 L6G     -0.355100
     29 O3          0.3590   -3.1990    3.2120 o         1 L6G     -0.391100
     30 S1          0.3740    1.8980    1.2300 sh        1 L6G     -0.609900
     31 S2         -2.7720    1.1200    7.1740 ss        1 L6G      0.003700
     32 S3         -2.1020   -3.4440    7.3490 ss        1 L6G      0.332700
     33 H1          2.0170    2.6160   -0.3430 h1        1 L6G      0.123200
     34 H2          1.0940    1.1860   -0.9750 h1        1 L6G      0.123200
     35 H3          3.0590    1.0720    1.4360 hc        1 L6G      0.084200
     36 H4          3.5570    0.7670   -0.2740 hc        1 L6G      0.084200
     37 H5          2.1010   -1.1900   -0.4810 ha        1 L6G      0.189000
     38 H6          1.7550   -2.5150    1.4900 ha        1 L6G      0.175000
     39 H7          3.2220   -0.3980    3.0900 hx        1 L6G      0.120700
     40 H8          2.1440    2.2550    2.9390 hx        1 L6G      0.122700
     41 H9          3.4640    3.7860    4.2190 hc        1 L6G      0.101700
     42 H10         2.7770    2.1380    6.7600 hc        1 L6G      0.072367
     43 H11         4.1360    3.3210    6.6030 hc        1 L6G      0.072367
     44 H12         2.4340    3.8970    6.4420 hc        1 L6G      0.072367
     45 H13         4.4130    1.6460    3.3030 hc        1 L6G      0.072367
     46 H14         5.3090    2.2650    4.7480 hc        1 L6G      0.072367
     47 H15         4.1880    0.8590    4.9350 hc        1 L6G      0.072367
     48 H16        -3.1960    2.3590    3.8240 hc        1 L6G      0.079367
     49 H17        -2.2290    3.8890    3.8270 hc        1 L6G      0.079367
     50 H18        -1.6210    2.3980    2.9530 hc        1 L6G      0.079367
     51 H19        -3.3920    3.1060    5.9810 h1        1 L6G      0.141700
     52 H20        -1.9940    3.3820    7.0830 h1        1 L6G      0.141700
     53 H22        -3.2280   -1.3600    7.8920 h4        1 L6G      0.237000
     54 H23        -0.0820   -5.2630    6.3860 hx        1 L6G      0.141700
     55 H24        -0.7160   -4.8300    4.7060 hx        1 L6G      0.141700
     56 H25         3.3500   -2.7780    3.6220 hc        1 L6G      0.139700
     57 H26         2.6790   -1.8060    5.0160 hc        1 L6G      0.139700
     58 H27         0.7740    0.4260    2.6020 hn        1 L6G      0.494800
     59 H28         1.1830    4.1930    4.2000 hn        1 L6G      0.482300
     60 H31         1.6970   -4.9850    4.8800 hn        1 L6G      0.478800
     61 H32        -0.7820    1.8060    0.5390 hs        1 L6G      0.341800
     62 H121        0.3580   -0.6680    3.8210 hn        1 L6G      0.494800
     63 H221        0.2010    3.1680    3.3040 hn        1 L6G      0.482300
     64 H52         1.7610   -3.7160    5.9700 hn        1 L6G      0.478800
@<TRIPOS>BOND
     1    1    2 1   
     2    1   30 1   
     3    1   33 1   
     4    1   34 1   
     5    2    3 1   
     6    2   35 1   
     7    2   36 1   
     8    3    4 2   
     9    3   37 1   
    10    4    5 1   
    11    4   38 1   
    12    5   21 1   
    13    5   22 1   
    14    5   39 1   
    15    6    7 1   
    16    6   22 1   
    17    6   27 2   
    18    7    8 1   
    19    7   23 1   
    20    7   40 1   
    21    8    9 1   
    22    8   10 1   
    23    8   41 1   
    24    9   42 1   
    25    9   43 1   
    26    9   44 1   
    27   10   45 1   
    28   10   46 1   
    29   10   47 1   
    30   11   12 1   
    31   11   23 1   
    32   11   28 2   
    33   12   13 1   
    34   12   14 1   
    35   12   24 1   
    36   13   48 1   
    37   13   49 1   
    38   13   50 1   
    39   14   31 1   
    40   14   51 1   
    41   14   52 1   
    42   15   16 1   
    43   15   24 2   
    44   15   31 1   
    45   16   17 2   
    46   16   25 1   
    47   17   32 1   
    48   17   53 1   
    49   18   19 1   
    50   18   25 2   
    51   18   32 1   
    52   19   26 1   
    53   19   54 1   
    54   19   55 1   
    55   20   21 1   
    56   20   26 1   
    57   20   29 2   
    58   21   56 1   
    59   21   57 1   
    60   22   58 1   
    61   22   62 1   
    62   23   59 1   
    63   23   63 1   
    64   26   60 1   
    65   26   64 1   
    66   30   61 1   
@<TRIPOS>SUBSTRUCTURE
     1 L6G         1 TEMP              0 ****  ****    0 ROOT
