@<TRIPOS>MOLECULE
L6S
   27    27     1     0     0
SMALL
bcc


@<TRIPOS>ATOM
      1 O1S         3.2240    0.8180    0.9550 o         1 L6S     -0.755867
      2 O2S         1.5920    1.6390   -0.5380 o         1 L6S     -0.755867
      3 O3S         3.6380    0.8040   -1.3760 o         1 L6S     -0.755867
      4 C1         -1.7440    1.1940    0.8460 c3        1 L6S      0.324900
      5 C2         -3.0110    0.4380    0.3960 c3        1 L6S      0.082100
      6 C3         -2.7000   -0.5640   -0.7280 c3        1 L6S      0.074100
      7 C4         -1.4840   -1.4390   -0.3730 c3        1 L6S      0.127100
      8 C5         -0.3210   -0.5010   -0.0300 c3        1 L6S      0.088100
      9 C6          0.9980   -1.2000    0.3450 c3        1 L6S      0.228400
     10 O2         -4.0280    1.3270   -0.0250 oh        1 L6S     -0.617800
     11 O3         -3.8000   -1.4390   -0.9390 oh        1 L6S     -0.620800
     12 O4         -1.7580   -2.2920    0.7240 oh        1 L6S     -0.589800
     13 O5         -0.6580    0.3320    1.0850 os        1 L6S     -0.411600
     14 O6          2.0190   -0.7590   -0.4820 os        1 L6S     -0.612500
     15 S1          2.7160    0.8250   -0.3380 s6        1 L6S      1.708300
     16 H2         -3.4430   -0.1140    1.2770 h1        1 L6S      0.085700
     17 H3         -2.4900    0.0010   -1.6790 h1        1 L6S      0.057700
     18 H4         -1.2100   -2.0670   -1.2660 h1        1 L6S      0.050700
     19 H5         -0.1420    0.1500   -0.9380 h1        1 L6S      0.092700
     20 H6          1.2400   -0.9930    1.4240 h1        1 L6S      0.040700
     21 H6A         0.8880   -2.3070    0.1880 h1        1 L6S      0.040700
     22 HO2        -3.6100    1.9840   -0.5990 ho        1 L6S      0.424000
     23 HO3        -4.5930   -0.8870   -0.9260 ho        1 L6S      0.413000
     24 HO4        -2.5810   -2.7500    0.5080 ho        1 L6S      0.403000
     25 O1         -1.3840    2.1140   -0.1550 oh        1 L6S     -0.682800
     26 HO1        -0.4070    2.1770   -0.1860 ho        1 L6S      0.495000
     27 H1         -1.9230    1.7280    1.8220 h2        1 L6S      0.068700
@<TRIPOS>BOND
     1    1   15 1   
     2    2   15 1   
     3    3   15 1   
     4    4    5 1   
     5    4   13 1   
     6    4   25 1   
     7    4   27 1   
     8    5    6 1   
     9    5   10 1   
    10    5   16 1   
    11    6    7 1   
    12    6   11 1   
    13    6   17 1   
    14    7    8 1   
    15    7   12 1   
    16    7   18 1   
    17    8    9 1   
    18    8   13 1   
    19    8   19 1   
    20    9   14 1   
    21    9   20 1   
    22    9   21 1   
    23   10   22 1   
    24   11   23 1   
    25   12   24 1   
    26   14   15 1   
    27   25   26 1   
@<TRIPOS>SUBSTRUCTURE
     1 L6S         1 TEMP              0 ****  ****    0 ROOT
