@<TRIPOS>MOLECULE
L71
   34    31     1     0     0
SMALL
bcc


@<TRIPOS>ATOM
      1 C          -0.6850    1.9690    0.0490 c3        1 L71     -0.101800
      2 N           2.8200    1.3960    2.1580 n         1 L71     -0.371000
      3 C1          2.5700    2.4140    1.3810 c2        1 L71      0.351400
      4 N1          1.2270    5.9930    2.5120 n1        1 L71     -0.756200
      5 C2          3.3160    0.0780    1.7130 c         1 L71      0.686500
      6 C3          3.4910   -0.8210    2.9080 c3        1 L71     -0.152400
      7 C4          3.1240    0.0060    4.1530 c3        1 L71      0.009400
      8 C5          2.6670    1.3710    3.6270 c         1 L71      0.692500
      9 C6          4.2140    0.1520    5.0600 c1        1 L71     -0.253100
     10 C7          8.2060   -0.3810    3.8110 c2        1 L71     -0.234100
     11 C8          7.8480   -0.0930    5.0240 c1        1 L71     -0.024800
     12 C9          7.5430    0.1930    6.2580 c2        1 L71     -0.198300
     13 C10         6.1710    0.3590    6.8070 c3        1 L71      0.016900
     14 C11         1.6250    4.9440    2.1860 c1        1 L71      0.359800
     15 C12         5.1140    0.2440    5.8460 c1        1 L71      0.031900
     16 H          -0.6100    1.0240   -0.5310 hc        1 L71      0.025950
     17 HA          0.3000    2.1990    0.5160 hc        1 L71      0.025950
     18 HB         -1.4540    1.8590    0.8450 hc        1 L71      0.025950
     19 H1          2.7320    2.3050    0.2840 h4        1 L71      0.120300
     20 H1A        -0.9720    2.8000   -0.6320 hc        1 L71      0.025950
     21 HN1         2.1750    3.4430    1.7980 h4        1 L71      0.120300
     22 HN1A        6.1000    1.3730    7.3030 hc        1 L71      0.094200
     23 H3          2.8250   -1.7180    2.7990 hc        1 L71      0.134700
     24 H3A         2.2390   -0.4560    4.6880 hc        1 L71      0.134700
     25 H4          4.5550   -1.1830    2.9460 hc        1 L71      0.134700
     26 H7          8.4150    0.3950    3.0590 ha        1 L71      0.139000
     27 H8          8.3440   -1.4190    3.4700 ha        1 L71      0.139000
     28 H9          8.3440    0.3280    7.0090 ha        1 L71      0.161000
     29 H11         4.5670    3.6630    1.0780 ha        1 L71      0.002500
     30 H11A        5.1040    4.0400    0.9040 ha        1 L71      0.002500
     31 H12         6.0120   -0.4170    7.6150 hc        1 L71      0.094200
     32 O           3.5170   -0.1330    0.5270 o         1 L71     -0.465500
     33 O1          2.2160    2.3340    4.2220 o         1 L71     -0.454500
     34 H13         0.8940    6.8670    2.7860 hn        1 L71      0.481400
@<TRIPOS>BOND
     1    1   16 1   
     2    1   17 1   
     3    1   18 1   
     4    1   20 1   
     5    2    3 2   
     6    2    5 1   
     7    2    8 1   
     8    3   19 1   
     9    3   21 1   
    10    4   14 3   
    11    4   34 1   
    12    5    6 1   
    13    5   32 2   
    14    6    7 1   
    15    6   23 1   
    16    6   25 1   
    17    7    8 1   
    18    7    9 1   
    19    7   24 1   
    20    8   33 2   
    21    9   15 3   
    22   10   11 2   
    23   10   26 1   
    24   10   27 1   
    25   11   12 2   
    26   12   13 1   
    27   12   28 1   
    28   13   15 1   
    29   13   22 1   
    30   13   31 1   
    31   29   30 1   
@<TRIPOS>SUBSTRUCTURE
     1 L71         1 TEMP              0 ****  ****    0 ROOT
