@<TRIPOS>MOLECULE
L71
   34    32     1     0     0
SMALL
bcc


@<TRIPOS>ATOM
      1 C          -1.6960   -1.4670   -1.0290 c3        1 L71     -0.273000
      2 N           2.0060   -0.5320    0.8280 n         1 L71     -0.241000
      3 C1          1.6510   -0.8580   -0.4050 c1        1 L71     -0.005000
      4 N1          8.1480    5.6710    8.2080 n3        1 L71     -0.156000
      5 C2          2.0920   -1.4860    1.9150 c2        1 L71      0.311000
      6 C3          2.4810   -0.7660    3.2000 c3        1 L71     -0.198000
      7 C4          2.7190    0.6970    2.8230 c3        1 L71     -0.104000
      8 C5          2.3600    0.7730    1.3310 c2        1 L71      0.249000
      9 C6          4.0990    1.2280    3.0480 c2        1 L71     -0.102000
     10 C7          5.2010    0.4720    3.1380 c2        1 L71     -0.178000
     11 C8          6.4710    3.6080    5.7780 c1        1 L71      0.062000
     12 C9          5.6290    2.9620    5.0310 c2        1 L71     -0.263000
     13 C10         4.8350    3.4620    3.9270 c2        1 L71     -0.146000
     14 C11         8.3650    4.8680    7.2180 c2        1 L71     -0.067000
     15 C12         4.1540    2.6880    3.0680 c2        1 L71     -0.048000
     16 H          -0.5890   -1.5100   -0.9080 hc        1 L71      0.068750
     17 HA          1.6230   -0.0140   -1.1310 ha        1 L71      0.070000
     18 HB         -1.9640   -1.7510   -2.0690 hc        1 L71      0.068750
     19 H1         -2.0560   -0.4350   -0.8230 hc        1 L71      0.068750
     20 H1A        -2.1730   -2.1760   -0.3180 hc        1 L71      0.068750
     21 HN1         4.7990    4.5610    3.8210 ha        1 L71      0.154000
     22 HN1A        8.8770    6.1380    8.7160 hn        1 L71      0.260500
     23 H3          3.3750   -1.2630    3.6490 hc        1 L71      0.138500
     24 H3A         1.9860    1.3500    3.3770 hc        1 L71      0.142000
     25 H4          1.6360   -0.8590    3.9300 hc        1 L71      0.138500
     26 H7          5.1940   -0.6230    3.0530 ha        1 L71      0.133500
     27 H8          6.2000    0.9150    3.2590 ha        1 L71      0.133500
     28 H9          5.4810    1.8700    5.2580 ha        1 L71      0.241000
     29 H11         7.4480    4.2850    6.5800 h4        1 L71      0.250000
     30 H11A        9.4090    4.6710    6.8960 h4        1 L71      0.250000
     31 H12         3.5510    3.1690    2.2670 ha        1 L71      0.184000
     32 O           1.8830   -2.6880    1.8080 o         1 L71     -0.203000
     33 O1          2.3550    1.7980    0.6490 o         1 L71     -0.267000
     34 H13         7.2150    5.8700    8.5230 hn        1 L71      0.260500
@<TRIPOS>BOND
     1    1   16 1   
     2    1   18 1   
     3    1   19 1   
     4    1   20 1   
     5    2    3 1   
     6    2    5 1   
     7    2    8 1   
     8    3   17 1   
     9    4   14 1   
    10    4   22 1   
    11    4   34 1   
    12    5    6 1   
    13    5   32 1   
    14    6    7 1   
    15    6   23 1   
    16    6   25 1   
    17    7    8 1   
    18    7    9 1   
    19    7   24 1   
    20    8   33 1   
    21    9   10 1   
    22    9   15 1   
    23   10   26 1   
    24   10   27 1   
    25   11   12 1   
    26   12   13 1   
    27   12   28 1   
    28   13   15 1   
    29   13   21 1   
    30   14   29 1   
    31   14   30 1   
    32   15   31 1   
@<TRIPOS>SUBSTRUCTURE
     1 L71         1 TEMP              0 ****  ****    0 ROOT
