@<TRIPOS>MOLECULE
L79
   57    56     1     0     0
SMALL
bcc


@<TRIPOS>ATOM
      1 C           2.5440    1.6620    0.1430 c3        1 L79     -0.158000
      2 C1          4.1170    2.2090    0.1020 c3        1 L79      0.069000
      3 O           4.6880    1.7430    1.5950 os        1 L79     -0.289000
      4 C2          3.6110    1.4100    2.2720 c3        1 L79      0.042000
      5 C3          2.5000    0.8550    1.1860 c3        1 L79     -0.113000
      6 C4          4.2360    3.4870   -0.1550 c2        1 L79     -0.214000
      7 C5          5.4700    4.0250   -0.3900 c1        1 L79     -0.174000
      8 C6          6.6570    3.1740   -0.3540 c1        1 L79      0.342000
      9 O1          6.9320    2.4470   -1.3330 o         1 L79     -0.576000
     10 O7          7.4540    3.2230    0.6550 o         1 L79     -0.576000
     11 C8          1.0750    0.5640    1.7130 c2        1 L79     -0.034000
     12 C9          1.0000   -0.1010    3.2250 c1        1 L79     -0.155000
     13 C10         2.5510   -0.2010    4.1440 c1        1 L79     -0.163000
     14 C11         3.8790    0.5690    3.4740 c2        1 L79     -0.131000
     15 C12        -0.0810    0.3480    0.7240 c2        1 L79     -0.029000
     16 C13        -0.3850   -0.9700    0.2830 c2        1 L79     -0.121000
     17 C14        -1.5430   -1.2110   -0.4300 c1        1 L79     -0.061000
     18 C15        -2.0480   -2.6900   -0.7400 c2        1 L79     -0.010000
     19 C16        -3.4170   -2.8270   -1.1320 c3        1 L79     -0.146000
     20 C17        -1.8360   -3.5280    0.5050 c3        1 L79     -0.202500
     21 C18        -1.1760   -3.2660   -1.8640 c3        1 L79     -0.202500
     22 C19        -2.4700   -0.0900   -0.7370 c2        1 L79     -0.056000
     23 C20        -3.8310   -0.4410   -1.5070 c3        1 L79     -0.011000
     24 C21        -5.0170   -0.1460   -0.5510 c3        1 L79     -0.202500
     25 C22        -3.9730   -1.7740   -1.9720 c3        1 L79     -0.147000
     26 C23        -3.9490    0.5110   -2.7380 c3        1 L79     -0.202500
     27 C24        -2.1780    1.1740   -0.3140 c1        1 L79     -0.130000
     28 C25        -0.9720    1.4230    0.4280 c1        1 L79     -0.104000
     29 H1A         2.3350    1.1780   -0.6670 hc        1 L79      0.113500
     30 H2A         1.9030    2.4400    0.2670 hc        1 L79      0.113500
     31 H1          4.6200    1.8180   -0.6160 h1        1 L79      0.149000
     32 H2          3.2760    2.1760    2.5900 h1        1 L79      0.081000
     33 H3          2.8350    0.0080    0.8780 hc        1 L79      0.110000
     34 H4          3.4710    4.0360   -0.1800 ha        1 L79      0.094000
     35 H5          5.5570    4.9680   -0.5790 ha        1 L79      0.101000
     36 H9          0.2120   -0.6880    3.4880 ha        1 L79      0.120000
     37 H10         2.5420   -0.4170    5.1040 ha        1 L79      0.117000
     38 H11         4.8430    0.2020    3.6510 ha        1 L79      0.137000
     39 H13         0.2960   -1.6950    0.3820 ha        1 L79      0.131000
     40 H161       -3.9590   -2.8760   -0.3140 hc        1 L79      0.076000
     41 H162       -3.5110   -3.6830   -1.6180 hc        1 L79      0.076000
     42 H171       -2.0890   -2.9960    1.3140 hc        1 L79      0.074333
     43 H172       -2.4250   -4.3770    0.4530 hc        1 L79      0.074333
     44 H173       -0.9050   -3.7850    0.5650 hc        1 L79      0.074333
     45 H181       -1.2440   -2.6610   -2.6950 hc        1 L79      0.074333
     46 H182       -1.5040   -4.2060   -2.1000 hc        1 L79      0.074333
     47 H183       -0.2330   -3.3100   -1.5620 hc        1 L79      0.074333
     48 H211       -4.8850   -0.6730    0.3340 hc        1 L79      0.074833
     49 H212       -5.0500    0.7710   -0.3660 hc        1 L79      0.074833
     50 H213       -5.8930   -0.4370   -0.9970 hc        1 L79      0.074833
     51 H221       -4.8900   -1.9450   -2.0790 hc        1 L79      0.080500
     52 H222       -3.5450   -1.8340   -2.8640 hc        1 L79      0.080500
     53 H231       -4.1480    1.4450   -2.4250 hc        1 L79      0.074833
     54 H232       -3.1840    0.5090   -3.1870 hc        1 L79      0.074833
     55 H233       -4.6420    0.2140   -3.2980 hc        1 L79      0.074833
     56 H24        -2.8070    1.9320   -0.5230 ha        1 L79      0.131000
     57 H25        -0.8140    2.3020    0.8130 ha        1 L79      0.147000
@<TRIPOS>BOND
     1    1    2 1   
     2    1    5 1   
     3    1   29 1   
     4    1   30 1   
     5    2    3 1   
     6    2    6 1   
     7    2   31 1   
     8    3    4 1   
     9    4    5 1   
    10    4   14 1   
    11    4   32 1   
    12    5   11 1   
    13    5   33 1   
    14    6    7 1   
    15    6   34 1   
    16    7   35 1   
    17    8    9 1   
    18    8   10 1   
    19   11   12 1   
    20   11   15 1   
    21   12   36 1   
    22   13   14 1   
    23   13   37 1   
    24   14   38 1   
    25   15   16 1   
    26   15   28 1   
    27   16   17 1   
    28   16   39 1   
    29   17   22 1   
    30   18   19 1   
    31   18   20 1   
    32   18   21 1   
    33   19   25 1   
    34   19   40 1   
    35   19   41 1   
    36   20   42 1   
    37   20   43 1   
    38   20   44 1   
    39   21   45 1   
    40   21   46 1   
    41   21   47 1   
    42   22   23 1   
    43   22   27 1   
    44   23   24 1   
    45   23   25 1   
    46   23   26 1   
    47   24   48 1   
    48   24   49 1   
    49   24   50 1   
    50   25   51 1   
    51   25   52 1   
    52   26   53 1   
    53   26   54 1   
    54   26   55 1   
    55   27   56 1   
    56   28   57 1   
@<TRIPOS>SUBSTRUCTURE
     1 L79         1 TEMP              0 ****  ****    0 ROOT
