@<TRIPOS>MOLECULE
L79
   57    60     1     0     0
SMALL
bcc


@<TRIPOS>ATOM
      1 C           1.8210    0.2860    1.3150 c3        1 L79     -0.095400
      2 C1          3.3360    0.4250    1.5410 c3        1 L79      0.182300
      3 O           3.7240    1.7310    1.0670 os        1 L79     -0.415600
      4 C2          2.6910    2.2880    0.2470 c3        1 L79      0.172300
      5 C3          1.3730    1.5970    0.6580 c3        1 L79     -0.039500
      6 C4          4.1000   -0.6750    0.8950 c2        1 L79     -0.249200
      7 C5          5.0500   -0.5340   -0.0290 ce        1 L79     -0.164200
      8 C6          5.7860   -1.7050   -0.6430 c         1 L79      0.889800
      9 O1          6.6090   -1.4470   -1.5690 o         1 L79     -0.840800
     10 O7          5.5500   -2.8730   -0.2190 o         1 L79     -0.840800
     11 C8          0.4070    1.3780   -0.4570 ce        1 L79     -0.072400
     12 C9          0.7790    1.4840   -1.7520 cf        1 L79     -0.106000
     13 C10         2.1360    1.8170   -2.1240 cf        1 L79     -0.154000
     14 C11         3.0440    2.1580   -1.1980 c2        1 L79     -0.138200
     15 C12        -0.9630    1.0130   -0.0940 ca        1 L79     -0.035800
     16 C13        -1.5700   -0.1000   -0.6840 ca        1 L79     -0.119000
     17 C14        -2.8810   -0.4800   -0.3660 ca        1 L79     -0.060300
     18 C15        -3.4370   -1.7160   -1.0230 c3        1 L79     -0.004700
     19 C16        -4.7280   -2.1730   -0.3440 c3        1 L79     -0.069400
     20 C17        -2.4340   -2.8660   -0.9230 c3        1 L79     -0.085600
     21 C18        -3.7010   -1.4270   -2.4980 c3        1 L79     -0.085600
     22 C19        -3.6210    0.3000    0.5380 ca        1 L79     -0.069300
     23 C20        -5.0480   -0.0060    0.9050 c3        1 L79     -0.002700
     24 C21        -5.8990    1.2620    0.8320 c3        1 L79     -0.083600
     25 C22        -5.6620   -1.0260   -0.0540 c3        1 L79     -0.068400
     26 C23        -5.0960   -0.5430    2.3330 c3        1 L79     -0.083600
     27 C24        -3.0030    1.4080    1.1370 ca        1 L79     -0.135000
     28 C25        -1.6960    1.7640    0.8340 ca        1 L79     -0.125000
     29 H1A         1.6050   -0.5890    0.6540 hc        1 L79      0.055700
     30 H2A         1.2890    0.1280    2.2840 hc        1 L79      0.055700
     31 H1          3.5750    0.4540    2.6430 h1        1 L79      0.045700
     32 H2          2.6720    3.3840    0.5140 h1        1 L79      0.054700
     33 H3          0.8790    2.2440    1.4360 hc        1 L79      0.048700
     34 H4          3.8280   -1.6830    1.2550 ha        1 L79      0.137000
     35 H5          5.3470    0.4570   -0.4080 ha        1 L79      0.106000
     36 H9          0.0610    1.3050   -2.5660 ha        1 L79      0.122000
     37 H10         2.3970    1.7470   -3.1910 ha        1 L79      0.130000
     38 H11         4.1000    2.3510   -1.4420 ha        1 L79      0.151000
     39 H13        -0.9900   -0.6930   -1.4100 ha        1 L79      0.144000
     40 H161       -4.4710   -2.6990    0.6140 hc        1 L79      0.041200
     41 H162       -5.2440   -2.9180   -1.0060 hc        1 L79      0.041200
     42 H171       -2.9250   -3.8220   -1.2290 hc        1 L79      0.037533
     43 H172       -1.5590   -2.6930   -1.5930 hc        1 L79      0.037533
     44 H173       -2.0660   -2.9700    0.1250 hc        1 L79      0.037533
     45 H181       -4.4700   -0.6260   -2.6110 hc        1 L79      0.037533
     46 H182       -2.7610   -1.0890   -2.9970 hc        1 L79      0.037533
     47 H183       -4.0660   -2.3500   -3.0090 hc        1 L79      0.037533
     48 H211       -5.6470    1.9600    1.6650 hc        1 L79      0.034200
     49 H212       -5.7300    1.7870   -0.1380 hc        1 L79      0.034200
     50 H213       -6.9810    0.9960    0.9140 hc        1 L79      0.034200
     51 H221       -6.6130   -1.4190    0.3920 hc        1 L79      0.038700
     52 H222       -5.9310   -0.5100   -1.0140 hc        1 L79      0.038700
     53 H231       -6.1540   -0.7300    2.6360 hc        1 L79      0.034200
     54 H232       -4.5250   -1.4980    2.4120 hc        1 L79      0.034200
     55 H233       -4.6470    0.1980    3.0370 hc        1 L79      0.034200
     56 H24        -3.5650    2.0110    1.8680 ha        1 L79      0.123000
     57 H25        -1.2400    2.6420    1.3170 ha        1 L79      0.132000
@<TRIPOS>BOND
     1    1    2 1   
     2    1    5 1   
     3    1   29 1   
     4    1   30 1   
     5    2    3 1   
     6    2    6 1   
     7    2   31 1   
     8    3    4 1   
     9    4    5 1   
    10    4   14 1   
    11    4   32 1   
    12    5   11 1   
    13    5   33 1   
    14    6    7 2   
    15    6   34 1   
    16    7    8 1   
    17    7   35 1   
    18    8    9 1   
    19    8   10 1   
    20   11   12 2   
    21   11   15 1   
    22   12   13 1   
    23   12   36 1   
    24   13   14 2   
    25   13   37 1   
    26   14   38 1   
    27   15   16 ar  
    28   15   28 ar  
    29   16   17 ar  
    30   16   39 1   
    31   17   18 1   
    32   17   22 ar  
    33   18   19 1   
    34   18   20 1   
    35   18   21 1   
    36   19   25 1   
    37   19   40 1   
    38   19   41 1   
    39   20   42 1   
    40   20   43 1   
    41   20   44 1   
    42   21   45 1   
    43   21   46 1   
    44   21   47 1   
    45   22   23 1   
    46   22   27 ar  
    47   23   24 1   
    48   23   25 1   
    49   23   26 1   
    50   24   48 1   
    51   24   49 1   
    52   24   50 1   
    53   25   51 1   
    54   25   52 1   
    55   26   53 1   
    56   26   54 1   
    57   26   55 1   
    58   27   28 ar  
    59   27   56 1   
    60   28   57 1   
@<TRIPOS>SUBSTRUCTURE
     1 L79         1 TEMP              0 ****  ****    0 ROOT
