@<TRIPOS>MOLECULE
L79
   57    60     1     0     0
SMALL
bcc


@<TRIPOS>ATOM
      1 C           0.2500   -0.6320    0.2820 c3        1 L79     -0.095400
      2 C1          1.6630   -0.0620    0.4790 c3        1 L79      0.179300
      3 O           2.0120   -0.2430    1.8690 os        1 L79     -0.418600
      4 C2          0.8550   -0.5850    2.6360 c3        1 L79      0.172300
      5 C3         -0.1860   -1.1620    1.6530 c3        1 L79     -0.042500
      6 C4          1.7420    1.3750    0.0990 c2        1 L79     -0.232200
      7 C5          2.2400    1.8010   -1.0630 ce        1 L79     -0.182200
      8 C6          2.2790    3.2570   -1.4730 c         1 L79      0.892800
      9 O1          2.8420    3.5270   -2.5740 o         1 L79     -0.838300
     10 O7          1.7510    4.1260   -0.7210 o         1 L79     -0.838300
     11 C8         -1.6050   -0.8240    1.9700 ce        1 L79     -0.061400
     12 C9         -1.9270    0.1440    2.8550 cf        1 L79     -0.114000
     13 C10        -0.9110    0.9040    3.5470 cf        1 L79     -0.150000
     14 C11         0.3890    0.5940    3.4260 c2        1 L79     -0.144200
     15 C12        -2.6420   -1.5710    1.2560 ca        1 L79     -0.039800
     16 C13        -3.6570   -0.8860    0.5810 ca        1 L79     -0.117000
     17 C14        -4.6700   -1.5660   -0.1120 ca        1 L79     -0.059300
     18 C15        -5.6960   -0.7440   -0.8460 c3        1 L79     -0.004700
     19 C16        -6.5210   -1.6090   -1.7990 c3        1 L79     -0.069400
     20 C17        -5.0110    0.3360   -1.6830 c3        1 L79     -0.085600
     21 C18        -6.6150   -0.0660    0.1660 c3        1 L79     -0.085600
     22 C19        -4.6890   -2.9700   -0.0920 ca        1 L79     -0.067300
     23 C20        -5.7600   -3.7820   -0.7700 c3        1 L79     -0.003700
     24 C21        -6.2820   -4.8660    0.1720 c3        1 L79     -0.083600
     25 C22        -6.9510   -2.9090   -1.1690 c3        1 L79     -0.068400
     26 C23        -5.1730   -4.4540   -2.0090 c3        1 L79     -0.083600
     27 C24        -3.6620   -3.6520    0.5770 ca        1 L79     -0.135000
     28 C25        -2.6490   -2.9720    1.2400 ca        1 L79     -0.124000
     29 H1A         0.2570   -1.4530   -0.4750 hc        1 L79      0.059200
     30 H2A        -0.4440    0.1670   -0.0800 hc        1 L79      0.059200
     31 H1          2.4250   -0.6740   -0.0800 h1        1 L79      0.050700
     32 H2          1.2080   -1.3770    3.3560 h1        1 L79      0.053700
     33 H3         -0.0780   -2.2820    1.6630 hc        1 L79      0.050700
     34 H4          1.3500    2.0920    0.8390 ha        1 L79      0.147000
     35 H5          2.6570    1.1070   -1.8100 ha        1 L79      0.095000
     36 H9         -2.9780    0.3940    3.0670 ha        1 L79      0.123000
     37 H10        -1.2480    1.7570    4.1540 ha        1 L79      0.125000
     38 H11         1.1870    1.1870    3.8950 ha        1 L79      0.142000
     39 H13        -3.6460    0.2160    0.5900 ha        1 L79      0.144000
     40 H161       -5.9140   -1.8200   -2.7190 hc        1 L79      0.042200
     41 H162       -7.4270   -1.0320   -2.1220 hc        1 L79      0.042200
     42 H171       -5.7530    0.8060   -2.3730 hc        1 L79      0.037867
     43 H172       -4.5840    1.1370   -1.0340 hc        1 L79      0.037867
     44 H173       -4.1860   -0.1070   -2.2900 hc        1 L79      0.037867
     45 H181       -7.1740   -0.8260    0.7620 hc        1 L79      0.037867
     46 H182       -6.0160    0.5640    0.8670 hc        1 L79      0.037867
     47 H183       -7.3490    0.5880   -0.3630 hc        1 L79      0.037867
     48 H211       -5.5190   -5.6670    0.3220 hc        1 L79      0.034533
     49 H212       -6.5380   -4.4260    1.1650 hc        1 L79      0.034533
     50 H213       -7.1990   -5.3340   -0.2610 hc        1 L79      0.034533
     51 H221       -7.5700   -2.6970   -0.2570 hc        1 L79      0.038200
     52 H222       -7.5960   -3.4790   -1.8870 hc        1 L79      0.038200
     53 H231       -5.9440   -5.0970   -2.4970 hc        1 L79      0.034533
     54 H232       -4.8250   -3.6890   -2.7420 hc        1 L79      0.034533
     55 H233       -4.3020   -5.0920   -1.7230 hc        1 L79      0.034533
     56 H24        -3.6520   -4.7530    0.5750 ha        1 L79      0.124000
     57 H25        -1.8580   -3.5340    1.7580 ha        1 L79      0.131000
@<TRIPOS>BOND
     1    1    2 1   
     2    1    5 1   
     3    1   29 1   
     4    1   30 1   
     5    2    3 1   
     6    2    6 1   
     7    2   31 1   
     8    3    4 1   
     9    4    5 1   
    10    4   14 1   
    11    4   32 1   
    12    5   11 1   
    13    5   33 1   
    14    6    7 2   
    15    6   34 1   
    16    7    8 1   
    17    7   35 1   
    18    8    9 1   
    19    8   10 1   
    20   11   12 2   
    21   11   15 1   
    22   12   13 1   
    23   12   36 1   
    24   13   14 2   
    25   13   37 1   
    26   14   38 1   
    27   15   16 ar  
    28   15   28 ar  
    29   16   17 ar  
    30   16   39 1   
    31   17   18 1   
    32   17   22 ar  
    33   18   19 1   
    34   18   20 1   
    35   18   21 1   
    36   19   25 1   
    37   19   40 1   
    38   19   41 1   
    39   20   42 1   
    40   20   43 1   
    41   20   44 1   
    42   21   45 1   
    43   21   46 1   
    44   21   47 1   
    45   22   23 1   
    46   22   27 ar  
    47   23   24 1   
    48   23   25 1   
    49   23   26 1   
    50   24   48 1   
    51   24   49 1   
    52   24   50 1   
    53   25   51 1   
    54   25   52 1   
    55   26   53 1   
    56   26   54 1   
    57   26   55 1   
    58   27   28 ar  
    59   27   56 1   
    60   28   57 1   
@<TRIPOS>SUBSTRUCTURE
     1 L79         1 TEMP              0 ****  ****    0 ROOT
