@<TRIPOS>MOLECULE
L79
   57    60     1     0     0
SMALL
bcc


@<TRIPOS>ATOM
      1 C           0.2480   -0.6320    0.2990 c3        1 L79     -0.095400
      2 C1          1.6600   -0.0590    0.5010 c3        1 L79      0.179300
      3 O           2.0040   -0.2390    1.8920 os        1 L79     -0.418600
      4 C2          0.8440   -0.5830    2.6550 c3        1 L79      0.172300
      5 C3         -0.1920   -1.1630    1.6690 c3        1 L79     -0.042500
      6 C4          1.7370    1.3790    0.1210 c2        1 L79     -0.232200
      7 C5          2.2400    1.8050   -1.0380 ce        1 L79     -0.182200
      8 C6          2.2770    3.2610   -1.4480 c         1 L79      0.892800
      9 O1          2.8450    3.5330   -2.5460 o         1 L79     -0.838300
     10 O7          1.7430    4.1290   -0.6990 o         1 L79     -0.838300
     11 C8         -1.6120   -0.8280    1.9790 ce        1 L79     -0.061400
     12 C9         -1.9400    0.1400    2.8630 cf        1 L79     -0.114000
     13 C10        -0.9270    0.9020    3.5590 cf        1 L79     -0.150000
     14 C11         0.3730    0.5940    3.4430 c2        1 L79     -0.144200
     15 C12        -2.6450   -1.5770    1.2620 ca        1 L79     -0.039800
     16 C13        -3.6590   -0.8940    0.5830 ca        1 L79     -0.117000
     17 C14        -4.6680   -1.5750   -0.1130 ca        1 L79     -0.059300
     18 C15        -5.6930   -0.7550   -0.8510 c3        1 L79     -0.004700
     19 C16        -6.5130   -1.6220   -1.8070 c3        1 L79     -0.069400
     20 C17        -5.0070    0.3260   -1.6860 c3        1 L79     -0.085600
     21 C18        -6.6170   -0.0790    0.1580 c3        1 L79     -0.085600
     22 C19        -4.6850   -2.9790   -0.0940 ca        1 L79     -0.067300
     23 C20        -5.7510   -3.7940   -0.7760 c3        1 L79     -0.003700
     24 C21        -6.2740   -4.8790    0.1650 c3        1 L79     -0.083600
     25 C22        -6.9420   -2.9230   -1.1780 c3        1 L79     -0.068400
     26 C23        -5.1590   -4.4650   -2.0120 c3        1 L79     -0.083600
     27 C24        -3.6580   -3.6600    0.5790 ca        1 L79     -0.135000
     28 C25        -2.6490   -2.9780    1.2460 ca        1 L79     -0.124000
     29 H1A        -0.4460    0.1660   -0.0660 hc        1 L79      0.059200
     30 H2A         0.2600   -1.4520   -0.4580 hc        1 L79      0.059200
     31 H1          2.4250   -0.6700   -0.0550 h1        1 L79      0.050700
     32 H2          1.1960   -1.3760    3.3770 h1        1 L79      0.053700
     33 H3         -0.0810   -2.2830    1.6780 hc        1 L79      0.050700
     34 H4          1.3400    2.0940    0.8590 ha        1 L79      0.147000
     35 H5          2.6610    1.1120   -1.7830 ha        1 L79      0.095000
     36 H9         -2.9920    0.3870    3.0710 ha        1 L79      0.123000
     37 H10        -1.2690    1.7540    4.1650 ha        1 L79      0.125000
     38 H11         1.1690    1.1890    3.9150 ha        1 L79      0.142000
     39 H13        -3.6500    0.2080    0.5920 ha        1 L79      0.144000
     40 H161       -7.4200   -1.0470   -2.1340 hc        1 L79      0.042200
     41 H162       -5.9020   -1.8320   -2.7250 hc        1 L79      0.042200
     42 H171       -4.1790   -0.1160   -2.2900 hc        1 L79      0.037867
     43 H172       -4.5840    1.1270   -1.0350 hc        1 L79      0.037867
     44 H173       -5.7470    0.7940   -2.3790 hc        1 L79      0.037867
     45 H181       -7.3510    0.5730   -0.3740 hc        1 L79      0.037867
     46 H182       -6.0210    0.5520    0.8610 hc        1 L79      0.037867
     47 H183       -7.1770   -0.8400    0.7520 hc        1 L79      0.037867
     48 H211       -7.1890   -5.3490   -0.2720 hc        1 L79      0.034533
     49 H212       -6.5350   -4.4400    1.1570 hc        1 L79      0.034533
     50 H213       -5.5110   -5.6780    0.3170 hc        1 L79      0.034533
     51 H221       -7.5850   -3.4940   -1.8990 hc        1 L79      0.038200
     52 H222       -7.5660   -2.7120   -0.2690 hc        1 L79      0.038200
     53 H231       -5.9270   -5.1090   -2.5030 hc        1 L79      0.034533
     54 H232       -4.8100   -3.6990   -2.7440 hc        1 L79      0.034533
     55 H233       -4.2880   -5.1010   -1.7230 hc        1 L79      0.034533
     56 H24        -3.6470   -4.7610    0.5770 ha        1 L79      0.124000
     57 H25        -1.8590   -3.5380    1.7670 ha        1 L79      0.131000
@<TRIPOS>BOND
     1    1    2 1   
     2    1    5 1   
     3    1   29 1   
     4    1   30 1   
     5    2    3 1   
     6    2    6 1   
     7    2   31 1   
     8    3    4 1   
     9    4    5 1   
    10    4   14 1   
    11    4   32 1   
    12    5   11 1   
    13    5   33 1   
    14    6    7 2   
    15    6   34 1   
    16    7    8 1   
    17    7   35 1   
    18    8    9 1   
    19    8   10 1   
    20   11   12 2   
    21   11   15 1   
    22   12   13 1   
    23   12   36 1   
    24   13   14 2   
    25   13   37 1   
    26   14   38 1   
    27   15   16 ar  
    28   15   28 ar  
    29   16   17 ar  
    30   16   39 1   
    31   17   18 1   
    32   17   22 ar  
    33   18   19 1   
    34   18   20 1   
    35   18   21 1   
    36   19   25 1   
    37   19   40 1   
    38   19   41 1   
    39   20   42 1   
    40   20   43 1   
    41   20   44 1   
    42   21   45 1   
    43   21   46 1   
    44   21   47 1   
    45   22   23 1   
    46   22   27 ar  
    47   23   24 1   
    48   23   25 1   
    49   23   26 1   
    50   24   48 1   
    51   24   49 1   
    52   24   50 1   
    53   25   51 1   
    54   25   52 1   
    55   26   53 1   
    56   26   54 1   
    57   26   55 1   
    58   27   28 ar  
    59   27   56 1   
    60   28   57 1   
@<TRIPOS>SUBSTRUCTURE
     1 L79         1 TEMP              0 ****  ****    0 ROOT
