@<TRIPOS>MOLECULE
L7A
   36    38     1     0     0
SMALL
bcc


@<TRIPOS>ATOM
      1 C1         -0.6400   -0.5300    0.2550 ca        1 L7A     -0.206600
      2 N1         -5.8860   -3.6790   -6.2660 nb        1 L7A     -0.634000
      3 O1         -2.7200    2.4500   -1.5250 o         1 L7A     -0.634500
      4 C2          0.2600   -1.4410    0.8430 ca        1 L7A     -0.063500
      5 N2         -3.0910   -0.0240   -0.2420 n4        1 L7A     -0.523600
      6 O2         -2.3420   -2.2090   -0.1310 o         1 L7A     -0.448100
      7 C3          1.5500   -1.0310    1.1640 ca        1 L7A     -0.130000
      8 N3         -3.5640    1.7040   -3.5340 n         1 L7A     -0.389100
      9 C4          1.9560    0.2780    0.8970 ca        1 L7A     -0.048000
     10 C5          1.0680    1.1780    0.3010 ca        1 L7A     -0.130000
     11 C6         -0.2260    0.7830   -0.0220 ca        1 L7A     -0.063500
     12 C7         -1.9710   -1.0440   -0.0500 c         1 L7A      0.586700
     13 C8         -4.0800    0.6960   -4.2910 cc        1 L7A      0.091600
     14 C9         -4.2850   -0.5840   -3.7810 cd        1 L7A     -0.138200
     15 C10        -3.9550   -0.8470   -2.4280 cd        1 L7A      0.066000
     16 C11        -3.4330    0.1650   -1.6450 cc        1 L7A     -0.240200
     17 C12        -3.2040    1.5120   -2.1900 c         1 L7A      0.695700
     18 C13        -6.3000   -3.5180   -4.9950 ca        1 L7A      0.414700
     19 C14        -4.9490   -2.8290   -6.7250 ca        1 L7A      0.414700
     20 C15        -4.3910   -1.7960   -5.9500 ca        1 L7A     -0.240300
     21 C16        -4.8300   -1.6390   -4.6280 ca        1 L7A     -0.030800
     22 C17        -5.8060   -2.5180   -4.1380 ca        1 L7A     -0.240300
     23 H2         -0.0620   -2.4780    1.0440 ha        1 L7A      0.162500
     24 H3          2.2510   -1.7450    1.6270 ha        1 L7A      0.167500
     25 H4          2.9790    0.6010    1.1530 ha        1 L7A      0.166000
     26 H5          1.3930    2.2090    0.0830 ha        1 L7A      0.167500
     27 H6         -0.8900    1.5150   -0.5140 ha        1 L7A      0.162500
     28 H8         -4.3360    0.9420   -5.3440 h4        1 L7A      0.198000
     29 H10        -4.1130   -1.8680   -2.0290 ha        1 L7A      0.184000
     30 H13        -7.0720   -4.2300   -4.6460 h4        1 L7A      0.041600
     31 H14        -4.6280   -2.9860   -7.7720 h4        1 L7A      0.041600
     32 H15        -3.6200   -1.1410   -6.3780 ha        1 L7A      0.143000
     33 H17        -6.1910   -2.4300   -3.1140 ha        1 L7A      0.143000
     34 HN2        -2.8070    0.8880    0.1510 hn        1 L7A      0.470800
     35 HN3        -3.4320    2.6190   -3.9230 hn        1 L7A      0.372500
     36 H22        -3.9270   -0.3590    0.2530 hn        1 L7A      0.470800
@<TRIPOS>BOND
     1    1    4 ar  
     2    1   11 ar  
     3    1   12 1   
     4    2   18 ar  
     5    2   19 ar  
     6    3   17 2   
     7    4    7 ar  
     8    4   23 1   
     9    5   12 1   
    10    5   16 1   
    11    5   34 1   
    12    5   36 1   
    13    6   12 2   
    14    7    9 ar  
    15    7   24 1   
    16    8   13 1   
    17    8   17 1   
    18    8   35 1   
    19    9   10 ar  
    20    9   25 1   
    21   10   11 ar  
    22   10   26 1   
    23   11   27 1   
    24   13   14 2   
    25   13   28 1   
    26   14   15 1   
    27   14   21 1   
    28   15   16 2   
    29   15   29 1   
    30   16   17 1   
    31   18   22 ar  
    32   18   30 1   
    33   19   20 ar  
    34   19   31 1   
    35   20   21 ar  
    36   20   32 1   
    37   21   22 ar  
    38   22   33 1   
@<TRIPOS>SUBSTRUCTURE
     1 L7A         1 TEMP              0 ****  ****    0 ROOT
