@<TRIPOS>MOLECULE
L7A
   36    38     1     0     0
SMALL
bcc


@<TRIPOS>ATOM
      1 C1         -0.6270   -0.5630    0.2450 ca        1 L7A     -0.206600
      2 N1         -5.8520   -3.6210   -6.3360 nb        1 L7A     -0.634000
      3 O1         -2.7780    2.4270   -1.4320 o         1 L7A     -0.634500
      4 C2          0.2950   -1.4720    0.7990 ca        1 L7A     -0.063500
      5 N2         -3.0900   -0.0910   -0.2220 n4        1 L7A     -0.523600
      6 O2         -2.2960   -2.2630   -0.1810 o         1 L7A     -0.448100
      7 C3          1.5800   -1.0460    1.1250 ca        1 L7A     -0.130000
      8 N3         -3.6210    1.7240   -3.4570 n         1 L7A     -0.389100
      9 C4          1.9570    0.2790    0.8950 ca        1 L7A     -0.048000
     10 C5          1.0470    1.1780    0.3320 ca        1 L7A     -0.130000
     11 C6         -0.2410    0.7670    0.0050 ca        1 L7A     -0.063500
     12 C7         -1.9480   -1.0940   -0.0670 c         1 L7A      0.586700
     13 C8         -4.1220    0.7290   -4.2400 cc        1 L7A      0.091600
     14 C9         -4.2960   -0.5700   -3.7680 cd        1 L7A     -0.138200
     15 C10        -3.9520   -0.8660   -2.4260 cd        1 L7A      0.066000
     16 C11        -3.4450    0.1320   -1.6160 cc        1 L7A     -0.240200
     17 C12        -3.2480    1.5000   -2.1220 c         1 L7A      0.695700
     18 C13        -6.2600   -3.5070   -5.0580 ca        1 L7A      0.414700
     19 C14        -4.9360   -2.7380   -6.7750 ca        1 L7A      0.414700
     20 C15        -4.3930   -1.7170   -5.9720 ca        1 L7A     -0.240300
     21 C16        -4.8260   -1.6090   -4.6430 ca        1 L7A     -0.030800
     22 C17        -5.7800   -2.5230   -4.1730 ca        1 L7A     -0.240300
     23 H2         -0.0040   -2.5200    0.9720 ha        1 L7A      0.162500
     24 H3          2.2980   -1.7590    1.5620 ha        1 L7A      0.167500
     25 H4          2.9750    0.6150    1.1540 ha        1 L7A      0.166000
     26 H5          1.3500    2.2210    0.1430 ha        1 L7A      0.167500
     27 H6         -0.9220    1.5000   -0.4610 ha        1 L7A      0.162500
     28 H8         -4.3900    1.0020   -5.2840 h4        1 L7A      0.198000
     29 H10        -4.0870   -1.9020   -2.0570 ha        1 L7A      0.184000
     30 H13        -7.0150   -4.2440   -4.7250 h4        1 L7A      0.041600
     31 H14        -4.6180   -2.8570   -7.8280 h4        1 L7A      0.041600
     32 H15        -3.6380   -1.0350   -6.3840 ha        1 L7A      0.143000
     33 H17        -6.1600   -2.4740   -3.1450 ha        1 L7A      0.143000
     34 HN2        -3.9160   -0.4580    0.2690 hn        1 L7A      0.470800
     35 HN3        -3.5100    2.6540   -3.8180 hn        1 L7A      0.372500
     36 H22        -2.8220    0.8140    0.1980 hn        1 L7A      0.470800
@<TRIPOS>BOND
     1    1    4 ar  
     2    1   11 ar  
     3    1   12 1   
     4    2   18 ar  
     5    2   19 ar  
     6    3   17 2   
     7    4    7 ar  
     8    4   23 1   
     9    5   12 1   
    10    5   16 1   
    11    5   34 1   
    12    5   36 1   
    13    6   12 2   
    14    7    9 ar  
    15    7   24 1   
    16    8   13 1   
    17    8   17 1   
    18    8   35 1   
    19    9   10 ar  
    20    9   25 1   
    21   10   11 ar  
    22   10   26 1   
    23   11   27 1   
    24   13   14 2   
    25   13   28 1   
    26   14   15 1   
    27   14   21 1   
    28   15   16 2   
    29   15   29 1   
    30   16   17 1   
    31   18   22 ar  
    32   18   30 1   
    33   19   20 ar  
    34   19   31 1   
    35   20   21 ar  
    36   20   32 1   
    37   21   22 ar  
    38   22   33 1   
@<TRIPOS>SUBSTRUCTURE
     1 L7A         1 TEMP              0 ****  ****    0 ROOT
