@<TRIPOS>MOLECULE
L7A
   36    38     1     0     0
SMALL
bcc


@<TRIPOS>ATOM
      1 C1         -0.6070   -0.5430    0.2280 ca        1 L7A     -0.206600
      2 N1         -5.8390   -3.6490   -6.3270 nb        1 L7A     -0.634000
      3 O1         -2.8230    2.4200   -1.4110 o         1 L7A     -0.634500
      4 C2          0.3350   -1.4410    0.7680 ca        1 L7A     -0.063500
      5 N2         -3.0820   -0.1110   -0.2150 ny        1 L7A     -0.523600
      6 O2         -2.2510   -2.2690   -0.1950 o         1 L7A     -0.448100
      7 C3          1.6150   -0.9940    1.0850 ca        1 L7A     -0.130000
      8 N3         -3.6710    1.7150   -3.4330 ns        1 L7A     -0.389100
      9 C4          1.9680    0.3380    0.8610 ca        1 L7A     -0.048000
     10 C5          1.0380    1.2260    0.3120 ca        1 L7A     -0.130000
     11 C6         -0.2460    0.7940   -0.0060 ca        1 L7A     -0.063500
     12 C7         -1.9220   -1.0950   -0.0760 c         1 L7A      0.586700
     13 C8         -4.1620    0.7170   -4.2190 cc        1 L7A      0.091600
     14 C9         -4.3110   -0.5880   -3.7540 cd        1 L7A     -0.138200
     15 C10        -3.9500   -0.8870   -2.4160 cd        1 L7A      0.066000
     16 C11        -3.4530    0.1150   -1.6040 cc        1 L7A     -0.240200
     17 C12        -3.2830    1.4880   -2.1030 c         1 L7A      0.695700
     18 C13        -6.2370   -3.5500   -5.0440 ca        1 L7A      0.414700
     19 C14        -4.9410   -2.7480   -6.7680 ca        1 L7A      0.414700
     20 C15        -4.4080   -1.7230   -5.9640 ca        1 L7A     -0.240300
     21 C16        -4.8320   -1.6310   -4.6300 ca        1 L7A     -0.030800
     22 C17        -5.7660   -2.5630   -4.1580 ca        1 L7A     -0.240300
     23 H2          0.0550   -2.4950    0.9360 ha        1 L7A      0.162500
     24 H3          2.3490   -1.6980    1.5120 ha        1 L7A      0.167500
     25 H4          2.9820    0.6900    1.1140 ha        1 L7A      0.166000
     26 H5          1.3210    2.2750    0.1280 ha        1 L7A      0.167500
     27 H6         -0.9440    1.5180   -0.4620 ha        1 L7A      0.162500
     28 H8         -4.4440    0.9910   -5.2580 h4        1 L7A      0.198000
     29 H10        -4.0650   -1.9270   -2.0520 ha        1 L7A      0.184000
     30 H13        -6.9770   -4.3020   -4.7100 h4        1 L7A      0.041600
     31 H14        -4.6310   -2.8550   -7.8250 h4        1 L7A      0.041600
     32 H15        -3.6690   -1.0260   -6.3780 ha        1 L7A      0.143000
     33 H17        -6.1380   -2.5270   -3.1260 ha        1 L7A      0.143000
     34 HN2        -2.8260    0.7960    0.2080 hn        1 L7A      0.470800
     35 HN3        -3.5800    2.6480   -3.7900 hn        1 L7A      0.372500
     36 H22        -3.8970   -0.4950    0.2810 hn        1 L7A      0.470800
@<TRIPOS>BOND
     1    1    4 ar  
     2    1   11 ar  
     3    1   12 1   
     4    2   18 ar  
     5    2   19 ar  
     6    3   17 2   
     7    4    7 ar  
     8    4   23 1   
     9    5   12 1   
    10    5   16 1   
    11    5   34 1   
    12    5   36 1   
    13    6   12 2   
    14    7    9 ar  
    15    7   24 1   
    16    8   13 1   
    17    8   17 1   
    18    8   35 1   
    19    9   10 ar  
    20    9   25 1   
    21   10   11 ar  
    22   10   26 1   
    23   11   27 1   
    24   13   14 2   
    25   13   28 1   
    26   14   15 1   
    27   14   21 1   
    28   15   16 2   
    29   15   29 1   
    30   16   17 1   
    31   18   22 ar  
    32   18   30 1   
    33   19   20 ar  
    34   19   31 1   
    35   20   21 ar  
    36   20   32 1   
    37   21   22 ar  
    38   22   33 1   
@<TRIPOS>SUBSTRUCTURE
     1 L7A         1 TEMP              0 ****  ****    0 ROOT
