@<TRIPOS>MOLECULE
L7A
   35    37     1     0     0
SMALL
bcc


@<TRIPOS>ATOM
      1 C1         -3.3620    0.9600    0.1120 ca        1 L7A     -0.146600
      2 N1          5.7050    1.8520   -0.6000 nb        1 L7A     -0.664000
      3 O1         -0.8290   -3.2210    0.6860 o         1 L7A     -0.654500
      4 C2         -4.2220    0.1200   -0.6030 ca        1 L7A     -0.088500
      5 N2         -1.4340   -0.5440    0.1410 n         1 L7A     -0.463100
      6 O2         -1.1030    1.7420    0.0810 o         1 L7A     -0.594100
      7 C3         -5.5970    0.3550   -0.5790 ca        1 L7A     -0.137500
      8 N3          1.4170   -2.8680    0.5410 n         1 L7A     -0.422100
      9 C4         -6.1140    1.4220    0.1560 ca        1 L7A     -0.105000
     10 C5         -5.2550    2.2650    0.8630 ca        1 L7A     -0.137500
     11 C6         -3.8800    2.0400    0.8390 ca        1 L7A     -0.088500
     12 C7         -1.8830    0.7700    0.1070 c         1 L7A      0.680700
     13 C8          2.4890   -2.0350    0.3270 cc        1 L7A     -0.006400
     14 C9          2.3200   -0.6990    0.0430 cd        1 L7A     -0.110200
     15 C10         0.9940   -0.1580   -0.0280 cd        1 L7A     -0.088000
     16 C11        -0.0990   -0.9600    0.1900 cc        1 L7A     -0.041600
     17 C12         0.0990   -2.4080    0.4890 c         1 L7A      0.670700
     18 C13         4.6020    2.2920    0.0370 ca        1 L7A      0.395700
     19 C14         5.6950    0.5760   -1.0300 ca        1 L7A      0.395700
     20 C15         4.6110   -0.3000   -0.8480 ca        1 L7A     -0.242300
     21 C16         3.4690    0.1690   -0.1790 ca        1 L7A      0.007200
     22 C17         3.4670    1.4980    0.2720 ca        1 L7A     -0.242300
     23 H2         -3.8280   -0.7160   -1.2000 ha        1 L7A      0.147000
     24 H3         -6.2730   -0.3040   -1.1430 ha        1 L7A      0.139500
     25 H4         -7.1990    1.6020    0.1750 ha        1 L7A      0.137000
     26 H5         -5.6610    3.1110    1.4360 ha        1 L7A      0.139500
     27 H6         -3.1910    2.7090    1.3780 ha        1 L7A      0.147000
     28 H8          3.4890   -2.5010    0.4050 h4        1 L7A      0.160000
     29 H10         0.8830    0.9160   -0.2650 ha        1 L7A      0.186000
     30 H13         4.6330    3.3430    0.3790 h4        1 L7A      0.023600
     31 H14         6.6080    0.2380   -1.5530 h4        1 L7A      0.023600
     32 H15         4.6580   -1.3260   -1.2350 ha        1 L7A      0.147000
     33 H17         2.5980    1.9140    0.8000 ha        1 L7A      0.147000
     34 HN2        -2.1110   -1.2710    0.2570 hn        1 L7A      0.343500
     35 HN3         1.5690   -3.8300    0.7550 hn        1 L7A      0.340500
@<TRIPOS>BOND
     1    1    4 ar  
     2    1   11 ar  
     3    1   12 1   
     4    2   18 ar  
     5    2   19 ar  
     6    3   17 2   
     7    4    7 ar  
     8    4   23 1   
     9    5   12 1   
    10    5   16 1   
    11    5   34 1   
    12    6   12 2   
    13    7    9 ar  
    14    7   24 1   
    15    8   13 1   
    16    8   17 1   
    17    8   35 1   
    18    9   10 ar  
    19    9   25 1   
    20   10   11 ar  
    21   10   26 1   
    22   11   27 1   
    23   13   14 2   
    24   13   28 1   
    25   14   15 1   
    26   14   21 1   
    27   15   16 2   
    28   15   29 1   
    29   16   17 1   
    30   18   22 ar  
    31   18   30 1   
    32   19   20 ar  
    33   19   31 1   
    34   20   21 ar  
    35   20   32 1   
    36   21   22 ar  
    37   22   33 1   
@<TRIPOS>SUBSTRUCTURE
     1 L7A         1 TEMP              0 ****  ****    0 ROOT
