@<TRIPOS>MOLECULE
L7G
   67    68     1     0     0
SMALL
bcc


@<TRIPOS>ATOM
      1 C1          4.6910    4.6780   -3.7630 c3        1 L7G     -0.297000
      2 C2          5.4740    4.0580   -2.6310 c3        1 L7G     -0.236000
      3 C3          4.7220    3.8240   -1.4240 c2        1 L7G      0.258000
      4 C4          5.3160    3.2690   -0.2630 c2        1 L7G     -0.269000
      5 C5          4.6110    3.0530    0.8830 c2        1 L7G      0.080000
      6 C6          0.8610   -8.2660    8.7170 c2        1 L7G      0.295000
      7 C7          0.0260   -6.9610    8.8360 c3        1 L7G     -0.111000
      8 C8         -1.3250   -7.0810    8.1000 c3        1 L7G     -0.115000
      9 C9         -1.1440   -7.4180    6.6360 c3        1 L7G     -0.234500
     10 C10        -2.2110   -8.1030    8.7840 c3        1 L7G     -0.234500
     11 C11         1.6960   -5.1120    9.2900 c2        1 L7G      0.261000
     12 C12         3.0980   -4.6940    8.8070 c3        1 L7G      0.001000
     13 C13         3.9250   -5.9870    8.6950 c3        1 L7G     -0.235000
     14 C14         3.7480   -3.7760    9.8830 c3        1 L7G     -0.332000
     15 C15         3.6220   -2.8360    7.5420 c2        1 L7G     -0.104000
     16 C16         3.7950   -1.9610    6.3760 c2        1 L7G      0.005000
     17 C17         3.8970   -2.4760    5.0820 c2        1 L7G     -0.088000
     18 C18         4.1440   -1.5770    4.0170 c2        1 L7G     -0.038000
     19 C19         4.1570    0.2380    5.4410 c2        1 L7G     -0.093000
     20 C20         3.9200   -0.5700    6.5640 c2        1 L7G     -0.109000
     21 C21         4.2360    1.7290    5.6550 c3        1 L7G     -0.071000
     22 C22         4.3890    2.6440    3.3180 c2        1 L7G      0.267000
     23 C23         5.2400    2.4580    2.0880 c3        1 L7G     -0.205000
     24 N1          0.5640   -9.2990    9.5380 nt        1 L7G     -0.368000
     25 N2          0.8400   -5.8170    8.2750 ny        1 L7G     -0.095000
     26 N3          3.0010   -3.9860    7.5190 n2        1 L7G     -0.206000
     27 N4          4.2770   -0.2530    4.1770 n2        1 L7G     -0.192000
     28 N5          5.0850    2.4430    4.6440 ny        1 L7G     -0.092000
     29 O1          1.8080   -8.2980    7.8960 o         1 L7G     -0.391000
     30 O2          1.2350   -4.9470   10.4080 o         1 L7G     -0.162000
     31 O3          3.2060    2.9420    3.3460 o         1 L7G     -0.145000
     32 S1          5.8910    4.8380   -5.0470 sh        1 L7G      0.054000
     33 S2          4.3200   -2.3170    9.0340 ss        1 L7G      0.275000
     34 H1          4.2680    5.6710   -3.4710 h1        1 L7G      0.131000
     35 H2          3.8400    4.0240   -4.0760 h1        1 L7G      0.131000
     36 H3          5.9510    3.0800   -2.9900 hc        1 L7G      0.224000
     37 H4          6.3920    4.7060   -2.4050 hc        1 L7G      0.224000
     38 H5          3.6420    4.0950   -1.4120 ha        1 L7G      0.185000
     39 H6          6.3950    3.0130   -0.3150 ha        1 L7G      0.191000
     40 H7          3.5300    3.3000    0.9580 ha        1 L7G      0.192000
     41 H8         -0.1770   -6.7290    9.9270 hx        1 L7G      0.175000
     42 H9         -1.8460   -6.0810    8.1830 hc        1 L7G      0.108000
     43 H10        -0.7100   -6.5570    6.0720 hc        1 L7G      0.104000
     44 H11        -0.4750   -8.3050    6.5060 hc        1 L7G      0.104000
     45 H12        -2.1370   -7.6620    6.1810 hc        1 L7G      0.104000
     46 H13        -2.1680   -8.0000    9.8960 hc        1 L7G      0.104000
     47 H14        -3.2720   -7.9380    8.4640 hc        1 L7G      0.104000
     48 H15        -1.9330   -9.1440    8.4930 hc        1 L7G      0.104000
     49 H16         3.9170   -6.5160    9.6790 hc        1 L7G      0.127333
     50 H17         4.9840   -5.7360    8.4370 hc        1 L7G      0.127333
     51 H18         3.5290   -6.6770    7.9080 hc        1 L7G      0.127333
     52 H19         3.0310   -3.4870   10.6900 h1        1 L7G      0.171000
     53 H20         4.6180   -4.2880   10.3670 h1        1 L7G      0.171000
     54 H22         3.8030   -3.5560    4.8780 ha        1 L7G      0.193000
     55 H23         4.2400   -1.9560    2.9800 h4        1 L7G      0.193000
     56 H24         3.8340   -0.1330    7.5740 ha        1 L7G      0.181000
     57 H25         4.6810    1.9410    6.6730 hx        1 L7G      0.176000
     58 H26         3.1920    2.1690    5.6090 hx        1 L7G      0.176000
     59 H27         6.2770    2.8790    2.2390 hc        1 L7G      0.192500
     60 H28         5.3570    1.3390    1.9210 hc        1 L7G      0.192500
     61 H29         1.0720  -10.1520    9.4450 hn        1 L7G      0.263000
     62 H30         1.4480   -6.2030    7.5260 hn        1 L7G      0.277000
     63 H33         5.9540    1.9150    4.4980 hn        1 L7G      0.271000
     64 H34         5.1570    5.4310   -5.9860 hs        1 L7G      0.089000
     65 H121       -0.2310   -9.2820   10.1320 hn        1 L7G      0.263000
     66 H221        0.2020   -5.1310    7.8550 hn        1 L7G      0.277000
     67 H52         5.3200    3.3720    5.0250 hn        1 L7G      0.271000
@<TRIPOS>BOND
     1    1    2 1   
     2    1   32 1   
     3    1   34 1   
     4    1   35 1   
     5    2    3 1   
     6    2   36 1   
     7    2   37 1   
     8    3    4 1   
     9    3   38 1   
    10    4    5 1   
    11    4   39 1   
    12    5   23 1   
    13    5   40 1   
    14    6    7 1   
    15    6   24 1   
    16    6   29 1   
    17    7    8 1   
    18    7   25 1   
    19    7   41 1   
    20    8    9 1   
    21    8   10 1   
    22    8   42 1   
    23    9   43 1   
    24    9   44 1   
    25    9   45 1   
    26   10   46 1   
    27   10   47 1   
    28   10   48 1   
    29   11   12 1   
    30   11   25 1   
    31   11   30 1   
    32   12   13 1   
    33   12   14 1   
    34   12   26 1   
    35   13   49 1   
    36   13   50 1   
    37   13   51 1   
    38   14   33 1   
    39   14   52 1   
    40   14   53 1   
    41   15   16 1   
    42   15   26 1   
    43   15   33 1   
    44   16   17 1   
    45   16   20 1   
    46   17   18 1   
    47   17   54 1   
    48   18   27 1   
    49   18   55 1   
    50   19   20 1   
    51   19   21 1   
    52   19   27 1   
    53   20   56 1   
    54   21   28 1   
    55   21   57 1   
    56   21   58 1   
    57   22   23 1   
    58   22   28 1   
    59   22   31 1   
    60   23   59 1   
    61   23   60 1   
    62   24   61 1   
    63   24   65 1   
    64   25   62 1   
    65   25   66 1   
    66   28   63 1   
    67   28   67 1   
    68   32   64 1   
@<TRIPOS>SUBSTRUCTURE
     1 L7G         1 TEMP              0 ****  ****    0 ROOT
