@<TRIPOS>MOLECULE
L7O
   54    52     1     0     0
SMALL
bcc


@<TRIPOS>ATOM
      1 C1         -3.3970    5.2230    1.9110 c3        1 L7O     -0.045000
      2 N1         -2.1010    4.8830    2.4890 n3        1 L7O     -0.246000
      3 O1          2.6590    0.8840   -2.8040 o         1 L7O     -0.381000
      4 C2         -4.1460    6.2530    2.7340 c3        1 L7O     -0.160500
      5 N2          1.0570   -0.1060   -0.6660 n         1 L7O     -0.307000
      6 O2         -0.3580    0.9240   -2.1470 o         1 L7O     -0.365000
      7 C3         -4.2420    5.8750    4.1500 c3        1 L7O     -0.159000
      8 N3          3.0600   -1.1600   -3.8370 n         1 L7O     -0.269000
      9 C4         -2.9340    5.5330    4.7250 c3        1 L7O     -0.160500
     10 N4          4.0290   -7.5230   -1.3820 n3        1 L7O     -0.276000
     11 C5         -2.1890    4.5060    3.8960 c3        1 L7O     -0.045000
     12 N5          1.8970   -7.4800   -2.4990 n1        1 L7O     -0.217000
     13 C6          0.2640    2.9870    0.3160 c1        1 L7O     -0.074000
     14 N6          2.9940   -5.4450   -2.0220 n1        1 L7O     -0.243000
     15 C7          0.0280    0.8310   -0.9980 c2        1 L7O      0.360000
     16 C8          2.8430   -2.6090   -3.8210 c2        1 L7O      0.024000
     17 C9          2.0510   -3.2450   -2.6960 c1        1 L7O     -0.132000
     18 C10         1.4600   -2.3990   -1.6450 c1        1 L7O     -0.081000
     19 C11         1.6350   -0.9380   -1.6950 c2        1 L7O     -0.030000
     20 C12         2.4720   -0.3160   -2.7910 c2        1 L7O      0.310000
     21 C13         0.8830   -6.8040   -3.0560 c1        1 L7O     -0.002000
     22 C14         2.9610   -6.8070   -1.9780 c1        1 L7O      0.148000
     23 C15         1.9790   -4.7650   -2.5800 c2        1 L7O      0.115000
     24 C16         0.9150   -5.4380   -3.1010 c2        1 L7O     -0.278000
     25 C17        -0.4670    1.8340    0.0620 c1        1 L7O     -0.164000
     26 C18        -1.7180    1.6630    0.6440 c1        1 L7O     -0.045000
     27 C19        -2.2380    2.6490    1.4820 c1        1 L7O     -0.200000
     28 C20        -1.5050    3.8030    1.7360 c2        1 L7O      0.095000
     29 C21        -0.2560    3.9730    1.1540 c2        1 L7O     -0.176000
     30 C22         4.2440   -8.9050   -1.7160 c3        1 L7O     -0.082000
     31 H1         -3.2580    5.5780    1.0110 h1        1 L7O      0.078250
     32 H1A        -3.9390    4.4120    1.8510 h1        1 L7O      0.078250
     33 H2         -5.0490    6.3510    2.3710 hc        1 L7O      0.090500
     34 H2A        -3.6810    7.1130    2.6650 hc        1 L7O      0.090500
     35 H3         -4.6220    6.6220    4.6520 hc        1 L7O      0.082500
     36 H3A        -4.8360    5.1020    4.2330 hc        1 L7O      0.082500
     37 H4         -2.3910    6.3470    4.7840 hc        1 L7O      0.090500
     38 H4A        -3.0680    5.1770    5.6240 hc        1 L7O      0.090500
     39 HN4         4.5840   -7.1060   -0.7940 hn        1 L7O      0.222000
     40 H5         -1.2880    4.4060    4.2530 h1        1 L7O      0.078250
     41 H5A        -2.6540    3.6470    3.9650 h1        1 L7O      0.078250
     42 H6          1.1420    3.1080   -0.0920 ha        1 L7O      0.138000
     43 H8          3.2360   -3.1700   -4.5190 h4        1 L7O      0.173000
     44 H10         0.9510   -2.8040   -0.9210 ha        1 L7O      0.186000
     45 H13         0.1250   -7.2850   -3.4260 ha        1 L7O      0.164000
     46 H16         0.1780   -4.9460   -3.5050 ha        1 L7O      0.166000
     47 H18        -2.2340    0.8510    0.4660 ha        1 L7O      0.153000
     48 H19        -3.1190    2.5280    1.8930 ha        1 L7O      0.139000
     49 H21         0.2600    4.7850    1.3320 ha        1 L7O      0.142000
     50 H22         3.4800   -9.4430   -1.3990 h1        1 L7O      0.084000
     51 H22A        5.0670   -9.2210   -1.2870 h1        1 L7O      0.084000
     52 H22B        4.3260   -8.9980   -2.6930 h1        1 L7O      0.084000
     53 HN2         1.3720   -0.1530    0.1880 hn        1 L7O      0.255000
     54 HN3         3.5380   -0.7790   -4.5160 hn        1 L7O      0.254000
@<TRIPOS>BOND
     1    1    2 1   
     2    1    4 1   
     3    1   31 1   
     4    1   32 1   
     5    2   11 1   
     6    2   28 1   
     7    3   20 1   
     8    4    7 1   
     9    4   33 1   
    10    4   34 1   
    11    5   15 1   
    12    5   19 1   
    13    5   53 1   
    14    6   15 1   
    15    7    9 1   
    16    7   35 1   
    17    7   36 1   
    18    8   16 1   
    19    8   20 1   
    20    8   54 1   
    21    9   11 1   
    22    9   37 1   
    23    9   38 1   
    24   10   22 1   
    25   10   30 1   
    26   10   39 1   
    27   11   40 1   
    28   11   41 1   
    29   12   22 1   
    30   13   29 1   
    31   13   42 1   
    32   14   23 1   
    33   15   25 1   
    34   16   17 1   
    35   16   43 1   
    36   17   23 1   
    37   18   19 1   
    38   18   44 1   
    39   19   20 1   
    40   21   24 1   
    41   21   45 1   
    42   23   24 1   
    43   24   46 1   
    44   25   26 1   
    45   26   47 1   
    46   27   28 1   
    47   27   48 1   
    48   28   29 1   
    49   29   49 1   
    50   30   50 1   
    51   30   51 1   
    52   30   52 1   
@<TRIPOS>SUBSTRUCTURE
     1 L7O         1 TEMP              0 ****  ****    0 ROOT
