@<TRIPOS>MOLECULE
L7O
   55    56     1     0     0
SMALL
bcc


@<TRIPOS>ATOM
      1 C1          3.0520   -0.0550   -1.0910 c3        1 L7O     -0.126000
      2 N1          1.9200   -0.8190   -0.4510 nx        1 L7O      0.112000
      3 O1          4.5930   -2.9260   -0.8990 o         1 L7O     -0.395000
      4 C2          3.6120    0.9990   -0.1430 c3        1 L7O     -0.208000
      5 N2          3.3140   -5.4420   -0.7380 n8        1 L7O     -0.310000
      6 O2          0.8860   -6.7260   -1.7580 o         1 L7O     -0.067000
      7 C3          4.1120    0.3780    1.1500 c3        1 L7O     -0.231000
      8 N3          6.3140   -3.7440   -2.1990 ns        1 L7O     -0.233000
      9 C4          3.4390   -0.8190    1.5770 c1        1 L7O     -0.004000
     10 C5          2.4400   -1.5150    0.8240 c3        1 L7O     -0.157000
     11 N5          9.8360   -8.5430   -1.7520 n3        1 L7O     -0.131000
     12 C6         -1.7090   -4.7220   -1.7710 c1        1 L7O     -0.174000
     13 N6          7.6010   -7.5770   -1.2140 n2        1 L7O     -0.213000
     14 C8          6.9730   -4.7070   -2.8260 c1        1 L7O     -0.004000
     15 C9          6.4470   -6.1120   -2.8020 c3        1 L7O     -0.129000
     16 C10         5.2090   -6.3190   -2.0090 c2        1 L7O     -0.123000
     17 C11         4.5580   -5.3000   -1.3890 c2        1 L7O     -0.092000
     18 C12         5.1170   -3.9130   -1.4530 c2        1 L7O      0.321000
     19 C13         9.8390   -7.9640   -2.9360 c1        1 L7O     -0.077000
     20 C14         8.7120   -8.4220   -0.8170 c2        1 L7O      0.073000
     21 C15         7.5950   -7.0130   -2.3790 c2        1 L7O      0.047000
     22 C16         8.6900   -7.1400   -3.3970 c3        1 L7O     -0.228000
     23 C17        -0.4150   -4.5990   -2.2300 c2        1 L7O     -0.285000
     24 C18         0.2110   -3.4570   -2.9610 c3        1 L7O     -0.038000
     25 C19         0.8360   -2.5130   -2.0780 c1        1 L7O      0.075000
     26 C20         1.3360   -1.7200   -1.3320 c1        1 L7O     -0.307000
     27 C21        -2.7990   -3.7950   -1.8800 c3        1 L7O     -0.199000
     28 C22        10.9730   -9.3420   -1.3340 c3        1 L7O     -0.070000
     29 H1         -3.2180   -3.6120   -0.8540 hc        1 L7O      0.100667
     30 H1A         1.1920   -0.1400   -0.1780 hn        1 L7O      0.240000
     31 H2          3.8480   -0.8080   -1.3640 hx        1 L7O      0.153000
     32 H2A         2.6670    0.4290   -2.0320 hx        1 L7O      0.153000
     33 H3          4.4510    1.5200   -0.6770 hc        1 L7O      0.125000
     34 H3A         2.8350    1.7770    0.0800 hc        1 L7O      0.125000
     35 H4          4.0770    1.1320    1.9930 hc        1 L7O      0.187000
     36 H4A         5.2090    0.0980    1.0640 hc        1 L7O      0.187000
     37 HN4         7.9400   -8.9310    0.9080 hn        1 L7O      0.174000
     38 H5          2.9180   -2.5040    0.5050 hx        1 L7O      0.205000
     39 H5A         1.5390   -1.7510    1.4660 hx        1 L7O      0.205000
     40 H6         -2.5610   -2.8070   -2.3540 hc        1 L7O      0.100667
     41 H8          6.2190   -6.3670   -3.8860 hc        1 L7O      0.172000
     42 H10         4.8420   -7.3580   -1.9480 ha        1 L7O      0.163000
     43 H13         9.0770   -6.1140   -3.6620 hc        1 L7O      0.161000
     44 H16         8.2970   -7.6010   -4.3450 hc        1 L7O      0.161000
     45 H18        -0.6040   -2.9270   -3.5380 hc        1 L7O      0.137500
     46 H19         0.9760   -3.8130   -3.7100 hc        1 L7O      0.137500
     47 H21        -3.6100   -4.2930   -2.4810 hc        1 L7O      0.100667
     48 H22        10.6450  -10.3980   -1.1460 h1        1 L7O      0.108000
     49 H22A       11.7440   -9.3250   -2.1490 h1        1 L7O      0.108000
     50 H22B       11.4070   -8.9160   -0.3920 h1        1 L7O      0.108000
     51 HN2         3.2740   -4.8880    0.0960 hn        1 L7O      0.181500
     52 HN3         6.6940   -2.8170   -2.2290 hn        1 L7O      0.268000
     53 H221        3.1020   -6.4020   -0.5410 hn        1 L7O      0.181500
     54 C7          0.3230   -5.7220   -1.9850 c1        1 L7O      0.448000
     55 N4          8.7370   -9.0520    0.3180 n2        1 L7O     -0.219000
@<TRIPOS>BOND
     1    1    2 1   
     2    1    4 1   
     3    1   31 1   
     4    1   32 1   
     5    2   10 1   
     6    2   26 1   
     7    2   30 1   
     8    3   18 1   
     9    4    7 1   
    10    4   33 1   
    11    4   34 1   
    12    5   17 1   
    13    5   51 1   
    14    5   53 1   
    15    6   54 1   
    16    7    9 1   
    17    7   35 1   
    18    7   36 1   
    19    8   14 1   
    20    8   18 1   
    21    8   52 1   
    22    9   10 1   
    23   10   38 1   
    24   10   39 1   
    25   11   19 1   
    26   11   20 1   
    27   11   28 1   
    28   12   23 1   
    29   12   27 1   
    30   13   20 1   
    31   13   21 1   
    32   14   15 1   
    33   15   16 1   
    34   15   21 1   
    35   15   41 1   
    36   16   17 1   
    37   16   42 1   
    38   17   18 1   
    39   19   22 1   
    40   20   55 1   
    41   21   22 1   
    42   22   43 1   
    43   22   44 1   
    44   23   24 1   
    45   23   54 1   
    46   24   25 1   
    47   24   45 1   
    48   24   46 1   
    49   25   26 1   
    50   27   29 1   
    51   27   40 1   
    52   27   47 1   
    53   28   48 1   
    54   28   49 1   
    55   28   50 1   
    56   37   55 1   
@<TRIPOS>SUBSTRUCTURE
     1 L7O         1 TEMP              0 ****  ****    0 ROOT
