@<TRIPOS>MOLECULE
L7O
   54    57     1     0     0
SMALL
bcc


@<TRIPOS>ATOM
      1 C1          6.7410    0.6320   -1.3810 c3        1 L7O      0.191800
      2 N1          6.1050    0.5410   -0.0770 nh        1 L7O     -0.643000
      3 O1         -0.9160   -3.2070    2.2090 o         1 L7O     -0.656500
      4 C2          8.2540    0.4180   -1.3220 c3        1 L7O     -0.081900
      5 N2         -0.1480   -0.9210    0.7900 n         1 L7O     -0.465100
      6 O2         -0.3020    0.7760   -0.7710 o         1 L7O     -0.597100
      7 C3          8.9000    1.3340   -0.3060 c3        1 L7O     -0.080400
      8 N3         -3.1320   -2.8470    1.8300 n         1 L7O     -0.423100
      9 C4          8.2360    1.1700    1.0440 c3        1 L7O     -0.081900
     10 C5          6.7250    1.3760    0.9430 c3        1 L7O      0.191800
     11 N5         -7.1490    1.2340   -1.1020 nb        1 L7O     -0.744000
     12 C6          2.5360    0.5200   -1.1970 ca        1 L7O     -0.060000
     13 N6         -4.9740    1.1640    0.0580 nb        1 L7O     -0.742000
     14 C8         -4.1510   -2.1030    1.2880 cc        1 L7O     -0.004400
     15 C9         -3.8970   -0.9540    0.5730 cd        1 L7O     -0.226800
     16 C10        -2.5470   -0.5130    0.3870 cd        1 L7O     -0.069000
     17 C11        -1.5050   -1.2440    0.9050 cc        1 L7O     -0.046600
     18 C12        -1.7890   -2.4840    1.6830 c         1 L7O      0.670700
     19 C13        -7.1350   -0.1050   -1.1240 ca        1 L7O      0.465200
     20 C14        -6.0580    1.8450   -0.4870 ca        1 L7O      0.869900
     21 C15        -5.0160   -0.1860    0.0050 ca        1 L7O      0.553100
     22 C16        -6.0980   -0.8830   -0.5830 ca        1 L7O     -0.427600
     23 C17         1.8820    0.1830   -0.0070 ca        1 L7O     -0.184600
     24 C18         2.6340    0.0140    1.1590 ca        1 L7O     -0.060000
     25 C19         4.0140    0.1630    1.1390 ca        1 L7O     -0.187000
     26 C20         4.6950    0.4880   -0.0620 ca        1 L7O      0.175600
     27 C21         3.9160    0.6710   -1.2300 ca        1 L7O     -0.187000
     28 C22        -6.9200    4.0540   -1.1420 c3        1 L7O      0.194100
     29 H1          6.2950   -0.1660   -2.0410 h1        1 L7O      0.038950
     30 H1A         6.5420    1.6360   -1.8610 h1        1 L7O      0.038950
     31 H2          8.4750   -0.6490   -1.0610 hc        1 L7O      0.050700
     32 H2A         8.6730    0.6160   -2.3420 hc        1 L7O      0.050700
     33 H3          9.9930    1.0990   -0.2230 hc        1 L7O      0.043200
     34 H3A         8.8090    2.3990   -0.6450 hc        1 L7O      0.043200
     35 H4          8.4530    0.1480    1.4500 hc        1 L7O      0.050700
     36 H4A         8.6420    1.9210    1.7690 hc        1 L7O      0.050700
     37 HN4        -5.1740    3.6410   -0.1080 hn        1 L7O      0.433800
     38 H5          6.5270    2.4690    0.7300 h1        1 L7O      0.038950
     39 H5A         6.2640    1.1330    1.9400 h1        1 L7O      0.038950
     40 H6          1.9410    0.6800   -2.1110 ha        1 L7O      0.145500
     41 H8         -5.1760   -2.4750    1.4660 h4        1 L7O      0.160000
     42 H10        -2.3710    0.4180   -0.1820 ha        1 L7O      0.197000
     43 H13        -8.0060   -0.5800   -1.6130 h4        1 L7O      0.025100
     44 H16        -6.1150   -1.9760   -0.6370 ha        1 L7O      0.150000
     45 H18         2.1430   -0.2270    2.1160 ha        1 L7O      0.145500
     46 H19         4.5750    0.0040    2.0720 ha        1 L7O      0.140000
     47 H21         4.3880    0.9450   -2.1860 ha        1 L7O      0.140000
     48 H22        -6.7560    5.1270   -0.8540 h1        1 L7O      0.045367
     49 H22A       -6.7180    3.9370   -2.2410 h1        1 L7O      0.045367
     50 H22B       -7.9940    3.7870   -0.9490 h1        1 L7O      0.045367
     51 HN2         0.4770   -1.5310    1.2770 hn        1 L7O      0.341500
     52 HN3        -3.3400   -3.6710    2.3510 hn        1 L7O      0.339500
     53 C7          0.3990    0.0530   -0.0360 c         1 L7O      0.685700
     54 N4         -6.0610    3.2410   -0.3340 nh        1 L7O     -0.830900
@<TRIPOS>BOND
     1    1    2 1   
     2    1    4 1   
     3    1   29 1   
     4    1   30 1   
     5    2   10 1   
     6    2   26 1   
     7    3   18 2   
     8    4    7 1   
     9    4   31 1   
    10    4   32 1   
    11    5   17 1   
    12    5   51 1   
    13    5   53 1   
    14    6   53 2   
    15    7    9 1   
    16    7   33 1   
    17    7   34 1   
    18    8   14 1   
    19    8   18 1   
    20    8   52 1   
    21    9   10 1   
    22    9   35 1   
    23    9   36 1   
    24   10   38 1   
    25   10   39 1   
    26   11   19 ar  
    27   11   20 ar  
    28   12   23 ar  
    29   12   27 ar  
    30   12   40 1   
    31   13   20 ar  
    32   13   21 ar  
    33   14   15 2   
    34   14   41 1   
    35   15   16 1   
    36   15   21 1   
    37   16   17 2   
    38   16   42 1   
    39   17   18 1   
    40   19   22 ar  
    41   19   43 1   
    42   20   54 1   
    43   21   22 ar  
    44   22   44 1   
    45   23   24 ar  
    46   23   53 1   
    47   24   25 ar  
    48   24   45 1   
    49   25   26 ar  
    50   25   46 1   
    51   26   27 ar  
    52   27   47 1   
    53   28   48 1   
    54   28   49 1   
    55   28   50 1   
    56   28   54 1   
    57   37   54 1   
@<TRIPOS>SUBSTRUCTURE
     1 L7O         1 TEMP              0 ****  ****    0 ROOT
