@<TRIPOS>MOLECULE
L7O
   56    57     1     0     0
SMALL
bcc


@<TRIPOS>ATOM
      1 C1         -0.5270    2.5800   -0.0290 c3        1 L7O     -0.121000
      2 N1         -0.2370    1.2600    0.6450 n4        1 L7O      0.091000
      3 O1          4.5590   -6.7690   -3.1140 o         1 L7O     -0.335000
      4 C2         -1.9000    3.1190    0.3560 c3        1 L7O     -0.209000
      5 N2          7.4080   -5.2220   -2.3520 n3        1 L7O     -0.326000
      6 O2          5.3360   -3.0840   -1.6010 o         1 L7O     -0.286000
      7 C3         -2.0250    3.3140    1.8570 c3        1 L7O     -0.236000
      8 N3          6.0590   -6.5340   -4.8290 n         1 L7O     -0.415000
      9 C4         -1.2570    2.4150    2.6650 c1        1 L7O      0.003000
     10 C5         -0.3360    1.4330    2.1840 c3        1 L7O     -0.149000
     11 N5          8.4630  -12.2450   -2.3580 n2        1 L7O     -0.058000
     12 C6          2.8320   -2.7620   -1.0710 cu        1 L7O     -0.074000
     13 N6          8.9300   -9.9520   -3.0790 n3        1 L7O     -0.313000
     14 C8          5.8750   -9.4030   -1.3680 c1        1 L7O      0.361000
     15 C9          6.8550   -8.9500   -2.1500 c2        1 L7O     -0.443000
     16 C10         7.3660   -7.6040   -1.9050 c2        1 L7O     -0.271000
     17 C11         6.8760   -6.4860   -2.5080 c2        1 L7O      0.063000
     18 C12         5.7280   -6.5940   -3.4980 c2        1 L7O      0.315000
     19 C13         7.3810  -12.0160   -2.9940 c1        1 L7O      0.039000
     20 C14         9.4400  -11.2100   -2.7430 c2        1 L7O      0.268000
     21 C15         7.4740   -9.7180   -3.2710 c3        1 L7O      0.128000
     22 C16         6.7570  -11.0280   -3.6350 c2        1 L7O     -0.111000
     23 C17         3.4150   -1.5610   -0.8420 cu        1 L7O     -0.205000
     24 C18         3.3620   -0.1670   -0.4490 c3        1 L7O     -0.006000
     25 C19         2.0610    0.3080   -0.0710 c1        1 L7O      0.062000
     26 C20         0.9960    0.7490    0.2570 c1        1 L7O     -0.284000
     27 C21         1.6590   -3.5950   -1.0950 c3        1 L7O     -0.174000
     28 C22        11.2940  -12.7810   -2.4210 c3        1 L7O     -0.104000
     29 H1          1.7690   -4.4360   -0.3590 hc        1 L7O      0.118000
     30 H1A        -0.9610    0.5880    0.3460 hn        1 L7O      0.246000
     31 H2          0.2810    3.3010    0.2800 hx        1 L7O      0.147000
     32 H2A        -0.4680    2.4290   -1.1440 hx        1 L7O      0.147000
     33 H3         -2.0390    4.0970   -0.1810 hc        1 L7O      0.134000
     34 H3A        -2.7070    2.4310   -0.0110 hc        1 L7O      0.134000
     35 H4         -3.1110    3.2490    2.1800 hc        1 L7O      0.200000
     36 H4A        -1.7150    4.3650    2.1610 hc        1 L7O      0.200000
     37 HN4        11.4210  -10.7090   -2.7560 hn        1 L7O      0.271000
     38 H5          0.6960    1.7120    2.5710 hx        1 L7O      0.199500
     39 H5A        -0.5970    0.4170    2.6150 hx        1 L7O      0.199500
     40 H6          0.7360   -3.0170   -0.8420 hc        1 L7O      0.118000
     41 H8          6.9420   -6.1780   -5.1010 hn        1 L7O      0.234000
     42 H10         8.1690   -7.5400   -1.1540 ha        1 L7O      0.143000
     43 H13         5.9340  -11.0490   -4.3540 ha        1 L7O      0.226000
     44 H16         7.4170   -9.0920   -4.2230 h1        1 L7O      0.183000
     45 H18         3.7430    0.4710   -1.3070 hc        1 L7O      0.160500
     46 H19         4.0740   -0.0020    0.4190 hc        1 L7O      0.160500
     47 H21         1.5290   -4.0510   -2.1130 hc        1 L7O      0.118000
     48 H22        12.4140  -12.7270   -2.4930 h1        1 L7O      0.132667
     49 H22A       11.0000  -13.1260   -1.3910 h1        1 L7O      0.132667
     50 H22B       10.9070  -13.5150   -3.1780 h1        1 L7O      0.132667
     51 HN2         7.9930   -5.0890   -1.5570 hn        1 L7O      0.224000
     52 HN3         5.3250   -6.5040   -5.4970 hn        1 L7O      0.234000
     53 H221        6.7930   -4.4580   -2.5410 hn        1 L7O      0.224000
     54 H42         9.4500   -9.1290   -2.8460 hn        1 L7O      0.275000
     55 C7          4.2500   -2.6430   -1.2880 cu        1 L7O      0.308000
     56 N4         10.7650  -11.4630   -2.6820 n3        1 L7O     -0.213000
@<TRIPOS>BOND
     1    1    2 1   
     2    1    4 1   
     3    1   31 1   
     4    1   32 1   
     5    2   10 1   
     6    2   26 1   
     7    2   30 1   
     8    3   18 1   
     9    4    7 1   
    10    4   33 1   
    11    4   34 1   
    12    5   17 1   
    13    5   51 1   
    14    5   53 1   
    15    6   55 1   
    16    7    9 1   
    17    7   35 1   
    18    7   36 1   
    19    8   18 1   
    20    8   41 1   
    21    8   52 1   
    22    9   10 1   
    23   10   38 1   
    24   10   39 1   
    25   11   19 1   
    26   11   20 1   
    27   12   23 1   
    28   12   27 1   
    29   12   55 1   
    30   13   20 1   
    31   13   21 1   
    32   13   54 1   
    33   14   15 1   
    34   15   16 1   
    35   15   21 1   
    36   16   17 1   
    37   16   42 1   
    38   17   18 1   
    39   19   22 1   
    40   20   56 1   
    41   21   22 1   
    42   21   44 1   
    43   22   43 1   
    44   23   24 1   
    45   23   55 1   
    46   24   25 1   
    47   24   45 1   
    48   24   46 1   
    49   25   26 1   
    50   27   29 1   
    51   27   40 1   
    52   27   47 1   
    53   28   48 1   
    54   28   49 1   
    55   28   50 1   
    56   28   56 1   
    57   37   56 1   
@<TRIPOS>SUBSTRUCTURE
     1 L7O         1 TEMP              0 ****  ****    0 ROOT
