@<TRIPOS>MOLECULE
L7S
   33    32     1     0     0
SMALL
bcc


@<TRIPOS>ATOM
      1 C           0.1960   -1.3250    0.0460 c3        1 L7S     -0.117100
      2 N           1.9480   -0.1380    1.3950 n         1 L7S     -0.477400
      3 C1          1.3550   -0.3450    0.0690 c3        1 L7S      0.077000
      4 N1          1.4420    3.8370    8.9070 n         1 L7S     -0.648000
      5 C2          2.9800   -1.0380    1.7960 c         1 L7S      0.662100
      6 O2          2.5910    1.8630    8.7510 o         1 L7S     -0.555100
      7 C3          3.8180   -0.7440    3.0060 c3        1 L7S     -0.180100
      8 C4          1.8340    1.0740    3.5540 c1        1 L7S      0.002000
      9 C5          1.3970    0.8490    2.1860 c2        1 L7S      0.736300
     10 C6          1.9750    1.4680    4.6840 c1        1 L7S     -0.139900
     11 C7         -0.2930    3.2360    4.1990 c2        1 L7S      0.064000
     12 C8         -0.7800    2.8680    5.4120 ce        1 L7S     -0.277000
     13 C9         -0.0610    2.7390    6.6150 ce        1 L7S      0.207000
     14 C10         1.3030    2.4810    6.8380 cf        1 L7S     -0.260200
     15 C11         2.2100    1.8790    5.9900 cf        1 L7S      0.172900
     16 C12         1.8330    2.7080    8.2440 c         1 L7S      0.652300
     17 H           2.1760   -0.7250   -0.6070 h1        1 L7S      0.085700
     18 HA          1.0100    0.6580   -0.3160 h1        1 L7S      0.085700
     19 HB         -0.1720   -1.4080   -1.0060 hc        1 L7S      0.057033
     20 H1          0.5200   -2.3370    0.3910 hc        1 L7S      0.057033
     21 H1A        -0.6460   -0.9730    0.6900 hc        1 L7S      0.057033
     22 HN1        -0.6860    2.8270    7.5390 ha        1 L7S      0.184000
     23 HN1A        0.9820    4.5780    8.4440 hn        1 L7S      0.333500
     24 H3          3.2400   -0.9640    3.9360 hc        1 L7S      0.080367
     25 H3A         4.7140   -1.4180    2.9810 hc        1 L7S      0.080367
     26 H4          4.1710    0.3150    3.0140 hc        1 L7S      0.080367
     27 H7         -0.9450    3.2950    3.3070 ha        1 L7S      0.165500
     28 H8          0.7560    3.5310    4.0300 ha        1 L7S      0.165500
     29 H9         -1.8770    2.7010    5.5050 ha        1 L7S      0.192000
     30 H11         3.2260    1.6440    6.4020 ha        1 L7S      0.215000
     31 O           3.1760   -2.0390    1.0980 o         1 L7S     -0.499100
     32 O1          0.4890    1.6120    1.7850 o         1 L7S     -0.593300
     33 H13         1.8120    4.0030    9.8160 hn        1 L7S      0.333500
@<TRIPOS>BOND
     1    1    3 1   
     2    1   19 1   
     3    1   20 1   
     4    1   21 1   
     5    2    3 1   
     6    2    5 1   
     7    2    9 1   
     8    3   17 1   
     9    3   18 1   
    10    4   16 1   
    11    4   23 1   
    12    4   33 1   
    13    5    7 1   
    14    5   31 2   
    15    6   16 2   
    16    7   24 1   
    17    7   25 1   
    18    7   26 1   
    19    8    9 2   
    20    8   10 2   
    21    9   32 1   
    22   10   15 2   
    23   11   12 2   
    24   11   27 1   
    25   11   28 1   
    26   12   13 1   
    27   12   29 1   
    28   13   14 2   
    29   13   22 1   
    30   14   15 1   
    31   14   16 1   
    32   15   30 1   
@<TRIPOS>SUBSTRUCTURE
     1 L7S         1 TEMP              0 ****  ****    0 ROOT
