@<TRIPOS>MOLECULE
L7S
   33    31     1     0     0
SMALL
bcc


@<TRIPOS>ATOM
      1 C          -1.1470   -0.4830   -0.4650 c3        1 L7S     -0.273000
      2 N           2.6750   -0.3560    1.8850 n         1 L7S     -0.208000
      3 C1          2.5040   -0.8440    0.6740 c1        1 L7S      0.059000
      4 N1          2.1300    4.6650    8.4530 nt        1 L7S     -0.416000
      5 C2          3.9100   -0.5900    2.6930 c2        1 L7S      0.322000
      6 O2          3.5000    2.9380    7.8700 o         1 L7S     -0.346000
      7 C3          3.6950    0.1110    4.0050 c2        1 L7S     -0.037000
      8 C4          2.4690    0.7220    4.0210 c2        1 L7S      0.025000
      9 C5          1.8260    0.4520    2.7070 c2        1 L7S      0.297000
     10 C6          1.9190    1.4480    5.0640 c1        1 L7S     -0.225000
     11 C7         -1.4980    1.5050    2.7060 c2        1 L7S     -0.123000
     12 C8         -0.2000    1.6850    2.9490 c2        1 L7S     -0.101000
     13 C9         -0.0330    2.7320    7.7300 c2        1 L7S     -0.095000
     14 C10         1.2040    2.7490    7.2100 c2        1 L7S     -0.091000
     15 C11         1.5620    2.0440    6.0450 c1        1 L7S      0.084000
     16 C12         2.3650    3.4510    7.8700 c2        1 L7S      0.342000
     17 H          -0.5410   -1.3480   -0.8120 hc        1 L7S      0.068750
     18 HA          1.5610   -0.6470    0.1230 ha        1 L7S      0.112000
     19 HB         -1.4240    0.1480   -1.3380 hc        1 L7S      0.068750
     20 H1         -2.0710   -0.8540    0.0310 hc        1 L7S      0.068750
     21 H1A        -0.5560    0.1240    0.2580 hc        1 L7S      0.068750
     22 HN1        -0.2870    3.2590    8.6620 ha        1 L7S      0.144000
     23 HN1A        1.2340    5.0790    8.4520 hn        1 L7S      0.241000
     24 H3          6.8400   -1.4130    4.1590 ha        1 L7S      0.000500
     25 H3A         6.2690   -1.0760    4.3000 ha        1 L7S      0.000500
     26 H4          4.4630    0.0870    4.7910 ha        1 L7S      0.241000
     27 H7         -2.2460    2.1720    3.1650 ha        1 L7S      0.175000
     28 H8         -1.8890    0.7190    2.0390 ha        1 L7S      0.175000
     29 H9         -0.8600    2.1740    7.2690 ha        1 L7S      0.144000
     30 H11         0.3090    2.4290    3.5740 h4        1 L7S      0.196000
     31 O           4.8590   -1.2330    2.2990 o         1 L7S     -0.087000
     32 O1          0.6770    0.8350    2.2030 os        1 L7S     -0.071000
     33 H13         2.8760    5.1330    8.9110 hn        1 L7S      0.241000
@<TRIPOS>BOND
     1    1   17 1   
     2    1   19 1   
     3    1   20 1   
     4    1   21 1   
     5    2    3 1   
     6    2    5 1   
     7    2    9 1   
     8    3   18 1   
     9    4   16 1   
    10    4   23 1   
    11    4   33 1   
    12    5    7 1   
    13    5   31 1   
    14    6   16 1   
    15    7    8 1   
    16    7   26 1   
    17    8    9 1   
    18    8   10 1   
    19    9   32 1   
    20   10   15 1   
    21   11   12 1   
    22   11   27 1   
    23   11   28 1   
    24   12   30 1   
    25   12   32 1   
    26   13   14 1   
    27   13   22 1   
    28   13   29 1   
    29   14   15 1   
    30   14   16 1   
    31   24   25 1   
@<TRIPOS>SUBSTRUCTURE
     1 L7S         1 TEMP              0 ****  ****    0 ROOT
