@<TRIPOS>MOLECULE
L81
   43    46     1     0     0
SMALL
bcc


@<TRIPOS>ATOM
      1 C1          0.7730   -1.2030    0.0640 c3        1 L81     -0.083600
      2 C19         3.2420   -1.3570   -0.1920 c3        1 L81     -0.083600
      3 C2          2.0880   -0.4690    0.2290 c3        1 L81     -0.004700
      4 C3          2.2770    0.0010    1.7150 c3        1 L81      0.165800
      5 C4          2.0940    0.8360   -0.5250 ca        1 L81     -0.172300
      6 C5          1.9740    1.0780   -1.8750 ca        1 L81     -0.014000
      7 C6          2.0000    2.4030   -2.3530 ca        1 L81     -0.201600
      8 C7          1.9110    2.5910   -3.8270 c         1 L81      0.692700
      9 O8          2.6800    1.9810   -4.6000 o         1 L81     -0.607100
     10 N9          0.9720    3.4660   -4.3420 n         1 L81     -0.457800
     11 C10         0.7130    3.5180   -5.7840 c3        1 L81      0.135800
     12 C11        -0.6980    4.0280   -5.9150 ca        1 L81     -0.103800
     13 C12        -1.4600    4.2520   -7.0450 ca        1 L81     -0.109000
     14 C13        -2.7650    4.7430   -6.8810 ca        1 L81     -0.129000
     15 C14        -3.2790    4.9980   -5.6140 ca        1 L81     -0.129000
     16 C15        -2.5070    4.7710   -4.4630 ca        1 L81     -0.109000
     17 C16        -1.2230    4.2880   -4.6220 ca        1 L81     -0.103800
     18 C17        -0.1790    3.9580   -3.5870 c3        1 L81      0.135800
     19 C18         2.1760    3.4580   -1.4440 ca        1 L81      0.185100
     20 O19         2.2060    4.7380   -1.9470 oh        1 L81     -0.490100
     21 C20         2.3090    3.2320   -0.0590 ca        1 L81     -0.257000
     22 C21         2.2730    1.9170    0.3970 ca        1 L81      0.165600
     23 N5          2.4710    1.4550    1.7160 nh        1 L81     -0.701600
     24 H11C        0.6240   -1.4830   -1.0070 hc        1 L81      0.041367
     25 HA2        -0.0820   -0.5610    0.3850 hc        1 L81      0.041367
     26 HB3         0.7720   -2.1340    0.6810 hc        1 L81      0.041367
     27 HA1         3.1990   -0.4620    2.1580 h1        1 L81      0.052200
     28 HB2         1.3910   -0.3010    2.3350 h1        1 L81      0.052200
     29 HB1         3.2500   -2.2930    0.4170 hc        1 L81      0.041367
     30 HC2         4.2150   -0.8280   -0.0510 hc        1 L81      0.041367
     31 HD3         3.1390   -1.6300   -1.2700 hc        1 L81      0.041367
     32 HA          1.9550    1.9480    2.4140 hn        1 L81      0.395800
     33 H5          1.8670    0.2500   -2.5940 ha        1 L81      0.154000
     34 HC1         1.4470    4.2220   -6.2630 h1        1 L81      0.067200
     35 HD2         0.8390    2.5020   -6.2510 h1        1 L81      0.067200
     36 HD1        -0.5520    3.1860   -2.8600 h1        1 L81      0.067200
     37 HE2         0.1270    4.8760   -3.0100 h1        1 L81      0.067200
     38 HB         -1.0620    4.0540   -8.0500 ha        1 L81      0.137000
     39 HC         -3.3860    4.9280   -7.7710 ha        1 L81      0.132500
     40 HD         -4.3040    5.3830   -5.5060 ha        1 L81      0.132500
     41 HE         -2.9210    4.9760   -3.4660 ha        1 L81      0.137000
     42 HF          2.4780    5.3350   -1.2330 ho        1 L81      0.423000
     43 HG          2.4550    4.0750    0.6290 ha        1 L81      0.143000
@<TRIPOS>BOND
     1    1    3 1   
     2    1   24 1   
     3    1   25 1   
     4    1   26 1   
     5    2    3 1   
     6    2   29 1   
     7    2   30 1   
     8    2   31 1   
     9    3    4 1   
    10    3    5 1   
    11    4   23 1   
    12    4   27 1   
    13    4   28 1   
    14    5    6 ar  
    15    5   22 ar  
    16    6    7 ar  
    17    6   33 1   
    18    7    8 1   
    19    7   19 ar  
    20    8    9 2   
    21    8   10 1   
    22   10   11 1   
    23   10   18 1   
    24   11   12 1   
    25   11   34 1   
    26   11   35 1   
    27   12   13 ar  
    28   12   17 ar  
    29   13   14 ar  
    30   13   38 1   
    31   14   15 ar  
    32   14   39 1   
    33   15   16 ar  
    34   15   40 1   
    35   16   17 ar  
    36   16   41 1   
    37   17   18 1   
    38   18   36 1   
    39   18   37 1   
    40   19   20 1   
    41   19   21 ar  
    42   20   42 1   
    43   21   22 ar  
    44   21   43 1   
    45   22   23 1   
    46   23   32 1   
@<TRIPOS>SUBSTRUCTURE
     1 L81         1 TEMP              0 ****  ****    0 ROOT
