@<TRIPOS>MOLECULE
L81
   43    46     1     0     0
SMALL
bcc


@<TRIPOS>ATOM
      1 C1          2.5260    3.1150    0.0040 c3        1 L81     -0.083100
      2 C19         3.5940    1.9820    1.9440 c3        1 L81     -0.083100
      3 C2          3.2790    1.8830    0.4650 c3        1 L81     -0.004700
      4 C3          4.5980    1.7100   -0.3700 c3        1 L81      0.167800
      5 C4          2.5250    0.6190    0.1410 ca        1 L81     -0.180300
      6 C5          1.2920    0.1910    0.5730 ca        1 L81     -0.019000
      7 C6          0.7880   -1.0510    0.1370 ca        1 L81     -0.271600
      8 C7         -0.5340   -1.5330    0.6050 c         1 L81      0.676700
      9 O8         -0.7150   -2.7360    0.9020 o         1 L81     -0.629100
     10 N9         -1.5740   -0.6200    0.7790 n         1 L81     -0.441800
     11 C10        -2.9270   -1.1350    1.0470 c3        1 L81      0.120300
     12 C11        -3.8640   -0.2360    0.2860 ca        1 L81     -0.107800
     13 C12        -5.2380   -0.2920    0.1550 ca        1 L81     -0.106500
     14 C13        -5.8720    0.6880   -0.6260 ca        1 L81     -0.126500
     15 C14        -5.1360    1.6890   -1.2530 ca        1 L81     -0.126500
     16 C15        -3.7400    1.7480   -1.1210 ca        1 L81     -0.106500
     17 C16        -3.1150    0.7850   -0.3520 ca        1 L81     -0.107800
     18 C17        -1.6550    0.6040   -0.0280 c3        1 L81      0.120300
     19 C18         1.5800   -1.8590   -0.7030 ca        1 L81      0.223100
     20 O19         1.2090   -3.0940   -1.1580 oh        1 L81     -0.503100
     21 C20         2.8410   -1.4250   -1.1740 ca        1 L81     -0.213000
     22 C21         3.3020   -0.1820   -0.7590 ca        1 L81      0.168600
     23 N5          4.4840    0.4770   -1.1570 nh        1 L81     -0.703600
     24 H11C        2.3120    3.0570   -1.0900 hc        1 L81      0.040200
     25 HA2         1.5570    3.1960    0.5530 hc        1 L81      0.040200
     26 HB3         3.1290    4.0330    0.2040 hc        1 L81      0.040200
     27 HA1         4.7200    2.5610   -1.0910 h1        1 L81      0.051700
     28 HB2         5.4900    1.6860    0.3120 h1        1 L81      0.051700
     29 HB1         2.6460    2.0510    2.5320 hc        1 L81      0.040200
     30 HC2         4.1590    1.0840    2.2880 hc        1 L81      0.040200
     31 HD3         4.2080    2.8930    2.1470 hc        1 L81      0.040200
     32 HA          5.3010   -0.0930   -1.1740 hn        1 L81      0.399800
     33 H5          0.7090    0.8070    1.2750 ha        1 L81      0.145000
     34 HC1        -3.0260   -2.2100    0.7260 h1        1 L81      0.071450
     35 HD2        -3.1150   -1.0740    2.1540 h1        1 L81      0.071450
     36 HD1        -1.2840    1.4690    0.5910 h1        1 L81      0.071450
     37 HE2        -1.0270    0.5330   -0.9570 h1        1 L81      0.071450
     38 HB         -5.8260   -1.0800    0.6460 ha        1 L81      0.138500
     39 HC         -6.9650    0.6580   -0.7410 ha        1 L81      0.134000
     40 HD         -5.6510    2.4470   -1.8620 ha        1 L81      0.134000
     41 HE         -3.1670    2.5410   -1.6200 ha        1 L81      0.138500
     42 HF          0.4370   -3.4100   -0.6580 ho        1 L81      0.456000
     43 HG          3.4150   -2.0750   -1.8470 ha        1 L81      0.161000
@<TRIPOS>BOND
     1    1    3 1   
     2    1   24 1   
     3    1   25 1   
     4    1   26 1   
     5    2    3 1   
     6    2   29 1   
     7    2   30 1   
     8    2   31 1   
     9    3    4 1   
    10    3    5 1   
    11    4   23 1   
    12    4   27 1   
    13    4   28 1   
    14    5    6 ar  
    15    5   22 ar  
    16    6    7 ar  
    17    6   33 1   
    18    7    8 1   
    19    7   19 ar  
    20    8    9 2   
    21    8   10 1   
    22   10   11 1   
    23   10   18 1   
    24   11   12 1   
    25   11   34 1   
    26   11   35 1   
    27   12   13 ar  
    28   12   17 ar  
    29   13   14 ar  
    30   13   38 1   
    31   14   15 ar  
    32   14   39 1   
    33   15   16 ar  
    34   15   40 1   
    35   16   17 ar  
    36   16   41 1   
    37   17   18 1   
    38   18   36 1   
    39   18   37 1   
    40   19   20 1   
    41   19   21 ar  
    42   20   42 1   
    43   21   22 ar  
    44   21   43 1   
    45   22   23 1   
    46   23   32 1   
@<TRIPOS>SUBSTRUCTURE
     1 L81         1 TEMP              0 ****  ****    0 ROOT
