@<TRIPOS>MOLECULE
L81
   43    46     1     0     0
SMALL
bcc


@<TRIPOS>ATOM
      1 C1          0.8180   -1.2460    0.0020 c3        1 L81     -0.083600
      2 C19         3.2920   -1.3500   -0.2380 c3        1 L81     -0.083600
      3 C2          2.1180   -0.4910    0.1900 c3        1 L81     -0.004700
      4 C3          2.2880   -0.0450    1.6860 c3        1 L81      0.165800
      5 C4          2.1060    0.8270   -0.5400 ca        1 L81     -0.172300
      6 C5          1.9910    1.0910   -1.8860 ca        1 L81     -0.014000
      7 C6          1.9960    2.4250   -2.3410 ca        1 L81     -0.201600
      8 C7          1.9150    2.6380   -3.8120 c         1 L81      0.691700
      9 O8          2.7000    2.0560   -4.5900 o         1 L81     -0.607100
     10 N9          0.9630    3.5050   -4.3180 n         1 L81     -0.457800
     11 C10         0.7130    3.5780   -5.7610 c3        1 L81      0.135800
     12 C11        -0.7060    4.0640   -5.8930 ca        1 L81     -0.103800
     13 C12        -1.4640    4.2940   -7.0250 ca        1 L81     -0.109000
     14 C13        -2.7790    4.7570   -6.8620 ca        1 L81     -0.129000
     15 C14        -3.3070    4.9790   -5.5940 ca        1 L81     -0.129000
     16 C15        -2.5390    4.7460   -4.4420 ca        1 L81     -0.109000
     17 C16        -1.2450    4.2900   -4.6000 ca        1 L81     -0.103800
     18 C17        -0.2020    3.9620   -3.5630 c3        1 L81      0.135800
     19 C18         2.1460    3.4660   -1.4120 ca        1 L81      0.185100
     20 O19         2.1560    4.7550   -1.8910 oh        1 L81     -0.490100
     21 C20         2.2730    3.2170   -0.0300 ca        1 L81     -0.257000
     22 C21         2.2580    1.8940    0.4020 ca        1 L81      0.165600
     23 N5          2.4550    1.4130    1.7140 nu        1 L81     -0.701600
     24 H11C        0.8300   -2.1880    0.6020 hc        1 L81      0.041367
     25 HA2        -0.0510   -0.6250    0.3280 hc        1 L81      0.041367
     26 HB3         0.6820   -1.5100   -1.0750 hc        1 L81      0.041367
     27 HA1         3.2150   -0.4990    2.1270 h1        1 L81      0.052200
     28 HB2         1.4030   -0.3740    2.2930 h1        1 L81      0.052200
     29 HB1         3.3120   -2.2970    0.3540 hc        1 L81      0.041367
     30 HC2         3.2010   -1.6060   -1.3210 hc        1 L81      0.041367
     31 HD3         4.2530   -0.8060   -0.0800 hc        1 L81      0.041367
     32 HA          1.9250    1.8830    2.4170 hn        1 L81      0.395800
     33 H5          1.9050    0.2740   -2.6210 ha        1 L81      0.154000
     34 HC1         0.8620    2.5730   -6.2450 h1        1 L81      0.067200
     35 HD2         1.4380    4.3040   -6.2220 h1        1 L81      0.067200
     36 HD1         0.0820    4.8750   -2.9670 h1        1 L81      0.067200
     37 HE2        -0.5660    3.1700   -2.8520 h1        1 L81      0.067200
     38 HB         -1.0550    4.1210   -8.0300 ha        1 L81      0.137000
     39 HC         -3.3960    4.9460   -7.7530 ha        1 L81      0.132500
     40 HD         -4.3400    5.3430   -5.4870 ha        1 L81      0.132500
     41 HE         -2.9630    4.9260   -3.4450 ha        1 L81      0.137000
     42 HF          2.4120    5.3440   -1.1650 ho        1 L81      0.423000
     43 HG          2.3990    4.0500    0.6740 ha        1 L81      0.143000
@<TRIPOS>BOND
     1    1    3 1   
     2    1   24 1   
     3    1   25 1   
     4    1   26 1   
     5    2    3 1   
     6    2   29 1   
     7    2   30 1   
     8    2   31 1   
     9    3    4 1   
    10    3    5 1   
    11    4   23 1   
    12    4   27 1   
    13    4   28 1   
    14    5    6 ar  
    15    5   22 ar  
    16    6    7 ar  
    17    6   33 1   
    18    7    8 1   
    19    7   19 ar  
    20    8    9 2   
    21    8   10 1   
    22   10   11 1   
    23   10   18 1   
    24   11   12 1   
    25   11   34 1   
    26   11   35 1   
    27   12   13 ar  
    28   12   17 ar  
    29   13   14 ar  
    30   13   38 1   
    31   14   15 ar  
    32   14   39 1   
    33   15   16 ar  
    34   15   40 1   
    35   16   17 ar  
    36   16   41 1   
    37   17   18 1   
    38   18   36 1   
    39   18   37 1   
    40   19   20 1   
    41   19   21 ar  
    42   20   42 1   
    43   21   22 ar  
    44   21   43 1   
    45   22   23 1   
    46   23   32 1   
@<TRIPOS>SUBSTRUCTURE
     1 L81         1 TEMP              0 ****  ****    0 ROOT
