@<TRIPOS>MOLECULE
L81
   43    46     1     0     0
SMALL
bcc


@<TRIPOS>ATOM
      1 C1          0.7860   -1.2120    0.0520 c3        1 L81     -0.083600
      2 C19         3.2560   -1.3520   -0.2000 c3        1 L81     -0.083600
      3 C2          2.0970   -0.4710    0.2220 c3        1 L81     -0.004700
      4 C3          2.2810   -0.0060    1.7100 c3        1 L81      0.165800
      5 C4          2.0970    0.8360   -0.5270 ca        1 L81     -0.172300
      6 C5          1.9790    1.0830   -1.8760 ca        1 L81     -0.014000
      7 C6          1.9990    2.4090   -2.3500 ca        1 L81     -0.201600
      8 C7          1.9120    2.6020   -3.8230 c         1 L81      0.692700
      9 O8          2.6860    2.0000   -4.5970 o         1 L81     -0.607100
     10 N9          0.9680    3.4740   -4.3370 n         1 L81     -0.457800
     11 C10         0.7120    3.5300   -5.7790 c3        1 L81      0.135800
     12 C11        -0.7010    4.0330   -5.9110 ca        1 L81     -0.103800
     13 C12        -1.4610    4.2580   -7.0420 ca        1 L81     -0.109000
     14 C13        -2.7690    4.7420   -6.8800 ca        1 L81     -0.129000
     15 C14        -3.2880    4.9880   -5.6120 ca        1 L81     -0.129000
     16 C15        -2.5170    4.7600   -4.4610 ca        1 L81     -0.109000
     17 C16        -1.2300    4.2850   -4.6190 ca        1 L81     -0.103800
     18 C17        -0.1870    3.9560   -3.5830 c3        1 L81      0.135800
     19 C18         2.1680    3.4620   -1.4370 ca        1 L81      0.185100
     20 O19         2.1910    4.7440   -1.9350 oh        1 L81     -0.490100
     21 C20         2.2990    3.2310   -0.0520 ca        1 L81     -0.257000
     22 C21         2.2690    1.9150    0.3990 ca        1 L81      0.165600
     23 N5          2.4670    1.4490    1.7170 nh        1 L81     -0.701600
     24 H11C       -0.0730   -0.5750    0.3730 hc        1 L81      0.041367
     25 HA2         0.7880   -2.1450    0.6650 hc        1 L81      0.041367
     26 HB3         0.6400   -1.4890   -1.0200 hc        1 L81      0.041367
     27 HA1         3.2040   -0.4660    2.1530 h1        1 L81      0.052200
     28 HB2         1.3950   -0.3140    2.3270 h1        1 L81      0.052200
     29 HB1         4.2260   -0.8190   -0.0560 hc        1 L81      0.041367
     30 HC2         3.2680   -2.2900    0.4060 hc        1 L81      0.041367
     31 HD3         3.1560   -1.6220   -1.2790 hc        1 L81      0.041367
     32 HA          1.9480    1.9370    2.4150 hn        1 L81      0.395800
     33 H5          1.8780    0.2570   -2.5980 ha        1 L81      0.154000
     34 HC1         0.8460    2.5170   -6.2500 h1        1 L81      0.067200
     35 HD2         1.4440    4.2410   -6.2540 h1        1 L81      0.067200
     36 HD1        -0.5570    3.1780   -2.8600 h1        1 L81      0.067200
     37 HE2         0.1120    4.8730   -3.0000 h1        1 L81      0.067200
     38 HB         -1.0590    4.0670   -8.0470 ha        1 L81      0.137000
     39 HC         -3.3890    4.9270   -7.7700 ha        1 L81      0.132500
     40 HD         -4.3150    5.3670   -5.5050 ha        1 L81      0.132500
     41 HE         -2.9340    4.9580   -3.4650 ha        1 L81      0.137000
     42 HF          2.4590    5.3390   -1.2190 ho        1 L81      0.423000
     43 HG          2.4390    4.0730    0.6390 ha        1 L81      0.143000
@<TRIPOS>BOND
     1    1    3 1   
     2    1   24 1   
     3    1   25 1   
     4    1   26 1   
     5    2    3 1   
     6    2   29 1   
     7    2   30 1   
     8    2   31 1   
     9    3    4 1   
    10    3    5 1   
    11    4   23 1   
    12    4   27 1   
    13    4   28 1   
    14    5    6 ar  
    15    5   22 ar  
    16    6    7 ar  
    17    6   33 1   
    18    7    8 1   
    19    7   19 ar  
    20    8    9 2   
    21    8   10 1   
    22   10   11 1   
    23   10   18 1   
    24   11   12 1   
    25   11   34 1   
    26   11   35 1   
    27   12   13 ar  
    28   12   17 ar  
    29   13   14 ar  
    30   13   38 1   
    31   14   15 ar  
    32   14   39 1   
    33   15   16 ar  
    34   15   40 1   
    35   16   17 ar  
    36   16   41 1   
    37   17   18 1   
    38   18   36 1   
    39   18   37 1   
    40   19   20 1   
    41   19   21 ar  
    42   20   42 1   
    43   21   22 ar  
    44   21   43 1   
    45   22   23 1   
    46   23   32 1   
@<TRIPOS>SUBSTRUCTURE
     1 L81         1 TEMP              0 ****  ****    0 ROOT
