@<TRIPOS>MOLECULE
L85
   28    25     1     0     0
SMALL
bcc


@<TRIPOS>ATOM
      1 NA          2.0250    0.3030   -2.7040 n2        1 L85     -0.074000
      2 NB          2.1040    0.5600   -1.5100 n2        1 L85      0.116000
      3 CG          2.7660   -0.3070   -0.6760 c1        1 L85     -0.113000
      4 CH          1.3490    1.0120   -3.6920 c2        1 L85      0.293000
      5 CK         -2.5640   -0.2460   -0.6720 c2        1 L85     -0.788000
      6 OT         -2.9830   -1.1840   -2.9930 o         1 L85     -1.075000
      7 CZ          3.4650   -1.8650    2.4360 c2        1 L85     -0.011000
      8 OC1        -0.8110   -0.3980   -2.5120 o         1 L85     -1.075000
      9 OC2        -1.5870   -2.3890   -1.5010 o         1 L85     -1.075000
     10 CD1         3.2840   -0.9870    0.1690 c1        1 L85     -0.071000
     11 CD2        -0.3890    0.3890    2.1790 c2        1 L85     -0.537000
     12 CE1         3.8740   -1.7810    1.1530 c2        1 L85     -0.108000
     13 CE2        -0.7370    0.8400    3.3440 c1        1 L85      0.094000
     14 CI1        -3.0680    2.2940   -0.5170 c2        1 L85     -0.267000
     15 CI2         1.9150    1.9540   -4.4590 c1        1 L85     -0.624000
     16 CJ1        -2.8180    1.0190   -0.5880 c1        1 L85     -0.011000
     17 CJ2         2.4090    2.8490   -5.1970 c1        1 L85      0.102000
     18 SO4        -1.9360   -1.1360   -2.0530 s6        1 L85      2.890000
     19 HOH         2.1080   -1.4830    3.7120 ho        1 L85      0.217000
     20 HD1         4.7360   -2.3920    0.8280 ha        1 L85      0.145000
     21 HD2        -1.0600    0.3390    1.2960 ha        1 L85      0.219000
     22 HE1         0.6220    0.0050    1.9390 ha        1 L85      0.219000
     23 HE2         3.9400   -2.5390    3.1660 h4        1 L85      0.123000
     24 HI1        -4.0400    2.7130   -0.8050 ha        1 L85      0.125000
     25 HI2         0.3200    0.5920   -3.8800 h4        1 L85      0.251000
     26 HJ1        -2.3130    3.0200   -0.1880 ha        1 L85      0.125000
     27 HJ2        -2.7670   -0.9000    0.1950 h4        1 L85      0.162000
     28 OH          2.4390   -1.0780    2.8980 oh        1 L85     -0.252000
@<TRIPOS>BOND
     1    1    2 1   
     2    1    4 1   
     3    2    3 1   
     4    3   10 1   
     5    4   15 1   
     6    4   25 1   
     7    5   16 1   
     8    5   18 1   
     9    5   27 1   
    10    6   18 1   
    11    7   12 1   
    12    7   23 1   
    13    7   28 1   
    14    8   18 1   
    15    9   18 1   
    16   10   12 1   
    17   11   13 1   
    18   11   21 1   
    19   11   22 1   
    20   12   20 1   
    21   14   16 1   
    22   14   24 1   
    23   14   26 1   
    24   15   17 1   
    25   19   28 1   
@<TRIPOS>SUBSTRUCTURE
     1 L85         1 TEMP              0 ****  ****    0 ROOT
