@<TRIPOS>MOLECULE
L85
   28    27     1     0     0
SMALL
bcc


@<TRIPOS>ATOM
      1 NA          1.3340   -2.8490   -2.1360 n2        1 L85     -0.042000
      2 NB          1.3690   -1.7090   -1.4520 n3        1 L85     -0.104000
      3 CG          1.8420   -1.8100   -0.1060 c2        1 L85      0.040000
      4 CH          0.6590   -3.0710   -3.2290 c2        1 L85     -0.093000
      5 CK         -0.1370    1.6430   -2.1430 cu        1 L85     -1.206000
      6 OT         -0.2470    4.1410   -1.8200 o         1 L85     -0.981500
      7 CZ          0.6250    0.7050    2.1940 c1        1 L85      0.007000
      8 OC1        -1.6730    3.2030   -3.3980 o         1 L85     -0.981500
      9 OC2        -1.2570    1.7890   -1.2120 os        1 L85     -0.595000
     10 CD1         1.8660   -0.7510    0.6750 c1        1 L85     -0.216000
     11 CD2         0.2880    0.9040    5.4060 c1        1 L85     -0.243000
     12 CE1         1.8060    0.3170    1.4140 c2        1 L85     -0.188000
     13 CE2         0.2210    0.9540    6.6000 c1        1 L85     -0.243000
     14 CI1         0.4140   -0.6420   -1.5970 c2        1 L85     -0.340000
     15 CI2        -0.2710   -2.2860   -3.9390 c1        1 L85     -0.133000
     16 CJ1         0.6830    0.5330   -2.2300 c2        1 L85      0.165000
     17 CJ2        -1.0700   -1.6610   -4.5760 c1        1 L85     -0.203000
     18 SO4        -0.7790    2.9840   -2.3650 s6        1 L85      2.914000
     19 HOH        -0.4780    0.9970    0.6070 ho        1 L85      0.246000
     20 HD1         2.6690    0.9980    1.5320 ha        1 L85      0.149000
     21 HD2         2.2130   -2.7960    0.2330 h4        1 L85      0.148000
     22 HE1        -0.5350   -0.7900   -1.0570 h4        1 L85      0.132000
     23 HE2         0.1610    0.9980    7.6560 ha        1 L85      0.235500
     24 HI1         0.3480    0.8600    4.3300 ha        1 L85      0.235500
     25 HI2         0.8730   -4.0660   -3.6750 h4        1 L85      0.143000
     26 HJ1         1.6000    0.6500   -2.8370 ha        1 L85      0.094000
     27 HJ2        -1.7740   -1.0750   -5.1080 ha        1 L85      0.219000
     28 OH         -0.4680    1.0350    1.6000 oh        1 L85     -0.158000
@<TRIPOS>BOND
     1    1    2 1   
     2    1    4 1   
     3    2    3 1   
     4    2   14 1   
     5    3   10 1   
     6    3   21 1   
     7    4   15 1   
     8    4   25 1   
     9    5    9 1   
    10    5   16 1   
    11    5   18 1   
    12    6   18 1   
    13    7   12 1   
    14    7   28 1   
    15    8   18 1   
    16    9   18 1   
    17   10   12 1   
    18   11   13 1   
    19   11   24 1   
    20   12   20 1   
    21   13   23 1   
    22   14   16 1   
    23   14   22 1   
    24   15   17 1   
    25   16   26 1   
    26   17   27 1   
    27   19   28 1   
@<TRIPOS>SUBSTRUCTURE
     1 L85         1 TEMP              0 ****  ****    0 ROOT
