@<TRIPOS>MOLECULE
L85
   28    29     1     0     0
SMALL
bcc


@<TRIPOS>ATOM
      1 NA         -1.1650    0.4490   -0.0370 ne        1 L85     -0.206400
      2 NB         -1.9370   -0.5100    0.0260 nf        1 L85     -0.225400
      3 CG         -3.3530   -0.2620    0.0380 ca        1 L85      0.080400
      4 CH          0.2520    0.2440   -0.0380 ca        1 L85      0.077400
      5 CK          3.0670    0.0730   -0.0360 ca        1 L85     -0.214500
      6 OT          5.1970    0.1330    1.3470 o         1 L85     -0.740867
      7 CZ         -6.1440   -0.0140    0.0980 ca        1 L85      0.118100
      8 OC1         5.1360   -1.3160   -0.5210 o         1 L85     -0.740867
      9 OC2         5.2750    1.0350   -0.8370 o         1 L85     -0.740867
     10 CD1        -4.1820   -1.3740   -0.2360 ca        1 L85     -0.073500
     11 CD2        -3.9570    0.9740    0.3420 ca        1 L85     -0.073500
     12 CE1        -5.5640   -1.2550   -0.2100 ca        1 L85     -0.194000
     13 CE2        -5.3420    1.1000    0.3750 ca        1 L85     -0.194000
     14 CI1         1.0430    1.4030   -0.2080 ca        1 L85     -0.123000
     15 CI2         0.8950   -1.0000    0.1220 ca        1 L85     -0.123000
     16 CJ1         2.4300    1.3010   -0.2070 ca        1 L85     -0.064000
     17 CJ2         2.2860   -1.0700    0.1200 ca        1 L85     -0.064000
     18 SO4         4.8530   -0.0300   -0.0110 s6        1 L85      1.458100
     19 HOH        -7.7770    0.9470    0.3320 ho        1 L85      0.414000
     20 HD1        -3.7310   -2.3510   -0.4770 ha        1 L85      0.151000
     21 HD2        -3.3360    1.8580    0.5610 ha        1 L85      0.151000
     22 HE1        -6.2110   -2.1160   -0.4250 ha        1 L85      0.137000
     23 HE2        -5.8020    2.0680    0.6160 ha        1 L85      0.137000
     24 HI1         0.5680    2.3860   -0.3440 ha        1 L85      0.127500
     25 HI2         0.3080   -1.9220    0.2500 ha        1 L85      0.127500
     26 HJ1         3.0490    2.2030   -0.3560 ha        1 L85      0.151000
     27 HJ2         2.7880   -2.0460    0.2320 ha        1 L85      0.151000
     28 OH         -7.5210    0.0400    0.1110 oh        1 L85     -0.504100
@<TRIPOS>BOND
     1    1    2 2   
     2    1    4 1   
     3    2    3 1   
     4    3   10 ar  
     5    3   11 ar  
     6    4   14 ar  
     7    4   15 ar  
     8    5   16 ar  
     9    5   17 ar  
    10    5   18 1   
    11    6   18 1   
    12    7   12 ar  
    13    7   13 ar  
    14    7   28 1   
    15    8   18 1   
    16    9   18 1   
    17   10   12 ar  
    18   10   20 1   
    19   11   13 ar  
    20   11   21 1   
    21   12   22 1   
    22   13   23 1   
    23   14   16 ar  
    24   14   24 1   
    25   15   17 ar  
    26   15   25 1   
    27   16   26 1   
    28   17   27 1   
    29   19   28 1   
@<TRIPOS>SUBSTRUCTURE
     1 L85         1 TEMP              0 ****  ****    0 ROOT
