@<TRIPOS>MOLECULE
L86
   72    75     1     0     0
SMALL
bcc


@<TRIPOS>ATOM
      1 C8         -0.6220    0.2420    0.0970 ca        1 L86     -0.159500
      2 C2          0.7000    0.6510    0.3320 ca        1 L86     -0.162300
      3 C10         0.9620    1.5480    1.3750 ca        1 L86     -0.159500
      4 C4         -0.0810    2.0410    2.1590 ca        1 L86     -0.098500
      5 C5         -1.3950    1.6390    1.9130 ca        1 L86     -0.090000
      6 C6         -1.6620    0.7340    0.8840 ca        1 L86     -0.098500
      7 C11         1.8100    0.0540   -0.4570 c3        1 L86     -0.084100
      8 C1          2.6090    1.0480   -1.3240 c3        1 L86      0.179500
      9 N18         3.8070    1.6210   -0.7200 nu        1 L86     -0.748200
     10 C21         4.8340    0.7110   -0.3380 cc        1 L86      0.497200
     11 C22         5.6920    0.1680   -1.4470 c         1 L86      0.609200
     12 N23         6.9440   -0.3610   -1.0610 n         1 L86     -0.339000
     13 C24         7.2210   -0.5540    0.3030 cc        1 L86      0.079000
     14 C25         6.2820   -0.1660    1.2520 cd        1 L86      0.033600
     15 N3          5.1220    0.4850    0.9370 nd        1 L86     -0.485300
     16 O28         5.3680    0.0980   -2.6560 o         1 L86     -0.719500
     17 Cl2         8.6770   -1.2490    0.7950 cl        1 L86      0.051600
     18 C33         7.9610   -0.5320   -2.0670 c3        1 L86      0.016000
     19 C34         7.7630   -1.8190   -2.8750 c         1 L86      0.516100
     20 N37         7.1630   -1.6250   -4.2470 ny        1 L86     -0.683800
     21 O38         8.0480   -2.9480   -2.5240 o         1 L86     -0.359100
     22 C39         6.5230   -2.8640   -4.8030 c3        1 L86      0.166100
     23 C40         6.3300   -2.7720   -6.2810 ca        1 L86     -0.169300
     24 C43         5.0680   -2.5750   -6.8780 ca        1 L86     -0.076300
     25 C44         4.9750   -2.5980   -8.2730 ca        1 L86     -0.130000
     26 C45         6.1060   -2.7940   -9.0680 ca        1 L86     -0.058000
     27 C15         7.4600   -2.9740   -7.0850 ca        1 L86     -0.096000
     28 C9          3.8660   -2.3890   -6.0130 c3        1 L86     -0.055100
     29 C50         7.3540   -2.9800   -8.4750 ca        1 L86     -0.084000
     30 C3          2.6020   -2.0810   -6.8120 c3        1 L86      0.103800
     31 C7          1.7150    2.2400   -1.7730 c3        1 L86      0.090800
     32 N2          0.4790    1.8300   -2.5030 ny        1 L86     -0.759000
     33 N5          1.4270   -1.7400   -5.9400 ny        1 L86     -0.764000
     34 C12         1.4330   -0.3070   -5.5170 c3        1 L86      0.098800
     35 C13         0.7460   -0.0620   -4.1740 c3        1 L86     -0.134400
     36 C14         0.7110    1.4470   -3.9260 c3        1 L86      0.103800
     37 H8         -0.8380   -0.5320   -0.6550 ha        1 L86      0.129000
     38 H10         1.9980    1.8370    1.6110 ha        1 L86      0.129000
     39 H4          0.1360    2.7340    2.9900 ha        1 L86      0.169000
     40 H5         -2.2170    2.0160    2.5460 ha        1 L86      0.178000
     41 H6         -2.6950    0.3880    0.7120 ha        1 L86      0.169000
     42 H111        1.4050   -0.7460   -1.1350 hc        1 L86      0.069700
     43 H112        2.5090   -0.4670    0.2570 hc        1 L86      0.069700
     44 H1          2.9670    0.4950   -2.2450 h1        1 L86      0.060700
     45 H18         3.5670    2.2320    0.0480 hn        1 L86      0.422800
     46 H25         6.4470   -0.3460    2.3360 h4        1 L86      0.239000
     47 H331        8.9900   -0.6140   -1.5910 h1        1 L86      0.137700
     48 H332        7.9590    0.3700   -2.7480 h1        1 L86      0.137700
     49 H37         7.9100   -1.3240   -4.8890 hn        1 L86      0.472300
     50 H391        7.2050   -3.7410   -4.5680 hx        1 L86      0.116700
     51 H392        5.5580   -3.0210   -4.2470 hx        1 L86      0.116700
     52 H44         4.0080   -2.4770   -8.7850 ha        1 L86      0.140000
     53 H45         6.0080   -2.8130  -10.1690 ha        1 L86      0.185000
     54 H15         8.4430   -3.1600   -6.6210 ha        1 L86      0.155000
     55 H91         3.7030   -3.3340   -5.4210 hc        1 L86      0.064200
     56 H92         4.0700   -1.5550   -5.2850 hc        1 L86      0.064200
     57 H50         8.2500   -3.1470   -9.1000 ha        1 L86      0.189000
     58 H31         2.3090   -2.9900   -7.4200 hx        1 L86      0.130700
     59 H32         2.7730   -1.2130   -7.5140 hx        1 L86      0.130700
     60 H71         1.3720    2.8050   -0.8500 hx        1 L86      0.130700
     61 H72         2.3030    2.9440   -2.4310 hx        1 L86      0.130700
     62 H2         -0.1640    2.6380   -2.4900 hn        1 L86      0.479300
     63 HN5         1.4350   -2.3490   -5.1120 hn        1 L86      0.466300
     64 H121        2.5080    0.0340   -5.4490 hx        1 L86      0.121200
     65 H122        0.9240    0.2930   -6.3290 hx        1 L86      0.121200
     66 H131        1.3100   -0.5890   -3.3560 hc        1 L86      0.093200
     67 H132       -0.3040   -0.4660   -4.1810 hc        1 L86      0.093200
     68 H141       -0.1230    1.8990   -4.5440 hx        1 L86      0.120700
     69 H142        1.6830    1.9170   -4.2620 hx        1 L86      0.120700
     70 H372        6.4650   -0.8670   -4.1840 hn        1 L86      0.472300
     71 H22         0.0220    1.0590   -1.9830 hn        1 L86      0.479300
     72 H52         0.5610   -1.9330   -6.4650 hn        1 L86      0.466300
@<TRIPOS>BOND
     1    1    2 ar  
     2    1    6 ar  
     3    1   37 1   
     4    2    3 ar  
     5    2    7 1   
     6    3    4 ar  
     7    3   38 1   
     8    4    5 ar  
     9    4   39 1   
    10    5    6 ar  
    11    5   40 1   
    12    6   41 1   
    13    7    8 1   
    14    7   42 1   
    15    7   43 1   
    16    8    9 1   
    17    8   31 1   
    18    8   44 1   
    19    9   10 1   
    20    9   45 1   
    21   10   11 1   
    22   10   15 2   
    23   11   12 1   
    24   11   16 2   
    25   12   13 1   
    26   12   18 1   
    27   13   14 2   
    28   13   17 1   
    29   14   15 1   
    30   14   46 1   
    31   18   19 1   
    32   18   47 1   
    33   18   48 1   
    34   19   20 1   
    35   19   21 2   
    36   20   22 1   
    37   20   49 1   
    38   20   70 1   
    39   22   23 1   
    40   22   50 1   
    41   22   51 1   
    42   23   24 ar  
    43   23   27 ar  
    44   24   25 ar  
    45   24   28 1   
    46   25   26 ar  
    47   25   52 1   
    48   26   29 ar  
    49   26   53 1   
    50   27   29 ar  
    51   27   54 1   
    52   28   30 1   
    53   28   55 1   
    54   28   56 1   
    55   29   57 1   
    56   30   33 1   
    57   30   58 1   
    58   30   59 1   
    59   31   32 1   
    60   31   60 1   
    61   31   61 1   
    62   32   36 1   
    63   32   62 1   
    64   32   71 1   
    65   33   34 1   
    66   33   63 1   
    67   33   72 1   
    68   34   35 1   
    69   34   64 1   
    70   34   65 1   
    71   35   36 1   
    72   35   66 1   
    73   35   67 1   
    74   36   68 1   
    75   36   69 1   
@<TRIPOS>SUBSTRUCTURE
     1 L86         1 TEMP              0 ****  ****    0 ROOT
