@<TRIPOS>MOLECULE
L86
   73    76     1     0     0
SMALL
bcc


@<TRIPOS>ATOM
      1 C8         -0.7300    1.6760    1.4280 ca        1 L86     -0.143500
      2 C2          0.5710    1.1600    1.5140 ca        1 L86     -0.205300
      3 C10         1.4030    1.5730    2.5670 ca        1 L86     -0.143500
      4 C4          0.9520    2.5120    3.4930 ca        1 L86     -0.091000
      5 C5         -0.3390    3.0370    3.3890 ca        1 L86     -0.061000
      6 C6         -1.1800    2.6120    2.3570 ca        1 L86     -0.091000
      7 C11         1.0280    0.0990    0.5830 c3        1 L86     -0.040100
      8 C1          1.7760    0.6450   -0.6560 c3        1 L86      0.115500
      9 N18         2.9200    1.5420   -0.2440 n4        1 L86     -0.686000
     10 C21         4.2010    0.8150   -0.1870 cc        1 L86      0.302200
     11 C22         4.8230    0.4620   -1.4860 c         1 L86      0.610200
     12 N23         6.1140   -0.1220   -1.4170 n         1 L86     -0.310000
     13 C24         6.6750   -0.3850   -0.1670 cc        1 L86      0.158000
     14 C25         5.9640   -0.0570    1.0060 cd        1 L86      0.014600
     15 N3          4.7540    0.5460    0.9970 nd        1 L86     -0.372300
     16 O28         4.2610    0.6320   -2.5890 o         1 L86     -0.674500
     17 CL2         8.1940   -1.0870   -0.0180 cl        1 L86      0.108600
     18 C33         6.8510   -0.3130   -2.6500 c3        1 L86      0.000000
     19 C34         6.3870   -1.5260   -3.4660 c         1 L86      0.531100
     20 N37         7.4180   -2.1770   -4.3370 n4        1 L86     -0.676800
     21 O38         5.2420   -1.9580   -3.4920 o         1 L86     -0.435100
     22 C39         6.8820   -3.2110   -5.3130 c3        1 L86      0.176100
     23 C40         6.8130   -2.6890   -6.7050 ca        1 L86     -0.193300
     24 C43         5.6010   -2.5020   -7.4020 ca        1 L86     -0.067300
     25 C44         5.6540   -2.1670   -8.7590 ca        1 L86     -0.130000
     26 C45         6.8750   -1.9870   -9.4160 ca        1 L86     -0.040000
     27 C15         8.0360   -2.5070   -7.3730 ca        1 L86     -0.098000
     28 C9          4.2920   -2.7260   -6.7180 c3        1 L86     -0.060100
     29 C50         8.0720   -2.1480   -8.7180 ca        1 L86     -0.081000
     30 C3          3.1120   -2.1590   -7.5070 c3        1 L86      0.103800
     31 C7          0.7810    1.3930   -1.5870 c3        1 L86      0.071800
     32 N2          0.2030    0.5140   -2.6520 n4        1 L86     -0.757000
     33 N5          1.8480   -2.0410   -6.6970 n4        1 L86     -0.763000
     34 C12         1.8510   -0.8100   -5.8540 c3        1 L86      0.100800
     35 C13         0.7970   -0.7970   -4.7450 c3        1 L86     -0.132400
     36 C14         1.1100    0.3940   -3.8360 c3        1 L86      0.089800
     37 H8         -1.4290    1.3030    0.6640 ha        1 L86      0.128000
     38 H10         2.3900    1.1060    2.7170 ha        1 L86      0.128000
     39 H4          1.6040    2.8210    4.3290 ha        1 L86      0.180500
     40 H5         -0.7030    3.7670    4.1360 ha        1 L86      0.191000
     41 H6         -2.2120    3.0010    2.2950 ha        1 L86      0.180500
     42 H111        0.1530   -0.4960    0.2030 hc        1 L86      0.095700
     43 H112        1.7060   -0.6190    1.1240 hc        1 L86      0.095700
     44 H1          2.2410   -0.2260   -1.2100 hx        1 L86      0.095700
     45 H18         3.0410    2.3130   -0.9150 hn        1 L86      0.494800
     46 H25         6.3920   -0.2690    2.0150 h4        1 L86      0.272000
     47 H331        7.9590   -0.3710   -2.4270 h1        1 L86      0.150200
     48 H332        6.6700    0.5920   -3.3180 h1        1 L86      0.150200
     49 H37         8.1040   -2.6380   -3.7210 hn        1 L86      0.481300
     50 H391        5.8870   -3.5780   -4.9350 hx        1 L86      0.128700
     51 H392        7.6110   -4.0810   -5.2760 hx        1 L86      0.128700
     52 H44         4.7350   -2.0650   -9.3590 ha        1 L86      0.149000
     53 H45         6.8900   -1.7340  -10.4930 ha        1 L86      0.196000
     54 H15         8.9870   -2.6900   -6.8460 ha        1 L86      0.152000
     55 H91         4.1460   -3.8360   -6.5840 hc        1 L86      0.068700
     56 H92         4.3300   -2.2610   -5.6930 hc        1 L86      0.068700
     57 H50         9.0410   -2.0190   -9.2360 ha        1 L86      0.199000
     58 H31         3.3550   -1.1320   -7.9110 hx        1 L86      0.134700
     59 H32         2.8780   -2.8450   -8.3780 hx        1 L86      0.134700
     60 H71        -0.0820    1.7760   -0.9470 hx        1 L86      0.148200
     61 H72         1.2470    2.2840   -2.1020 hx        1 L86      0.148200
     62 H2         -0.6970    0.9250   -2.9550 hn        1 L86      0.479300
     63 HN5         1.7450   -2.8760   -6.1070 hn        1 L86      0.471800
     64 H121        1.6890    0.0740   -6.5420 hx        1 L86      0.119200
     65 H122        2.8800   -0.7160   -5.3950 hx        1 L86      0.119200
     66 H131        0.8250   -1.7560   -4.1580 hc        1 L86      0.101200
     67 H132       -0.2320   -0.6970   -5.1890 hc        1 L86      0.101200
     68 H141        1.0250    1.3550   -4.4270 hx        1 L86      0.127700
     69 H142        2.1720    0.3070   -3.4510 hx        1 L86      0.127700
     70 H182        2.6960    1.9490    0.6990 hn        1 L86      0.494800
     71 H372        7.9120   -1.4480   -4.8780 hn        1 L86      0.481300
     72 H22         0.0050   -0.4170   -2.2600 hn        1 L86      0.479300
     73 H52         1.0460   -2.0100   -7.3460 hn        1 L86      0.471800
@<TRIPOS>BOND
     1    1    2 ar  
     2    1    6 ar  
     3    1   37 1   
     4    2    3 ar  
     5    2    7 1   
     6    3    4 ar  
     7    3   38 1   
     8    4    5 ar  
     9    4   39 1   
    10    5    6 ar  
    11    5   40 1   
    12    6   41 1   
    13    7    8 1   
    14    7   42 1   
    15    7   43 1   
    16    8    9 1   
    17    8   31 1   
    18    8   44 1   
    19    9   10 1   
    20    9   45 1   
    21    9   70 1   
    22   10   11 1   
    23   10   15 2   
    24   11   12 1   
    25   11   16 2   
    26   12   13 1   
    27   12   18 1   
    28   13   14 2   
    29   13   17 1   
    30   14   15 1   
    31   14   46 1   
    32   18   19 1   
    33   18   47 1   
    34   18   48 1   
    35   19   20 1   
    36   19   21 2   
    37   20   22 1   
    38   20   49 1   
    39   20   71 1   
    40   22   23 1   
    41   22   50 1   
    42   22   51 1   
    43   23   24 ar  
    44   23   27 ar  
    45   24   25 ar  
    46   24   28 1   
    47   25   26 ar  
    48   25   52 1   
    49   26   29 ar  
    50   26   53 1   
    51   27   29 ar  
    52   27   54 1   
    53   28   30 1   
    54   28   55 1   
    55   28   56 1   
    56   29   57 1   
    57   30   33 1   
    58   30   58 1   
    59   30   59 1   
    60   31   32 1   
    61   31   60 1   
    62   31   61 1   
    63   32   36 1   
    64   32   62 1   
    65   32   72 1   
    66   33   34 1   
    67   33   63 1   
    68   33   73 1   
    69   34   35 1   
    70   34   64 1   
    71   34   65 1   
    72   35   36 1   
    73   35   66 1   
    74   35   67 1   
    75   36   68 1   
    76   36   69 1   
@<TRIPOS>SUBSTRUCTURE
     1 L86         1 TEMP              0 ****  ****    0 ROOT
