@<TRIPOS>MOLECULE
L87
   47    43     1     0     0
SMALL
bcc


@<TRIPOS>ATOM
      1 O2         -6.4780   -0.0820    1.8350 o         1 L87     -0.360500
      2 C17        -5.2500   -0.0070    1.8100 c1        1 L87      0.407000
      3 N4         -4.5190    0.1120    3.0310 n3        1 L87     -0.363000
      4 N5         -4.5500   -0.0920    0.5550 n2        1 L87     -0.238000
      5 C18        -5.2930   -0.2290   -0.6730 c3        1 L87     -0.066000
      6 C2         -3.0850    0.0150    0.5210 c2        1 L87      0.112000
      7 C3         -2.3740    0.0460    1.6940 c1        1 L87     -0.252000
      8 C16        -3.1050    0.0970    3.0110 c1        1 L87      0.407000
      9 O3         -2.4780    0.1610    4.0560 o         1 L87     -0.360500
     10 N1         -2.1990   -0.0390   -0.5080 n2        1 L87     -0.171000
     11 C1         -0.9220   -0.0410    0.0260 c2        1 L87      0.060000
     12 N2         -1.0310    0.0100    1.3770 n3        1 L87     -0.050000
     13 N3          0.4280   -0.0860   -0.2960 n2        1 L87     -0.125000
     14 C6          0.8130   -0.3410   -1.6540 c2        1 L87     -0.017000
     15 C7          0.6330    0.9510   -2.4960 c3        1 L87     -0.187000
     16 C8          0.8040    0.6060   -4.0210 c3        1 L87     -0.156000
     17 C9          0.1940    1.7210   -4.8720 c3        1 L87     -0.211000
     18 C5          1.1260   -0.0620    0.8450 c1        1 L87     -0.032000
     19 C4          0.2220   -0.0010    1.8990 c1        1 L87     -0.075000
     20 C10         2.6170   -0.0550    1.2010 c1        1 L87     -0.043000
     21 C11         3.2660   -1.2470    1.5050 c2        1 L87     -0.039000
     22 C26         2.4680   -2.5630    1.5750 c3        1 L87     -0.186000
     23 C12         4.6230   -1.2420    1.8090 c1        1 L87     -0.136000
     24 C13         5.3320   -0.0450    1.8090 c1        1 L87     -0.124000
     25 C14         4.6840    1.1470    1.5060 c1        1 L87     -0.124000
     26 C15         3.3260    1.1420    1.2010 c1        1 L87     -0.101000
     27 H1         -4.9650    0.1510    3.8290 hn        1 L87      0.270000
     28 H2         -4.7980   -0.8050   -1.2930 h1        1 L87      0.102333
     29 H3         -6.1740   -0.6330   -0.4790 h1        1 L87      0.102333
     30 H4         -5.4210    0.6520   -1.0780 h1        1 L87      0.102333
     31 H5          1.7500   -0.6180   -1.6810 ha        1 L87      0.114500
     32 H6          0.2520   -1.0520   -2.0230 ha        1 L87      0.114500
     33 H7          1.3090    1.6100   -2.2320 hc        1 L87      0.098000
     34 H8         -0.2660    1.3220   -2.3410 hc        1 L87      0.098000
     35 H9          1.7580    0.5200   -4.2320 hc        1 L87      0.081000
     36 H10         0.3490   -0.2400   -4.2170 hc        1 L87      0.081000
     37 H11         0.7690    2.5090   -4.8380 hc        1 L87      0.076333
     38 H12        -0.6930    1.9490   -4.5250 hc        1 L87      0.076333
     39 H13         0.1130    1.4140   -5.8070 hc        1 L87      0.076333
     40 H14         0.4500    0.0270    2.8570 DU        1 L87      0.212000
     41 H15         2.3000   -2.8950    0.6640 hc        1 L87      0.091333
     42 H16         1.6080   -2.4020    2.0310 hc        1 L87      0.091333
     43 H17         2.9840   -3.2320    2.0770 hc        1 L87      0.091333
     44 H18         5.0790   -2.0790    2.0230 ha        1 L87      0.138000
     45 H19         6.2880   -0.0420    2.0230 ha        1 L87      0.138000
     46 H20         5.1830    1.9900    1.5060 ha        1 L87      0.138000
     47 H21         2.8720    1.9740    0.9890 ha        1 L87      0.141000
@<TRIPOS>BOND
     1    1    2 1   
     2    2    3 1   
     3    3    8 1   
     4    3   27 1   
     5    4    5 1   
     6    4    6 1   
     7    5   28 1   
     8    5   29 1   
     9    5   30 1   
    10    6    7 1   
    11    6   10 1   
    12    7   12 1   
    13    8    9 1   
    14   10   11 1   
    15   11   12 1   
    16   11   13 1   
    17   12   19 1   
    18   13   18 1   
    19   14   15 1   
    20   14   31 1   
    21   14   32 1   
    22   15   16 1   
    23   15   33 1   
    24   15   34 1   
    25   16   17 1   
    26   16   35 1   
    27   16   36 1   
    28   17   37 1   
    29   17   38 1   
    30   17   39 1   
    31   18   19 1   
    32   20   21 1   
    33   20   26 1   
    34   21   22 1   
    35   21   23 1   
    36   22   41 1   
    37   22   42 1   
    38   22   43 1   
    39   23   44 1   
    40   24   25 1   
    41   24   45 1   
    42   25   46 1   
    43   26   47 1   
@<TRIPOS>SUBSTRUCTURE
     1 L87         1 TEMP              0 ****  ****    0 ROOT
