@<TRIPOS>MOLECULE
L87
   47    50     1     0     0
SMALL
bcc


@<TRIPOS>ATOM
      1 O2         -6.1340   -0.2480   -0.1310 o         1 L87     -0.644500
      2 C17        -4.9150    0.0330   -0.1010 c         1 L87      0.817500
      3 N4         -4.4970    1.3290   -0.4530 n         1 L87     -0.583500
      4 N5         -3.9630   -0.9450    0.2820 n         1 L87     -0.422300
      5 C18        -4.3820   -2.2700    0.6560 c3        1 L87      0.089300
      6 C2         -2.6200   -0.5930    0.3090 cc        1 L87      0.521200
      7 C3         -2.2180    0.7470   -0.0630 cd        1 L87     -0.363200
      8 C16        -3.1600    1.7680   -0.4600 c         1 L87      0.769100
      9 O3         -2.8920    2.9360   -0.7890 o         1 L87     -0.628500
     10 N1         -1.5300   -1.4050    0.6600 nc        1 L87     -0.697000
     11 C1         -0.4590   -0.5510    0.5000 cd        1 L87      0.500000
     12 N2         -0.8370    0.7710    0.0570 na        1 L87     -0.089900
     13 N3          0.9220   -0.5540    0.7310 na        1 L87     -0.169900
     14 C6          1.7120   -1.7540    0.8040 c3        1 L87      0.042300
     15 C7          1.9200   -2.4880   -0.5210 c3        1 L87     -0.108400
     16 C8          2.7760   -3.7160   -0.2970 c3        1 L87     -0.077400
     17 C9          2.9990   -4.4680   -1.5840 c3        1 L87     -0.093100
     18 C5          1.3950    0.7320    0.3290 cc        1 L87     -0.055300
     19 C4          0.3140    1.5480   -0.0340 cd        1 L87     -0.100300
     20 C10         2.7970    1.1190    0.3990 ca        1 L87     -0.042000
     21 C11         3.5120    1.4650   -0.7620 ca        1 L87     -0.045300
     22 C26         2.8820    1.4000   -2.1010 c3        1 L87     -0.060800
     23 C12         4.8490    1.8640   -0.6400 ca        1 L87     -0.135000
     24 C13         5.4690    1.9110    0.6060 ca        1 L87     -0.110000
     25 C14         4.7590    1.5570    1.7530 ca        1 L87     -0.138000
     26 C15         3.4280    1.1610    1.6500 ca        1 L87     -0.104000
     27 H1         -5.2160    1.9710   -0.7140 hn        1 L87      0.356500
     28 H2         -5.4990   -2.3520    0.5700 h1        1 L87      0.063033
     29 H3         -3.8970   -3.0220   -0.0230 h1        1 L87      0.063033
     30 H4         -4.0700   -2.4790    1.7140 h1        1 L87      0.063033
     31 H5          2.7150   -1.4560    1.2280 h1        1 L87      0.076200
     32 H6          1.1980   -2.4470    1.5320 h1        1 L87      0.076200
     33 H7          0.9280   -2.7910   -0.9500 hc        1 L87      0.057200
     34 H8          2.4170   -1.8110   -1.2640 hc        1 L87      0.057200
     35 H9          3.7650   -3.4120    0.1380 hc        1 L87      0.042200
     36 H10         2.2780   -4.3900    0.4510 hc        1 L87      0.042200
     37 H11         3.6300   -5.3710   -1.3990 hc        1 L87      0.036700
     38 H12         2.0260   -4.8000   -2.0200 hc        1 L87      0.036700
     39 H13         3.5170   -3.8220   -2.3330 hc        1 L87      0.036700
     40 H14         0.2910    2.5970   -0.3380 h4        1 L87      0.211000
     41 H15         1.9090    1.9530   -2.1050 hc        1 L87      0.051367
     42 H16         3.5440    1.8430   -2.8840 hc        1 L87      0.051367
     43 H17         2.6760    0.3330   -2.3740 hc        1 L87      0.051367
     44 H18         5.4150    2.1420   -1.5430 ha        1 L87      0.138000
     45 H19         6.5200    2.2280    0.6850 ha        1 L87      0.137000
     46 H20         5.2470    1.5930    2.7390 ha        1 L87      0.138000
     47 H21         2.8620    0.8870    2.5540 ha        1 L87      0.143000
@<TRIPOS>BOND
     1    1    2 2   
     2    2    3 1   
     3    2    4 1   
     4    3    8 1   
     5    3   27 1   
     6    4    5 1   
     7    4    6 1   
     8    5   28 1   
     9    5   29 1   
    10    5   30 1   
    11    6    7 2   
    12    6   10 1   
    13    7    8 1   
    14    7   12 1   
    15    8    9 2   
    16   10   11 2   
    17   11   12 1   
    18   11   13 1   
    19   12   19 1   
    20   13   14 1   
    21   13   18 1   
    22   14   15 1   
    23   14   31 1   
    24   14   32 1   
    25   15   16 1   
    26   15   33 1   
    27   15   34 1   
    28   16   17 1   
    29   16   35 1   
    30   16   36 1   
    31   17   37 1   
    32   17   38 1   
    33   17   39 1   
    34   18   19 2   
    35   18   20 1   
    36   19   40 1   
    37   20   21 ar  
    38   20   26 ar  
    39   21   22 1   
    40   21   23 ar  
    41   22   41 1   
    42   22   42 1   
    43   22   43 1   
    44   23   24 ar  
    45   23   44 1   
    46   24   25 ar  
    47   24   45 1   
    48   25   26 ar  
    49   25   46 1   
    50   26   47 1   
@<TRIPOS>SUBSTRUCTURE
     1 L87         1 TEMP              0 ****  ****    0 ROOT
