@<TRIPOS>MOLECULE
L87
   47    50     1     0     0
SMALL
bcc


@<TRIPOS>ATOM
      1 O2         -0.0750   -0.0110   -0.1160 o         1 L87     -0.644500
      2 C17         1.1760    0.0030   -0.0920 c         1 L87      0.817500
      3 N4          1.8420    0.1130    1.1420 n         1 L87     -0.583500
      4 N5          1.9170   -0.0900   -1.2980 n         1 L87     -0.422300
      5 C18         1.2450   -0.2160   -2.5640 c3        1 L87      0.089300
      6 C2          3.3040   -0.0780   -1.2300 cc        1 L87      0.521200
      7 C3          3.9620    0.0420    0.0540 cd        1 L87     -0.363200
      8 C16         3.2390    0.1400    1.3010 c         1 L87      0.769100
      9 O3          3.7330    0.2420    2.4370 o         1 L87     -0.628500
     10 N1          4.2130   -0.1620   -2.2970 nc        1 L87     -0.697000
     11 C1          5.4320   -0.0940   -1.6550 cd        1 L87      0.500000
     12 N2          5.3220    0.0340   -0.2200 na        1 L87     -0.089900
     13 N3          6.7890   -0.2050   -1.9790 na        1 L87     -0.169900
     14 C6          7.3130    0.0380   -3.2970 c3        1 L87      0.042300
     15 C7          7.3120    1.4980   -3.7490 c3        1 L87     -0.108400
     16 C8          7.9000    1.6030   -5.1400 c3        1 L87     -0.077400
     17 C9          7.9120    3.0320   -5.6200 c3        1 L87     -0.093100
     18 C5          7.5050   -0.0380   -0.7540 cc        1 L87     -0.055300
     19 C4          6.6040    0.0570    0.3180 cd        1 L87     -0.100300
     20 C10         8.9580   -0.0700   -0.6740 ca        1 L87     -0.042000
     21 C11         9.6850    1.0490   -0.2290 ca        1 L87     -0.045300
     22 C26         9.0030    2.3160    0.1250 c3        1 L87     -0.060800
     23 C12        11.0790    0.9590   -0.1360 ca        1 L87     -0.135000
     24 C13        11.7430   -0.2150   -0.4850 ca        1 L87     -0.110000
     25 C14        11.0200   -1.3190   -0.9360 ca        1 L87     -0.138000
     26 C15         9.6320   -1.2470   -1.0310 ca        1 L87     -0.104000
     27 H1          1.2630    0.1750    1.9530 hn        1 L87      0.356500
     28 H2          1.5470   -1.1780   -3.0570 h1        1 L87      0.063033
     29 H3          0.1340   -0.2070   -2.4050 h1        1 L87      0.063033
     30 H4          1.5360    0.6420   -3.2290 h1        1 L87      0.063033
     31 H5          8.3720   -0.3550   -3.3000 h1        1 L87      0.076200
     32 H6          6.6940   -0.5720   -4.0170 h1        1 L87      0.076200
     33 H7          7.9100    2.1240   -3.0360 hc        1 L87      0.057200
     34 H8          6.2630    1.8960   -3.7500 hc        1 L87      0.057200
     35 H9          8.9470    1.1980   -5.1370 hc        1 L87      0.042200
     36 H10         7.3020    0.9720   -5.8490 hc        1 L87      0.042200
     37 H11         8.3470    3.0900   -6.6470 hc        1 L87      0.036700
     38 H12         8.5240    3.6720   -4.9400 hc        1 L87      0.036700
     39 H13         6.8750    3.4450   -5.6520 hc        1 L87      0.036700
     40 H14         6.7900    0.1360    1.3910 h4        1 L87      0.211000
     41 H15         9.7130    3.0430    0.5910 hc        1 L87      0.051367
     42 H16         8.1680    2.1250    0.8460 hc        1 L87      0.051367
     43 H17         8.5690    2.7850   -0.7940 hc        1 L87      0.051367
     44 H18        11.6550    1.8280    0.2170 ha        1 L87      0.138000
     45 H19        12.8390   -0.2700   -0.4050 ha        1 L87      0.137000
     46 H20        11.5410   -2.2470   -1.2120 ha        1 L87      0.138000
     47 H21         9.0570   -2.1180   -1.3800 ha        1 L87      0.143000
@<TRIPOS>BOND
     1    1    2 2   
     2    2    3 1   
     3    2    4 1   
     4    3    8 1   
     5    3   27 1   
     6    4    5 1   
     7    4    6 1   
     8    5   28 1   
     9    5   29 1   
    10    5   30 1   
    11    6    7 2   
    12    6   10 1   
    13    7    8 1   
    14    7   12 1   
    15    8    9 2   
    16   10   11 2   
    17   11   12 1   
    18   11   13 1   
    19   12   19 1   
    20   13   14 1   
    21   13   18 1   
    22   14   15 1   
    23   14   31 1   
    24   14   32 1   
    25   15   16 1   
    26   15   33 1   
    27   15   34 1   
    28   16   17 1   
    29   16   35 1   
    30   16   36 1   
    31   17   37 1   
    32   17   38 1   
    33   17   39 1   
    34   18   19 2   
    35   18   20 1   
    36   19   40 1   
    37   20   21 ar  
    38   20   26 ar  
    39   21   22 1   
    40   21   23 ar  
    41   22   41 1   
    42   22   42 1   
    43   22   43 1   
    44   23   24 ar  
    45   23   44 1   
    46   24   25 ar  
    47   24   45 1   
    48   25   26 ar  
    49   25   46 1   
    50   26   47 1   
@<TRIPOS>SUBSTRUCTURE
     1 L87         1 TEMP              0 ****  ****    0 ROOT
