@<TRIPOS>MOLECULE
L87
   47    50     1     0     0
SMALL
bcc


@<TRIPOS>ATOM
      1 O2         -0.0750   -0.0020   -0.1170 o         1 L87     -0.644500
      2 C17         1.1750    0.0090   -0.0930 c         1 L87      0.817500
      3 N4          1.8410    0.1170    1.1410 ns        1 L87     -0.583500
      4 N5          1.9160   -0.0830   -1.2990 n         1 L87     -0.422300
      5 C18         1.2440   -0.2040   -2.5660 c3        1 L87      0.089300
      6 C2          3.3030   -0.0730   -1.2310 cc        1 L87      0.521200
      7 C3          3.9620    0.0430    0.0530 cd        1 L87     -0.363200
      8 C16         3.2390    0.1400    1.3000 c         1 L87      0.769100
      9 O3          3.7330    0.2390    2.4370 o         1 L87     -0.628500
     10 N1          4.2110   -0.1570   -2.2980 nc        1 L87     -0.697000
     11 C1          5.4310   -0.0920   -1.6560 cd        1 L87      0.500000
     12 N2          5.3210    0.0340   -0.2210 na        1 L87     -0.089900
     13 N3          6.7880   -0.2040   -1.9800 na        1 L87     -0.169900
     14 C6          7.3120    0.0400   -3.2980 c3        1 L87      0.042300
     15 C7          7.3130    1.5010   -3.7470 c3        1 L87     -0.108400
     16 C8          7.9020    1.6080   -5.1380 c3        1 L87     -0.077400
     17 C9          7.9150    3.0370   -5.6160 c3        1 L87     -0.093100
     18 C5          7.5040   -0.0420   -0.7550 cc        1 L87     -0.055300
     19 C4          6.6040    0.0530    0.3170 cd        1 L87     -0.100300
     20 C10         8.9570   -0.0770   -0.6750 ca        1 L87     -0.042000
     21 C11         9.6860    1.0400   -0.2280 ca        1 L87     -0.045300
     22 C26         9.0060    2.3080    0.1290 c3        1 L87     -0.060800
     23 C12        11.0800    0.9470   -0.1350 ca        1 L87     -0.135000
     24 C13        11.7420   -0.2270   -0.4860 ca        1 L87     -0.110000
     25 C14        11.0160   -1.3280   -0.9390 ca        1 L87     -0.138000
     26 C15         9.6290   -1.2530   -1.0350 ca        1 L87     -0.104000
     27 H1          1.2630    0.1780    1.9520 hn        1 L87      0.356500
     28 H2          1.5440   -1.1670   -3.0600 h1        1 L87      0.063033
     29 H3          0.1320   -0.1940   -2.4060 h1        1 L87      0.063033
     30 H4          1.5360    0.6540   -3.2290 h1        1 L87      0.063033
     31 H5          8.3700   -0.3540   -3.3020 h1        1 L87      0.076200
     32 H6          6.6930   -0.5680   -4.0190 h1        1 L87      0.076200
     33 H7          7.9120    2.1250   -3.0330 hc        1 L87      0.057200
     34 H8          6.2650    1.9010   -3.7480 hc        1 L87      0.057200
     35 H9          8.9480    1.2020   -5.1360 hc        1 L87      0.042200
     36 H10         7.3030    0.9790   -5.8480 hc        1 L87      0.042200
     37 H11         8.3500    3.0960   -6.6420 hc        1 L87      0.036700
     38 H12         8.5280    3.6760   -4.9350 hc        1 L87      0.036700
     39 H13         6.8780    3.4520   -5.6470 hc        1 L87      0.036700
     40 H14         6.7890    0.1300    1.3900 h4        1 L87      0.211000
     41 H15         9.7170    3.0330    0.5950 hc        1 L87      0.051367
     42 H16         8.1720    2.1180    0.8500 hc        1 L87      0.051367
     43 H17         8.5710    2.7800   -0.7890 hc        1 L87      0.051367
     44 H18        11.6570    1.8150    0.2200 ha        1 L87      0.138000
     45 H19        12.8380   -0.2840   -0.4060 ha        1 L87      0.137000
     46 H20        11.5370   -2.2560   -1.2180 ha        1 L87      0.138000
     47 H21         9.0530   -2.1230   -1.3850 ha        1 L87      0.143000
@<TRIPOS>BOND
     1    1    2 2   
     2    2    3 1   
     3    2    4 1   
     4    3    8 1   
     5    3   27 1   
     6    4    5 1   
     7    4    6 1   
     8    5   28 1   
     9    5   29 1   
    10    5   30 1   
    11    6    7 2   
    12    6   10 1   
    13    7    8 1   
    14    7   12 1   
    15    8    9 2   
    16   10   11 2   
    17   11   12 1   
    18   11   13 1   
    19   12   19 1   
    20   13   14 1   
    21   13   18 1   
    22   14   15 1   
    23   14   31 1   
    24   14   32 1   
    25   15   16 1   
    26   15   33 1   
    27   15   34 1   
    28   16   17 1   
    29   16   35 1   
    30   16   36 1   
    31   17   37 1   
    32   17   38 1   
    33   17   39 1   
    34   18   19 2   
    35   18   20 1   
    36   19   40 1   
    37   20   21 ar  
    38   20   26 ar  
    39   21   22 1   
    40   21   23 ar  
    41   22   41 1   
    42   22   42 1   
    43   22   43 1   
    44   23   24 ar  
    45   23   44 1   
    46   24   25 ar  
    47   24   45 1   
    48   25   26 ar  
    49   25   46 1   
    50   26   47 1   
@<TRIPOS>SUBSTRUCTURE
     1 L87         1 TEMP              0 ****  ****    0 ROOT
