@<TRIPOS>MOLECULE
L87
   47    50     1     0     0
SMALL
bcc


@<TRIPOS>ATOM
      1 O2         -0.0890   -0.0010   -0.1790 o         1 L87     -0.644500
      2 C17         1.1610    0.0040   -0.1450 c         1 L87      0.817500
      3 N4          1.8180    0.0860    1.0950 n         1 L87     -0.583500
      4 N5          1.9100   -0.0690   -1.3470 n         1 L87     -0.422300
      5 C18         1.2480   -0.1650   -2.6210 c3        1 L87      0.089300
      6 C2          3.2970   -0.0670   -1.2680 cc        1 L87      0.521200
      7 C3          3.9460    0.0230    0.0220 cd        1 L87     -0.363200
      8 C16         3.2140    0.1000    1.2660 c         1 L87      0.769100
      9 O3          3.7000    0.1770    2.4080 o         1 L87     -0.628500
     10 N1          4.2130   -0.1350   -2.3300 nc        1 L87     -0.697000
     11 C1          5.4280   -0.0870   -1.6780 cd        1 L87      0.500000
     12 N2          5.3080    0.0130   -0.2410 na        1 L87     -0.089900
     13 N3          6.7870   -0.1990   -1.9930 na        1 L87     -0.169900
     14 C6          7.3230    0.0670   -3.3020 c3        1 L87      0.042300
     15 C7          7.3330    1.5360   -3.7240 c3        1 L87     -0.108400
     16 C8          7.9330    1.6660   -5.1080 c3        1 L87     -0.077400
     17 C9          7.9550    3.1040   -5.5590 c3        1 L87     -0.093100
     18 C5          7.4950   -0.0620   -0.7600 cc        1 L87     -0.055300
     19 C4          6.5860    0.0180    0.3060 cd        1 L87     -0.100300
     20 C10         8.9470   -0.1050   -0.6700 ca        1 L87     -0.042000
     21 C11         9.6770    1.0010   -0.1970 ca        1 L87     -0.045300
     22 C26         9.0000    2.2650    0.1770 c3        1 L87     -0.060800
     23 C12        11.0700    0.9000   -0.0950 ca        1 L87     -0.135000
     24 C13        11.7290   -0.2700   -0.4620 ca        1 L87     -0.110000
     25 C14        11.0020   -1.3600   -0.9410 ca        1 L87     -0.138000
     26 C15         9.6170   -1.2780   -1.0450 ca        1 L87     -0.104000
     27 H1          1.2340    0.1350    1.9030 hn        1 L87      0.356500
     28 H2          1.5480   -1.1190   -3.1310 h1        1 L87      0.063033
     29 H3          1.5480    0.7040   -3.2650 h1        1 L87      0.063033
     30 H4          0.1350   -0.1540   -2.4690 h1        1 L87      0.063033
     31 H5          6.7060   -0.5240   -4.0400 h1        1 L87      0.076200
     32 H6          8.3790   -0.3320   -3.3060 h1        1 L87      0.076200
     33 H7          6.2870    1.9410   -3.7250 hc        1 L87      0.057200
     34 H8          7.9300    2.1430   -2.9940 hc        1 L87      0.057200
     35 H9          8.9770    1.2550   -5.1060 hc        1 L87      0.042200
     36 H10         7.3360    1.0530   -5.8350 hc        1 L87      0.042200
     37 H11         8.5660    3.7270   -4.8620 hc        1 L87      0.036700
     38 H12         6.9210    3.5240   -5.5910 hc        1 L87      0.036700
     39 H13         8.3990    3.1800   -6.5810 hc        1 L87      0.036700
     40 H14         6.7640    0.0730    1.3820 h4        1 L87      0.211000
     41 H15         9.7100    2.9780    0.6630 hc        1 L87      0.051367
     42 H16         8.1580    2.0650    0.8870 hc        1 L87      0.051367
     43 H17         8.5750    2.7560   -0.7360 hc        1 L87      0.051367
     44 H18        11.6480    1.7590    0.2800 ha        1 L87      0.138000
     45 H19        12.8240   -0.3340   -0.3740 ha        1 L87      0.137000
     46 H20        11.5210   -2.2860   -1.2320 ha        1 L87      0.138000
     47 H21         9.0390   -2.1390   -1.4160 ha        1 L87      0.143000
@<TRIPOS>BOND
     1    1    2 2   
     2    2    3 1   
     3    2    4 1   
     4    3    8 1   
     5    3   27 1   
     6    4    5 1   
     7    4    6 1   
     8    5   28 1   
     9    5   29 1   
    10    5   30 1   
    11    6    7 2   
    12    6   10 1   
    13    7    8 1   
    14    7   12 1   
    15    8    9 2   
    16   10   11 2   
    17   11   12 1   
    18   11   13 1   
    19   12   19 1   
    20   13   14 1   
    21   13   18 1   
    22   14   15 1   
    23   14   31 1   
    24   14   32 1   
    25   15   16 1   
    26   15   33 1   
    27   15   34 1   
    28   16   17 1   
    29   16   35 1   
    30   16   36 1   
    31   17   37 1   
    32   17   38 1   
    33   17   39 1   
    34   18   19 2   
    35   18   20 1   
    36   19   40 1   
    37   20   21 ar  
    38   20   26 ar  
    39   21   22 1   
    40   21   23 ar  
    41   22   41 1   
    42   22   42 1   
    43   22   43 1   
    44   23   24 ar  
    45   23   44 1   
    46   24   25 ar  
    47   24   45 1   
    48   25   26 ar  
    49   25   46 1   
    50   26   47 1   
@<TRIPOS>SUBSTRUCTURE
     1 L87         1 TEMP              0 ****  ****    0 ROOT
