@<TRIPOS>MOLECULE
L8B
   52    49     1     0     0
SMALL
bcc


@<TRIPOS>ATOM
      1 CAA        -7.2620    0.7990   -3.8500 c3        1 L8B     -0.156000
      2 CAW        -5.7560    0.7500   -3.9810 c2        1 L8B     -0.106000
      3 CAK        -4.8590    0.5560   -2.9510 c1        1 L8B     -0.193000
      4 NAQ        -5.0560    0.8580   -5.1290 n2        1 L8B     -0.027000
      5 OAT        -3.7060    0.7310   -4.8230 os        1 L8B     -0.074000
      6 CAZ        -3.5950    0.5460   -3.4870 c1        1 L8B     -0.038000
      7 CAM        -2.3040    0.3880   -2.7150 c2        1 L8B     -0.116000
      8 CAU        -1.2100    1.1830   -3.3940 c2        1 L8B      0.335000
      9 OAB        -1.4970    2.0320   -4.2140 o         1 L8B     -0.363000
     10 N           0.1510    0.8730   -3.1420 n         1 L8B     -0.327000
     11 CD2         1.1710    1.3980   -3.6950 c3        1 L8B     -0.052000
     12 CG          2.3270    0.3120   -3.6580 c3        1 L8B      0.022000
     13 OD1         2.1480   -0.6560   -4.7700 oh        1 L8B     -0.321000
     14 CB          2.2290   -0.2940   -2.5310 c3        1 L8B     -0.168000
     15 CA          0.7070   -0.1910   -2.1230 c3        1 L8B      0.021000
     16 C           0.4920    0.1430   -0.7600 c2        1 L8B      0.271000
     17 O          -0.2680    1.0450   -0.4680 o         1 L8B     -0.361000
     18 NAR         1.1700   -0.5720    0.2610 n         1 L8B     -0.362000
     19 CAL         0.4340   -1.1590    1.3260 c3        1 L8B      0.003000
     20 CAX         1.1660   -0.9310    2.6300 c2        1 L8B     -0.113000
     21 CAF         2.0460   -1.8910    3.1050 c2        1 L8B     -0.121000
     22 CAH         2.6270   -1.7410    4.3540 c1        1 L8B     -0.107000
     23 CAE         0.8660    0.1780    3.4050 c1        1 L8B     -0.114000
     24 CAG         1.4470    0.3280    4.6550 c1        1 L8B     -0.113000
     25 CAY         2.3280   -0.6320    5.1300 c1        1 L8B     -0.009000
     26 CBA         2.8620   -0.5320    6.5420 c2        1 L8B     -0.027000
     27 CAJ         3.9290    0.2270    6.9490 c1        1 L8B     -0.155000
     28 NAP         4.0490    0.0940    8.2810 n2        1 L8B     -0.140000
     29 CAI         3.0680   -0.7410    8.7100 c1        1 L8B     -0.045000
     30 OAS         2.3370   -1.1250    7.6270 os        1 L8B     -0.125000
     31 HAA1       -7.5760   -0.0080   -3.3910 hc        1 L8B      0.096667
     32 HAA2       -7.5200    1.5900   -3.3330 hc        1 L8B      0.096667
     33 HAA3       -7.6660    0.8450   -4.7420 hc        1 L8B      0.096667
     34 HAK        -5.0840    0.4460   -2.0080 DU        1 L8B      0.204333
     35 HAM1       -2.4270    0.7160   -1.8020 ha        1 L8B      0.141000
     36 HAM2       -2.0530   -0.5570   -2.6910 ha        1 L8B      0.141000
     37 HD21        0.9640    1.6350   -4.6230 h1        1 L8B      0.106000
     38 HD22        1.4470    2.1970   -3.1990 h1        1 L8B      0.106000
     39 HA          0.2450   -1.0490   -2.1950 h1        1 L8B      0.117000
     40 HG          3.1990    0.7480   -3.7290 h1        1 L8B      0.094000
     41 HD1         2.7870   -0.5340   -5.3760 ho        1 L8B      0.209000
     42 HB1C        2.7900    0.1470   -1.8600 hc        1 L8B      0.114500
     43 HB2C        2.4900   -1.2330   -2.6280 hc        1 L8B      0.114500
     44 HAR         2.0760   -0.6710    0.2240 hn        1 L8B      0.220000
     45 HAL1       -0.4540   -0.7490    1.3740 h1        1 L8B      0.114000
     46 HAL2        0.3410   -2.1210    1.1670 h1        1 L8B      0.114000
     47 HAF         2.2570   -2.6720    2.5590 ha        1 L8B      0.136000
     48 HAE         0.2460    0.8540    3.0710 ha        1 L8B      0.159000
     49 HAH         3.2470   -2.4170    4.6880 ha        1 L8B      0.150000
     50 HAG         1.2360    1.1090    5.2010 ha        1 L8B      0.140000
     51 HAJ         4.5000    0.7690    6.3730 DU        1 L8B      0.204333
     52 HAI         2.9140   -1.0180    9.6340 DU        1 L8B      0.204333
@<TRIPOS>BOND
     1    1    2 1   
     2    1   31 1   
     3    1   32 1   
     4    1   33 1   
     5    2    3 1   
     6    2    4 1   
     7    3    6 1   
     8    4    5 1   
     9    5    6 1   
    10    7    8 1   
    11    7   35 1   
    12    7   36 1   
    13    8    9 1   
    14    8   10 1   
    15   10   11 1   
    16   10   15 1   
    17   11   12 1   
    18   11   37 1   
    19   11   38 1   
    20   12   13 1   
    21   12   14 1   
    22   12   40 1   
    23   13   41 1   
    24   14   15 1   
    25   14   42 1   
    26   14   43 1   
    27   15   16 1   
    28   15   39 1   
    29   16   17 1   
    30   16   18 1   
    31   18   19 1   
    32   18   44 1   
    33   19   20 1   
    34   19   45 1   
    35   19   46 1   
    36   20   21 1   
    37   20   23 1   
    38   21   22 1   
    39   21   47 1   
    40   22   49 1   
    41   23   48 1   
    42   24   25 1   
    43   24   50 1   
    44   25   26 1   
    45   26   27 1   
    46   26   30 1   
    47   27   28 1   
    48   28   29 1   
    49   29   30 1   
@<TRIPOS>SUBSTRUCTURE
     1 L8B         1 TEMP              0 ****  ****    0 ROOT
