@<TRIPOS>MOLECULE
L8B
   53    56     1     0     0
SMALL
bcc


@<TRIPOS>ATOM
      1 CAA         0.2720   -0.7530   -0.5620 c3        1 L8B     -0.139400
      2 CAW         1.6850   -1.0980   -0.3270 cc        1 L8B      0.325600
      3 CAK         2.5410   -0.4640    0.6820 cc        1 L8B     -0.322600
      4 NAQ         2.4160   -2.0190   -0.9920 nd        1 L8B     -0.332300
      5 OAT         3.6410   -2.0330   -0.5160 os        1 L8B     -0.104100
      6 CAZ         3.7640   -1.0820    0.5290 cd        1 L8B      0.219000
      7 CAM         5.0860   -0.9390    1.1450 c3        1 L8B     -0.165700
      8 CAU         5.4670   -2.1460    1.9770 c         1 L8B      0.677100
      9 OAB         4.8380   -3.2230    1.9460 o         1 L8B     -0.627100
     10 N           6.5360   -2.0420    2.8770 n         1 L8B     -0.475800
     11 CD2         7.4390   -0.8980    2.8780 c3        1 L8B      0.065000
     12 CG          8.8620   -1.4100    3.2110 c3        1 L8B      0.135100
     13 OD1         9.6200   -1.2690    2.0260 oh        1 L8B     -0.587800
     14 CB          8.7000   -2.8900    3.5920 c3        1 L8B     -0.128400
     15 CA          7.2200   -3.2440    3.3300 c3        1 L8B      0.041700
     16 C           6.5800   -3.8210    4.6060 c         1 L8B      0.534100
     17 O           7.1070   -3.9490    5.6990 o         1 L8B     -0.416100
     18 NAR         5.1610   -4.2940    4.4490 ny        1 L8B     -0.677800
     19 CAL         4.7600   -5.4040    5.3770 c3        1 L8B      0.174100
     20 CAX         5.1710   -6.7370    4.8530 ca        1 L8B     -0.190300
     21 CAF         6.1980   -7.4520    5.4780 ca        1 L8B     -0.095500
     22 CAH         6.5470   -8.7180    5.0170 ca        1 L8B     -0.113000
     23 CAE         4.4940   -7.2970    3.7610 ca        1 L8B     -0.095500
     24 CAG         4.8440   -8.5590    3.2950 ca        1 L8B     -0.113000
     25 CAY         5.8760   -9.2830    3.9200 ca        1 L8B     -0.052500
     26 CBA         6.2250  -10.5860    3.4330 cc        1 L8B      0.154900
     27 CAJ         5.7550  -11.4110    2.4090 cd        1 L8B      0.294900
     28 NAP         6.4900  -12.6010    2.4010 nd        1 L8B     -0.660000
     29 CAI         7.3730  -12.4930    3.3910 cc        1 L8B      0.519300
     30 OAS         7.2730  -11.2780    4.0740 os        1 L8B     -0.380800
     31 HAA1        0.2120    0.2280   -1.0990 hc        1 L8B      0.066700
     32 HAA2       -0.2490   -1.5270   -1.1800 hc        1 L8B      0.066700
     33 HAA3       -0.2600   -0.6580    0.4170 hc        1 L8B      0.066700
     34 HAK         2.2400    0.3220    1.3670 ha        1 L8B      0.179000
     35 HAM1        5.8640   -0.8270    0.3340 hc        1 L8B      0.108700
     36 HAM2        5.0970   -0.0090    1.7780 hc        1 L8B      0.108700
     37 HD21        7.0940   -0.1740    3.6660 h1        1 L8B      0.085700
     38 HD22        7.4530   -0.3790    1.8790 h1        1 L8B      0.085700
     39 HA          7.1480   -4.0610    2.5450 h1        1 L8B      0.112700
     40 HG          9.3140   -0.8180    4.0490 h1        1 L8B      0.076700
     41 HD1        10.5530   -1.3370    2.2660 ho        1 L8B      0.427000
     42 HB1C        9.3530   -3.5330    2.9490 hc        1 L8B      0.096200
     43 HB2C        8.9800   -3.0550    4.6620 hc        1 L8B      0.096200
     44 HAR         5.0270   -4.6060    3.4680 hn        1 L8B      0.475800
     45 HAL1        5.2230   -5.2040    6.3870 hx        1 L8B      0.112700
     46 HAL2        3.6360   -5.3570    5.4750 hx        1 L8B      0.112700
     47 HAF         6.7280   -7.0220    6.3440 ha        1 L8B      0.145000
     48 HAE         3.6710   -6.7490    3.2760 ha        1 L8B      0.145000
     49 HAH         7.3500   -9.2880    5.5140 ha        1 L8B      0.164500
     50 HAG         4.3080   -8.9970    2.4380 ha        1 L8B      0.164500
     51 HAJ         4.9530  -11.2400    1.6890 h4        1 L8B      0.061100
     52 HAI         8.1420  -13.1830    3.7480 h5        1 L8B      0.102100
     53 HAR2        4.5470   -3.4850    4.5970 hn        1 L8B      0.475800
@<TRIPOS>BOND
     1    1    2 1   
     2    1   31 1   
     3    1   32 1   
     4    1   33 1   
     5    2    3 1   
     6    2    4 2   
     7    3    6 2   
     8    3   34 1   
     9    4    5 1   
    10    5    6 1   
    11    6    7 1   
    12    7    8 1   
    13    7   35 1   
    14    7   36 1   
    15    8    9 2   
    16    8   10 1   
    17   10   11 1   
    18   10   15 1   
    19   11   12 1   
    20   11   37 1   
    21   11   38 1   
    22   12   13 1   
    23   12   14 1   
    24   12   40 1   
    25   13   41 1   
    26   14   15 1   
    27   14   42 1   
    28   14   43 1   
    29   15   16 1   
    30   15   39 1   
    31   16   17 2   
    32   16   18 1   
    33   18   19 1   
    34   18   44 1   
    35   18   53 1   
    36   19   20 1   
    37   19   45 1   
    38   19   46 1   
    39   20   21 ar  
    40   20   23 ar  
    41   21   22 ar  
    42   21   47 1   
    43   22   25 ar  
    44   22   49 1   
    45   23   24 ar  
    46   23   48 1   
    47   24   25 ar  
    48   24   50 1   
    49   25   26 1   
    50   26   27 2   
    51   26   30 1   
    52   27   28 1   
    53   27   51 1   
    54   28   29 2   
    55   29   30 1   
    56   29   52 1   
@<TRIPOS>SUBSTRUCTURE
     1 L8B         1 TEMP              0 ****  ****    0 ROOT
