@<TRIPOS>MOLECULE
L8B
   52    55     1     0     0
SMALL
bcc


@<TRIPOS>ATOM
      1 CAA         4.9730    4.7180   -0.5240 c3        1 L8B     -0.133400
      2 CAW         5.1620    3.2890   -0.2230 cc        1 L8B      0.316600
      3 CAK         4.2160    2.2310   -0.5940 cc        1 L8B     -0.317600
      4 NAQ         6.2060    2.7280    0.4230 nd        1 L8B     -0.356300
      5 OAT         6.0220    1.4280    0.5040 os        1 L8B     -0.130100
      6 CAZ         4.7920    1.0740   -0.1190 cd        1 L8B      0.244000
      7 CAM         4.4860   -0.3600   -0.1150 c3        1 L8B     -0.178700
      8 CAU         3.0050   -0.6500   -0.2870 c         1 L8B      0.674100
      9 OAB         2.2050    0.1890   -0.7520 o         1 L8B     -0.618100
     10 N           2.5430   -1.8920    0.1210 n         1 L8B     -0.454800
     11 CD2         3.4250   -3.0060    0.4080 c3        1 L8B      0.048000
     12 CG          2.6440   -4.3130    0.1090 c3        1 L8B      0.132100
     13 OD1         3.2420   -5.0200   -0.9610 oh        1 L8B     -0.590800
     14 CB          1.2450   -3.8780   -0.3470 c3        1 L8B     -0.089400
     15 CA          1.1920   -2.3440   -0.1960 c3        1 L8B      0.032700
     16 C           0.1610   -1.9300    0.8820 c         1 L8B      0.650100
     17 O          -0.5270   -2.7840    1.4770 o         1 L8B     -0.619100
     18 NAR         0.0470   -0.5860    1.1500 n         1 L8B     -0.549900
     19 CAL        -0.9490   -0.0700    2.0510 c3        1 L8B      0.130300
     20 CAX        -2.2580    0.2900    1.4060 ca        1 L8B     -0.109300
     21 CAF        -3.1260   -0.7240    0.9870 ca        1 L8B     -0.117500
     22 CAH        -4.3530   -0.4050    0.4140 ca        1 L8B     -0.109000
     23 CAE        -2.6270    1.6280    1.2440 ca        1 L8B     -0.117500
     24 CAG        -3.8550    1.9540    0.6730 ca        1 L8B     -0.109000
     25 CAY        -4.7280    0.9390    0.2520 ca        1 L8B     -0.122500
     26 CBA        -5.9920    1.2900   -0.3370 cc        1 L8B      0.216900
     27 CAJ        -6.6370    2.4930   -0.6240 cd        1 L8B      0.237900
     28 NAP        -7.8800    2.2240   -1.2110 nd        1 L8B     -0.667000
     29 CAI        -7.9750    0.9000   -1.2720 cc        1 L8B      0.480300
     30 OAS        -6.8480    0.2530   -0.7510 os        1 L8B     -0.381800
     31 HAA1        4.0210    5.0750   -0.0550 hc        1 L8B      0.059033
     32 HAA2        5.8160    5.3430   -0.1400 hc        1 L8B      0.059033
     33 HAA3        4.8990    4.8590   -1.6320 hc        1 L8B      0.059033
     34 HAK         3.2690    2.3520   -1.1140 ha        1 L8B      0.195000
     35 HAM1        5.0330   -0.8540   -0.9690 hc        1 L8B      0.094700
     36 HAM2        4.8690   -0.8120    0.8430 hc        1 L8B      0.094700
     37 HD21        4.3540   -2.9630   -0.2250 h1        1 L8B      0.056200
     38 HD22        3.7230   -2.9670    1.4920 h1        1 L8B      0.056200
     39 HA          0.8540   -1.8690   -1.1660 h1        1 L8B      0.090700
     40 HG          2.5960   -4.9560    1.0270 h1        1 L8B      0.059700
     41 HD1         4.0380   -5.4390   -0.6140 ho        1 L8B      0.404000
     42 HB1C        1.0860   -4.1620   -1.4170 hc        1 L8B      0.092200
     43 HB2C        0.4580   -4.3730    0.2760 hc        1 L8B      0.092200
     44 HAR         0.4840    0.0650    0.5340 hn        1 L8B      0.336500
     45 HAL1       -1.1470   -0.8480    2.8470 h1        1 L8B      0.069700
     46 HAL2       -0.5120    0.8440    2.5490 h1        1 L8B      0.069700
     47 HAF        -2.8280   -1.7780    1.1170 ha        1 L8B      0.147000
     48 HAE        -1.9490    2.4310    1.5700 ha        1 L8B      0.147000
     49 HAH        -5.0370   -1.2030    0.0850 ha        1 L8B      0.142500
     50 HAG        -4.1420    3.0090    0.5500 ha        1 L8B      0.142500
     51 HAJ        -6.3030    3.5160   -0.4540 h4        1 L8B      0.053100
     52 HAI        -8.7650    0.2510   -1.6510 h5        1 L8B      0.088100
@<TRIPOS>BOND
     1    1    2 1   
     2    1   31 1   
     3    1   32 1   
     4    1   33 1   
     5    2    3 1   
     6    2    4 2   
     7    3    6 2   
     8    3   34 1   
     9    4    5 1   
    10    5    6 1   
    11    6    7 1   
    12    7    8 1   
    13    7   35 1   
    14    7   36 1   
    15    8    9 2   
    16    8   10 1   
    17   10   11 1   
    18   10   15 1   
    19   11   12 1   
    20   11   37 1   
    21   11   38 1   
    22   12   13 1   
    23   12   14 1   
    24   12   40 1   
    25   13   41 1   
    26   14   15 1   
    27   14   42 1   
    28   14   43 1   
    29   15   16 1   
    30   15   39 1   
    31   16   17 2   
    32   16   18 1   
    33   18   19 1   
    34   18   44 1   
    35   19   20 1   
    36   19   45 1   
    37   19   46 1   
    38   20   21 ar  
    39   20   23 ar  
    40   21   22 ar  
    41   21   47 1   
    42   22   25 ar  
    43   22   49 1   
    44   23   24 ar  
    45   23   48 1   
    46   24   25 ar  
    47   24   50 1   
    48   25   26 1   
    49   26   27 2   
    50   26   30 1   
    51   27   28 1   
    52   27   51 1   
    53   28   29 2   
    54   29   30 1   
    55   29   52 1   
@<TRIPOS>SUBSTRUCTURE
     1 L8B         1 TEMP              0 ****  ****    0 ROOT
