@<TRIPOS>MOLECULE
L8B
   53    56     1     0     0
SMALL
bcc


@<TRIPOS>ATOM
      1 CAA         0.2890   -0.6010   -0.5400 c3        1 L8B     -0.139400
      2 CAW         1.6920   -0.9950   -0.3260 cc        1 L8B      0.325600
      3 CAK         2.5850   -0.3920    0.6720 cc        1 L8B     -0.321600
      4 NAQ         2.3810   -1.9390   -1.0020 nd        1 L8B     -0.332300
      5 OAT         3.6120   -1.9960   -0.5450 os        1 L8B     -0.104100
      6 CAZ         3.7830   -1.0520    0.5000 cd        1 L8B      0.219000
      7 CAM         5.1170   -0.9580    1.0980 c3        1 L8B     -0.165700
      8 CAU         5.4540   -2.1660    1.9480 c         1 L8B      0.678100
      9 OAB         4.7800   -3.2170    1.9390 o         1 L8B     -0.629100
     10 N           6.5340   -2.0890    2.8360 n         1 L8B     -0.472800
     11 CD2         7.4840   -0.9870    2.8080 c3        1 L8B      0.037000
     12 CG          8.8760   -1.5400    3.2130 c3        1 L8B      0.138100
     13 OD1         9.7360   -1.5480    2.0930 oh        1 L8B     -0.584800
     14 CB          8.6460   -3.0030    3.6200 c3        1 L8B     -0.097400
     15 CA          7.1590   -3.3050    3.3320 c3        1 L8B      0.041700
     16 C           6.4710   -3.8210    4.6090 c         1 L8B      0.534100
     17 O           6.9480   -3.8770    5.7310 o         1 L8B     -0.415100
     18 NAR         5.0650   -4.3210    4.4210 n4        1 L8B     -0.676800
     19 CAL         4.6660   -5.4340    5.3450 c3        1 L8B      0.174100
     20 CAX         5.1260   -6.7590    4.8450 ca        1 L8B     -0.190300
     21 CAF         6.1530   -7.4440    5.5060 ca        1 L8B     -0.096000
     22 CAH         6.5480   -8.7030    5.0660 ca        1 L8B     -0.113000
     23 CAE         4.4970   -7.3450    3.7380 ca        1 L8B     -0.096000
     24 CAG         4.8940   -8.6000    3.2920 ca        1 L8B     -0.113000
     25 CAY         5.9250   -9.2930    3.9530 ca        1 L8B     -0.052500
     26 CBA         6.3220  -10.5900    3.4870 cc        1 L8B      0.154900
     27 CAJ         5.9040  -11.4340    2.4570 cd        1 L8B      0.294900
     28 NAP         6.6700  -12.6040    2.4790 nd        1 L8B     -0.660000
     29 CAI         7.5210  -12.4650    3.4930 cc        1 L8B      0.519300
     30 OAS         7.3690  -11.2480    4.1630 os        1 L8B     -0.380800
     31 HAA1       -0.2660   -1.3530   -1.1540 hc        1 L8B      0.067033
     32 HAA2        0.2550    0.3840   -1.0720 hc        1 L8B      0.067033
     33 HAA3       -0.2260   -0.4910    0.4470 hc        1 L8B      0.067033
     34 HAK         2.3210    0.4020    1.3620 ha        1 L8B      0.179000
     35 HAM1        5.8890   -0.8970    0.2750 hc        1 L8B      0.107200
     36 HAM2        5.1790   -0.0180    1.7130 hc        1 L8B      0.107200
     37 HD21        7.5470   -0.5270    1.7830 h1        1 L8B      0.077200
     38 HD22        7.1410   -0.2050    3.5410 h1        1 L8B      0.077200
     39 HA          7.0740   -4.1360    2.5640 h1        1 L8B      0.110700
     40 HG          9.3080   -0.9410    4.0570 h1        1 L8B      0.076700
     41 HD1        10.1960   -0.6990    2.0680 ho        1 L8B      0.425000
     42 HB1C        8.9000   -3.1520    4.6980 hc        1 L8B      0.103700
     43 HB2C        9.2930   -3.6790    3.0020 hc        1 L8B      0.103700
     44 HAR         4.9580   -4.6390    3.4390 hn        1 L8B      0.475300
     45 HAL1        3.5380   -5.4160    5.4100 hx        1 L8B      0.112700
     46 HAL2        5.0940   -5.2130    6.3670 hx        1 L8B      0.112700
     47 HAF         6.6440   -6.9950    6.3840 ha        1 L8B      0.144500
     48 HAE         3.6750   -6.8220    3.2250 ha        1 L8B      0.144500
     49 HAH         7.3500   -9.2480    5.5900 ha        1 L8B      0.164500
     50 HAG         4.3950   -9.0590    2.4230 ha        1 L8B      0.164500
     51 HAJ         5.1190  -11.2900    1.7130 h4        1 L8B      0.061100
     52 HAI         8.2990  -13.1320    3.8770 h5        1 L8B      0.102100
     53 HAR2        4.4310   -3.5230    4.5500 hn        1 L8B      0.475300
@<TRIPOS>BOND
     1    1    2 1   
     2    1   31 1   
     3    1   32 1   
     4    1   33 1   
     5    2    3 1   
     6    2    4 2   
     7    3    6 2   
     8    3   34 1   
     9    4    5 1   
    10    5    6 1   
    11    6    7 1   
    12    7    8 1   
    13    7   35 1   
    14    7   36 1   
    15    8    9 2   
    16    8   10 1   
    17   10   11 1   
    18   10   15 1   
    19   11   12 1   
    20   11   37 1   
    21   11   38 1   
    22   12   13 1   
    23   12   14 1   
    24   12   40 1   
    25   13   41 1   
    26   14   15 1   
    27   14   42 1   
    28   14   43 1   
    29   15   16 1   
    30   15   39 1   
    31   16   17 2   
    32   16   18 1   
    33   18   19 1   
    34   18   44 1   
    35   18   53 1   
    36   19   20 1   
    37   19   45 1   
    38   19   46 1   
    39   20   21 ar  
    40   20   23 ar  
    41   21   22 ar  
    42   21   47 1   
    43   22   25 ar  
    44   22   49 1   
    45   23   24 ar  
    46   23   48 1   
    47   24   25 ar  
    48   24   50 1   
    49   25   26 1   
    50   26   27 2   
    51   26   30 1   
    52   27   28 1   
    53   27   51 1   
    54   28   29 2   
    55   29   30 1   
    56   29   52 1   
@<TRIPOS>SUBSTRUCTURE
     1 L8B         1 TEMP              0 ****  ****    0 ROOT
