@<TRIPOS>MOLECULE
L8G
   67    69     1     0     0
SMALL
bcc


@<TRIPOS>ATOM
      1 C1          1.5790    1.8210   -0.1460 c3        1 L8G      0.078700
      2 C2          2.5880    0.7840    0.2690 c3        1 L8G     -0.089200
      3 C3          2.0370   -0.5920    0.2660 c2        1 L8G     -0.051200
      4 C4          1.8120   -1.3810    1.3240 c2        1 L8G     -0.274200
      5 C5          2.0920   -1.0230    2.7470 c3        1 L8G      0.199700
      6 C6          1.5520    0.7470    4.4130 c         1 L8G      0.545100
      7 C7          2.0280    2.1670    4.0810 c3        1 L8G      0.067500
      8 C8          3.3990    2.4670    4.7500 c3        1 L8G     -0.072700
      9 C9          3.3520    2.5850    6.2540 c3        1 L8G     -0.125600
     10 C10         4.3920    1.4090    4.3130 c3        1 L8G     -0.125600
     11 C11         0.0310    2.9590    5.5200 c         1 L8G      0.532100
     12 C12        -1.3640    2.3920    5.1730 c3        1 L8G      0.100200
     13 C13        -1.9230    3.1000    3.9330 c3        1 L8G     -0.124100
     14 C14        -2.3010    2.7070    6.3780 c3        1 L8G     -0.116300
     15 C15        -2.0330    0.2780    5.7900 ce        1 L8G      0.406200
     16 C16        -2.2640   -1.1850    5.8060 ca        1 L8G      0.359000
     17 C17        -3.5510   -1.6010    6.2280 ca        1 L8G     -0.173300
     18 C18        -3.8250   -2.9650    6.3290 ca        1 L8G     -0.044000
     19 C19        -2.8210   -3.8770    6.0070 ca        1 L8G     -0.166300
     20 C20        -1.5730   -3.3760    5.5750 ca        1 L8G      0.347600
     21 C21        -0.5620   -4.4330    5.1970 c3        1 L8G      0.063500
     22 C22         0.9570   -3.0560    3.7570 c         1 L8G      0.540100
     23 C23         2.2300   -2.2630    3.6450 c3        1 L8G     -0.185400
     24 N1          1.0360   -0.0660    3.2670 ny        1 L8G     -0.710800
     25 N2          0.9880    3.2080    4.3580 ny        1 L8G     -0.682800
     26 N3         -1.2360    0.9380    4.9770 n2        1 L8G     -0.724900
     27 N4         -1.2820   -2.0580    5.4620 nb        1 L8G     -0.708000
     28 N5          0.8320   -3.9370    4.9730 ny        1 L8G     -0.657800
     29 O1          1.6150    0.2050    5.5060 o         1 L8G     -0.385100
     30 O2          0.4520    3.2710    6.6160 o         1 L8G     -0.353100
     31 O3          0.0380   -3.0640    2.9530 o         1 L8G     -0.389100
     32 S1          0.4540    2.1550    1.2370 sh        1 L8G     -0.599900
     33 S2         -2.9480    1.1550    6.9390 ss        1 L8G      0.014700
     34 H1          0.9890    1.4960   -1.0380 h1        1 L8G      0.124700
     35 H2          2.0800    2.7930   -0.3850 h1        1 L8G      0.124700
     36 H3          3.0330    1.0540    1.2650 hc        1 L8G      0.085200
     37 H4          3.4410    0.8170   -0.4790 hc        1 L8G      0.085200
     38 H5          1.8140   -0.9910   -0.7480 ha        1 L8G      0.190000
     39 H6          1.4020   -2.3960    1.1660 ha        1 L8G      0.178000
     40 H7          3.0860   -0.4710    2.8100 hx        1 L8G      0.121700
     41 H8          2.2240    2.2330    2.9560 hx        1 L8G      0.126700
     42 H9          3.7460    3.4590    4.3270 hc        1 L8G      0.103700
     43 H10         2.7690    3.4820    6.5780 hc        1 L8G      0.072200
     44 H11         2.9100    1.6760    6.7290 hc        1 L8G      0.072200
     45 H12         4.3960    2.7060    6.6470 hc        1 L8G      0.072200
     46 H13         5.4120    1.6870    4.6910 hc        1 L8G      0.072200
     47 H14         4.4480    1.3380    3.2000 hc        1 L8G      0.072200
     48 H15         4.1300    0.4110    4.7420 hc        1 L8G      0.072200
     49 H16        -1.4230    2.7690    2.9880 hc        1 L8G      0.079367
     50 H17        -3.0130    2.8570    3.8260 hc        1 L8G      0.079367
     51 H18        -1.8310    4.2080    4.0480 hc        1 L8G      0.079367
     52 H19        -3.1420    3.3780    6.0650 h1        1 L8G      0.141200
     53 H20        -1.7740    3.2180    7.2240 h1        1 L8G      0.141200
     54 H21        -4.3350   -0.8600    6.4730 ha        1 L8G      0.193000
     55 H22        -4.8200   -3.3160    6.6620 ha        1 L8G      0.204000
     56 H23        -3.0000   -4.9630    6.0850 ha        1 L8G      0.189000
     57 H24        -0.5100   -5.2020    6.0280 hx        1 L8G      0.143200
     58 H25        -0.9120   -4.9390    4.2460 hx        1 L8G      0.143200
     59 H26         3.0170   -2.9270    3.1730 hc        1 L8G      0.140200
     60 H27         2.6080   -1.9500    4.6590 hc        1 L8G      0.140200
     61 H28         0.7200    0.5660    2.4620 hn        1 L8G      0.493800
     62 H29         1.4970    4.0880    4.5620 hn        1 L8G      0.484300
     63 H30         1.1390   -3.4090    5.8020 hn        1 L8G      0.481800
     64 H31        -0.7360    2.2120    0.6040 hs        1 L8G      0.337800
     65 H121        0.2110   -0.6030    3.5780 hn        1 L8G      0.493800
     66 H221        0.4390    3.3460    3.4910 hn        1 L8G      0.484300
     67 H52         1.4510   -4.7540    4.8560 hn        1 L8G      0.481800
@<TRIPOS>BOND
     1    1    2 1   
     2    1   32 1   
     3    1   34 1   
     4    1   35 1   
     5    2    3 1   
     6    2   36 1   
     7    2   37 1   
     8    3    4 2   
     9    3   38 1   
    10    4    5 1   
    11    4   39 1   
    12    5   23 1   
    13    5   24 1   
    14    5   40 1   
    15    6    7 1   
    16    6   24 1   
    17    6   29 2   
    18    7    8 1   
    19    7   25 1   
    20    7   41 1   
    21    8    9 1   
    22    8   10 1   
    23    8   42 1   
    24    9   43 1   
    25    9   44 1   
    26    9   45 1   
    27   10   46 1   
    28   10   47 1   
    29   10   48 1   
    30   11   12 1   
    31   11   25 1   
    32   11   30 2   
    33   12   13 1   
    34   12   14 1   
    35   12   26 1   
    36   13   49 1   
    37   13   50 1   
    38   13   51 1   
    39   14   33 1   
    40   14   52 1   
    41   14   53 1   
    42   15   16 1   
    43   15   26 2   
    44   15   33 1   
    45   16   17 ar  
    46   16   27 ar  
    47   17   18 ar  
    48   17   54 1   
    49   18   19 ar  
    50   18   55 1   
    51   19   20 ar  
    52   19   56 1   
    53   20   21 1   
    54   20   27 ar  
    55   21   28 1   
    56   21   57 1   
    57   21   58 1   
    58   22   23 1   
    59   22   28 1   
    60   22   31 2   
    61   23   59 1   
    62   23   60 1   
    63   24   61 1   
    64   24   65 1   
    65   25   62 1   
    66   25   66 1   
    67   28   63 1   
    68   28   67 1   
    69   32   64 1   
@<TRIPOS>SUBSTRUCTURE
     1 L8G         1 TEMP              0 ****  ****    0 ROOT
