@<TRIPOS>MOLECULE
L8H
   24    25     1     0     0
SMALL
bcc


@<TRIPOS>ATOM
      1 N          -0.0580    0.1400   -0.0870 nv        1 L8H     -0.820200
      2 CAA         1.7020    0.0960    4.6690 c3        1 L8H      0.112700
      3 CAF         6.0700   -0.0460    0.0180 ca        1 L8H     -0.107000
      4 CAG         6.2150   -0.0390    1.4250 ca        1 L8H     -0.157000
      5 CAH         4.8210   -0.0300   -0.5530 ca        1 L8H     -0.143000
      6 CAI         5.1040   -0.0180    2.2340 ca        1 L8H     -0.080000
      7 CAJ         1.3590    0.0340    1.9010 ca        1 L8H     -0.263000
      8 CAK         2.3600    0.0040   -0.3220 ca        1 L8H     -0.234000
      9 OAQ         2.8480    0.0200    3.8290 os        1 L8H     -0.326900
     10 CAT         1.2180    0.0350    0.4740 ca        1 L8H      0.176600
     11 CAU         2.6150    0.0210    2.4670 ca        1 L8H      0.173100
     12 CAV         3.6510   -0.0080    0.2580 ca        1 L8H      0.028000
     13 CAW         3.8040   -0.0010    1.6670 ca        1 L8H     -0.086000
     14 HN         -0.7920   -0.2090    0.4870 hn        1 L8H      0.390300
     15 HAA         2.1380    0.1120    5.7000 h1        1 L8H      0.045700
     16 HAAA        1.0530   -0.8020    4.5300 h1        1 L8H      0.045700
     17 HAAB        1.1270    1.0320    4.4690 h1        1 L8H      0.045700
     18 HAF         6.9720   -0.0620   -0.6120 ha        1 L8H      0.129000
     19 HAG         7.2250   -0.0510    1.8600 ha        1 L8H      0.131000
     20 HAH         4.7010   -0.0340   -1.6470 ha        1 L8H      0.131000
     21 HAI         5.1980   -0.0120    3.3310 ha        1 L8H      0.145000
     22 HAJ         0.4560    0.0570    2.5260 ha        1 L8H      0.137000
     23 HAK         2.2840    0.0010   -1.4190 ha        1 L8H      0.134000
     24 H11        -0.1180   -0.1640   -1.0330 hn        1 L8H      0.390300
@<TRIPOS>BOND
     1    1   10 1   
     2    1   14 1   
     3    1   24 1   
     4    2    9 1   
     5    2   15 1   
     6    2   16 1   
     7    2   17 1   
     8    3    4 ar  
     9    3    5 ar  
    10    3   18 1   
    11    4    6 ar  
    12    4   19 1   
    13    5   12 ar  
    14    5   20 1   
    15    6   13 ar  
    16    6   21 1   
    17    7   10 ar  
    18    7   11 ar  
    19    7   22 1   
    20    8   10 ar  
    21    8   12 ar  
    22    8   23 1   
    23    9   11 1   
    24   11   13 ar  
    25   12   13 ar  
@<TRIPOS>SUBSTRUCTURE
     1 L8H         1 TEMP              0 ****  ****    0 ROOT
