@<TRIPOS>MOLECULE
L8H
   24    25     1     0     0
SMALL
bcc


@<TRIPOS>ATOM
      1 N           2.4050   -2.6190   -0.1560 nh        1 L8H     -0.820200
      2 CAA         2.5450    2.4490   -0.0190 c3        1 L8H      0.112700
      3 CAF        -3.2440   -0.2370    0.0020 ca        1 L8H     -0.107000
      4 CAG        -2.8530    1.1230    0.0250 ca        1 L8H     -0.157000
      5 CAH        -2.2980   -1.2330   -0.0200 ca        1 L8H     -0.143000
      6 CAI        -1.5210    1.4580    0.0260 ca        1 L8H     -0.080000
      7 CAJ         1.8300   -0.2470   -0.0140 ca        1 L8H     -0.263000
      8 CAK         0.0720   -1.9370   -0.0370 ca        1 L8H     -0.234000
      9 OAQ         1.1680    2.0960    0.0340 os        1 L8H     -0.326900
     10 CAT         1.4280   -1.6230   -0.0450 ca        1 L8H      0.176600
     11 CAU         0.8760    0.7460    0.0050 ca        1 L8H      0.173100
     12 CAV        -0.9100   -0.9160   -0.0190 ca        1 L8H      0.028000
     13 CAW        -0.5260    0.4470    0.0040 ca        1 L8H     -0.086000
     14 HN          3.2960   -2.3660    0.2090 hn        1 L8H      0.390300
     15 HAA         3.0850    2.0620    0.8790 h1        1 L8H      0.045700
     16 HAAA        3.0160    2.0660   -0.9560 h1        1 L8H      0.045700
     17 HAAB        2.5260    3.5690   -0.0140 h1        1 L8H      0.045700
     18 HAF        -4.3160   -0.4840    0.0000 ha        1 L8H      0.129000
     19 HAG        -3.6280    1.9030    0.0420 ha        1 L8H      0.131000
     20 HAH        -2.5950   -2.2920   -0.0390 ha        1 L8H      0.131000
     21 HAI        -1.1980    2.5110    0.0440 ha        1 L8H      0.145000
     22 HAJ         2.9020   -0.0040   -0.0190 ha        1 L8H      0.137000
     23 HAK        -0.2670   -2.9830   -0.0570 ha        1 L8H      0.134000
     24 H11         2.1030   -3.5240    0.1280 hn        1 L8H      0.390300
@<TRIPOS>BOND
     1    1   10 1   
     2    1   14 1   
     3    1   24 1   
     4    2    9 1   
     5    2   15 1   
     6    2   16 1   
     7    2   17 1   
     8    3    4 ar  
     9    3    5 ar  
    10    3   18 1   
    11    4    6 ar  
    12    4   19 1   
    13    5   12 ar  
    14    5   20 1   
    15    6   13 ar  
    16    6   21 1   
    17    7   10 ar  
    18    7   11 ar  
    19    7   22 1   
    20    8   10 ar  
    21    8   12 ar  
    22    8   23 1   
    23    9   11 1   
    24   11   13 ar  
    25   12   13 ar  
@<TRIPOS>SUBSTRUCTURE
     1 L8H         1 TEMP              0 ****  ****    0 ROOT
