@<TRIPOS>MOLECULE
L8H
   24    25     1     0     0
SMALL
bcc


@<TRIPOS>ATOM
      1 N          -0.0590    0.1310   -0.0850 nh        1 L8H     -0.820200
      2 CAA         1.7030    0.0990    4.6700 c3        1 L8H      0.112700
      3 CAF         6.0690   -0.0430    0.0190 ca        1 L8H     -0.107000
      4 CAG         6.2150   -0.0340    1.4260 ca        1 L8H     -0.157000
      5 CAH         4.8200   -0.0320   -0.5520 ca        1 L8H     -0.143000
      6 CAI         5.1040   -0.0130    2.2350 ca        1 L8H     -0.080000
      7 CAJ         1.3590    0.0310    1.9030 ca        1 L8H     -0.263000
      8 CAK         2.3590   -0.0010   -0.3210 ca        1 L8H     -0.234000
      9 OAQ         2.8480    0.0230    3.8300 os        1 L8H     -0.326900
     10 CAT         1.2180    0.0290    0.4760 ca        1 L8H      0.176600
     11 CAU         2.6150    0.0220    2.4690 ca        1 L8H      0.173100
     12 CAV         3.6510   -0.0090    0.2590 ca        1 L8H      0.028000
     13 CAW         3.8040   -0.0000    1.6680 ca        1 L8H     -0.086000
     14 HN         -0.7930   -0.2180    0.4900 hn        1 L8H      0.390300
     15 HAA         1.0540   -0.8000    4.5330 h1        1 L8H      0.045700
     16 HAAA        2.1390    0.1170    5.7010 h1        1 L8H      0.045700
     17 HAAB        1.1250    1.0340    4.4690 h1        1 L8H      0.045700
     18 HAF         6.9710   -0.0600   -0.6110 ha        1 L8H      0.129000
     19 HAG         7.2240   -0.0440    1.8610 ha        1 L8H      0.131000
     20 HAH         4.6990   -0.0370   -1.6460 ha        1 L8H      0.131000
     21 HAI         5.1980   -0.0050    3.3320 ha        1 L8H      0.145000
     22 HAJ         0.4550    0.0540    2.5290 ha        1 L8H      0.137000
     23 HAK         2.2820   -0.0070   -1.4180 ha        1 L8H      0.134000
     24 H11        -0.1190   -0.1750   -1.0310 hn        1 L8H      0.390300
@<TRIPOS>BOND
     1    1   10 1   
     2    1   14 1   
     3    1   24 1   
     4    2    9 1   
     5    2   15 1   
     6    2   16 1   
     7    2   17 1   
     8    3    4 ar  
     9    3    5 ar  
    10    3   18 1   
    11    4    6 ar  
    12    4   19 1   
    13    5   12 ar  
    14    5   20 1   
    15    6   13 ar  
    16    6   21 1   
    17    7   10 ar  
    18    7   11 ar  
    19    7   22 1   
    20    8   10 ar  
    21    8   12 ar  
    22    8   23 1   
    23    9   11 1   
    24   11   13 ar  
    25   12   13 ar  
@<TRIPOS>SUBSTRUCTURE
     1 L8H         1 TEMP              0 ****  ****    0 ROOT
