@<TRIPOS>MOLECULE
L8H
   25    26     1     0     0
SMALL
bcc


@<TRIPOS>ATOM
      1 N          -0.0770   -0.0380   -0.1120 n4        1 L8H     -0.701000
      2 CAA         1.7090    0.0690    4.6790 c3        1 L8H      0.104700
      3 CAF         6.0900   -0.0260    0.0280 ca        1 L8H     -0.087000
      4 CAG         6.2230    0.0050    1.4330 ca        1 L8H     -0.096000
      5 CAH         4.8410   -0.0410   -0.5540 ca        1 L8H     -0.119000
      6 CAI         5.1050    0.0210    2.2400 ca        1 L8H     -0.091000
      7 CAJ         1.3610    0.0080    1.8960 ca        1 L8H     -0.269000
      8 CAK         2.3800   -0.0390   -0.3380 ca        1 L8H     -0.090000
      9 OAQ         2.8490    0.0520    3.8180 os        1 L8H     -0.300900
     10 CAT         1.2660   -0.0230    0.4750 ca        1 L8H     -0.031400
     11 CAU         2.6180    0.0220    2.4700 ca        1 L8H      0.215100
     12 CAV         3.6750   -0.0250    0.2530 ca        1 L8H     -0.023000
     13 CAW         3.8120    0.0060    1.6640 ca        1 L8H     -0.034000
     14 HN         -0.5850    0.8040    0.1820 hn        1 L8H      0.461467
     15 HAA         2.1690    0.0920    5.7010 h1        1 L8H      0.062700
     16 HAAA        1.0970    0.9860    4.4990 h1        1 L8H      0.062700
     17 HAAB        1.1000   -0.8560    4.5390 h1        1 L8H      0.062700
     18 HAF         6.9970   -0.0380   -0.5990 ha        1 L8H      0.160000
     19 HAG         7.2310    0.0160    1.8790 ha        1 L8H      0.162000
     20 HAH         4.7340   -0.0640   -1.6500 ha        1 L8H      0.149000
     21 HAI         5.1970    0.0450    3.3390 ha        1 L8H      0.170000
     22 HAJ         0.4550    0.0200    2.5170 ha        1 L8H      0.155000
     23 HAK         2.3140   -0.0630   -1.4390 ha        1 L8H      0.154000
     24 H11        -0.5830   -0.8680    0.2180 hn        1 L8H      0.461467
     25 HN3        -0.0190   -0.0590   -1.1350 hn        1 L8H      0.461467
@<TRIPOS>BOND
     1    1   10 1   
     2    1   14 1   
     3    1   24 1   
     4    1   25 1   
     5    2    9 1   
     6    2   15 1   
     7    2   16 1   
     8    2   17 1   
     9    3    4 ar  
    10    3    5 ar  
    11    3   18 1   
    12    4    6 ar  
    13    4   19 1   
    14    5   12 ar  
    15    5   20 1   
    16    6   13 ar  
    17    6   21 1   
    18    7   10 ar  
    19    7   11 ar  
    20    7   22 1   
    21    8   10 ar  
    22    8   12 ar  
    23    8   23 1   
    24    9   11 1   
    25   11   13 ar  
    26   12   13 ar  
@<TRIPOS>SUBSTRUCTURE
     1 L8H         1 TEMP              0 ****  ****    0 ROOT
