@<TRIPOS>MOLECULE
L8I
   50    55     1     0     0
SMALL
bcc


@<TRIPOS>ATOM
      1 F1         -5.2860   -0.5810   -1.7670 f         1 L8I     -0.124900
      2 C2         -5.2040    0.4540   -0.9010 ca        1 L8I      0.164900
      3 C3         -4.1480    0.5460    0.0320 cp        1 L8I     -0.178500
      4 C4         -4.1000    1.6500    0.8920 ca        1 L8I     -0.094000
      5 C6         -5.0740    2.6420    0.8360 ca        1 L8I     -0.151000
      6 C8         -6.1170    2.5460   -0.0860 ca        1 L8I     -0.097000
      7 C10        -6.1880    1.4630   -0.9540 ca        1 L8I     -0.174000
      8 C12        -3.0990   -0.4840    0.1250 cp        1 L8I      0.460800
      9 N13        -3.4620   -1.7870    0.2450 nb        1 L8I     -0.645000
     10 C14        -2.4820   -2.7000    0.3400 ca        1 L8I      0.402200
     11 C16        -1.1050   -2.3970    0.3220 ca        1 L8I     -0.176600
     12 C17        -0.7430   -1.0390    0.1870 ca        1 L8I      0.038000
     13 C18        -1.7480   -0.0720    0.0920 ca        1 L8I     -0.238300
     14 C20         0.6680   -0.7500    0.1280 cc        1 L8I     -0.109300
     15 N21         1.3130    0.4900    0.1770 na        1 L8I     -0.125100
     16 C23         2.6760    0.2680    0.0930 cc        1 L8I     -0.052600
     17 C24         2.9110   -1.1290   -0.0190 cd        1 L8I     -0.202600
     18 C25         1.6410   -1.7740    0.0040 cd        1 L8I     -0.038300
     19 C26         1.2690   -3.1890   -0.1170 c3        1 L8I     -0.016100
     20 C29        -0.0940   -3.4740    0.4990 c3        1 L8I     -0.029100
     21 C32         4.2630   -1.6600   -0.1520 c         1 L8I      0.742100
     22 N33         5.2900   -0.7150   -0.1430 n         1 L8I     -0.576900
     23 C35         5.1100    0.6210    0.3510 c3        1 L8I      0.121000
     24 C38         3.7510    1.2710    0.0720 cy        1 L8I     -0.037700
     25 C39         3.5130    2.5540    0.9310 cy        1 L8I      0.141300
     26 N42         3.3330    3.3620   -0.2970 n3        1 L8I     -0.710600
     27 C43         3.6930    2.2210   -1.1710 cy        1 L8I      0.141300
     28 C46         4.1480    4.5380   -0.4130 c3        1 L8I      0.138100
     29 O50         4.5410   -2.8650   -0.3120 o         1 L8I     -0.640500
     30 H4         -3.2820    1.7210    1.6260 ha        1 L8I      0.138000
     31 H6         -5.0230    3.5000    1.5220 ha        1 L8I      0.137000
     32 H8         -6.8880    3.3290   -0.1280 ha        1 L8I      0.138000
     33 H10        -7.0050    1.3770   -1.6850 ha        1 L8I      0.150000
     34 H14        -2.8210   -3.7480    0.4370 h4        1 L8I      0.026100
     35 H18        -1.5070    0.9930   -0.0200 ha        1 L8I      0.139000
     36 HN21        0.8740    1.3720    0.2380 hn        1 L8I      0.310700
     37 H26         1.2560   -3.4620   -1.2090 hc        1 L8I      0.072200
     38 H26A        2.0490   -3.8350    0.3700 hc        1 L8I      0.072200
     39 H29         0.0340   -3.6390    1.6060 hc        1 L8I      0.057200
     40 H29A       -0.4870   -4.4340    0.0670 hc        1 L8I      0.057200
     41 HN33        6.2230   -1.0580   -0.1590 hn        1 L8I      0.318500
     42 H35         5.2590    0.6350    1.4740 h1        1 L8I      0.041700
     43 H35A        5.9140    1.2680   -0.1050 h1        1 L8I      0.041700
     44 H39         2.5880    2.5500    1.5530 h1        1 L8I      0.063950
     45 H39A        4.3900    2.8310    1.5670 h1        1 L8I      0.063950
     46 H43         4.6660    2.3110   -1.7120 h1        1 L8I      0.063950
     47 H43A        2.8750    1.9950   -1.8940 h1        1 L8I      0.063950
     48 H46         5.2490    4.3460   -0.2900 h1        1 L8I      0.038367
     49 H46A        3.9780    4.9880   -1.4270 h1        1 L8I      0.038367
     50 H46B        3.8260    5.2730    0.3710 h1        1 L8I      0.038367
@<TRIPOS>BOND
     1    1    2 1   
     2    2    3 ar  
     3    2    7 ar  
     4    3    4 ar  
     5    3    8 1   
     6    4    5 ar  
     7    4   30 1   
     8    5    6 ar  
     9    5   31 1   
    10    6    7 ar  
    11    6   32 1   
    12    7   33 1   
    13    8    9 ar  
    14    8   13 ar  
    15    9   10 ar  
    16   10   11 ar  
    17   10   34 1   
    18   11   12 ar  
    19   11   20 1   
    20   12   13 ar  
    21   12   14 1   
    22   13   35 1   
    23   14   15 1   
    24   14   18 2   
    25   15   16 1   
    26   15   36 1   
    27   16   17 2   
    28   16   24 1   
    29   17   18 1   
    30   17   21 1   
    31   18   19 1   
    32   19   20 1   
    33   19   37 1   
    34   19   38 1   
    35   20   39 1   
    36   20   40 1   
    37   21   22 1   
    38   21   29 2   
    39   22   23 1   
    40   22   41 1   
    41   23   24 1   
    42   23   42 1   
    43   23   43 1   
    44   24   25 1   
    45   24   27 1   
    46   25   26 1   
    47   25   44 1   
    48   25   45 1   
    49   26   27 1   
    50   26   28 1   
    51   27   46 1   
    52   27   47 1   
    53   28   48 1   
    54   28   49 1   
    55   28   50 1   
@<TRIPOS>SUBSTRUCTURE
     1 L8I         1 TEMP              0 ****  ****    0 ROOT
