@<TRIPOS>MOLECULE
L8I
   50    55     1     0     0
SMALL
bcc


@<TRIPOS>ATOM
      1 F1          0.6510   -1.7500    0.2980 f         1 L8I     -0.124900
      2 C2          1.6600   -0.8610    0.1640 ca        1 L8I      0.164900
      3 C3          1.9840    0.0410    1.2020 cp        1 L8I     -0.178500
      4 C4          3.0520    0.9280    1.0190 ca        1 L8I     -0.094000
      5 C6          3.7860    0.9280   -0.1630 ca        1 L8I     -0.151000
      6 C8          3.4620    0.0350   -1.1870 ca        1 L8I     -0.097000
      7 C10         2.4090   -0.8580   -1.0310 ca        1 L8I     -0.174000
      8 C12         1.2300    0.0750    2.4670 cp        1 L8I      0.460800
      9 N13        -0.1240    0.1730    2.4270 nb        1 L8I     -0.645000
     10 C14        -0.7800    0.2140    3.5980 ca        1 L8I      0.402200
     11 C16        -0.1590    0.1610    4.8630 ca        1 L8I     -0.176600
     12 C17         1.2490    0.0510    4.8880 ca        1 L8I      0.038000
     13 C18         1.9510    0.0120    3.6800 ca        1 L8I     -0.238300
     14 C20         1.8650   -0.0450    6.1880 cc        1 L8I     -0.109300
     15 N21         3.2210    0.0170    6.5230 na        1 L8I     -0.125100
     16 C23         3.3300   -0.1140    7.8950 cc        1 L8I     -0.052600
     17 C24         2.0310   -0.2700    8.4500 cd        1 L8I     -0.202600
     18 C25         1.1030   -0.2250    7.3700 cd        1 L8I     -0.038300
     19 C26        -0.3570   -0.3710    7.3380 c3        1 L8I     -0.016100
     20 C29        -0.9690    0.2790    6.1050 c3        1 L8I     -0.029100
     21 C32         1.8370   -0.4580    9.8840 c         1 L8I      0.742100
     22 N33         2.9990   -0.4570   10.6580 n         1 L8I     -0.576900
     23 C35         4.2450    0.0780   10.1850 c3        1 L8I      0.121000
     24 C38         4.5590   -0.1420    8.7020 cy        1 L8I     -0.037700
     25 C39         5.7340    0.7560    8.1990 cy        1 L8I      0.141300
     26 N42         6.4980   -0.4440    7.7880 n3        1 L8I     -0.710600
     27 C43         5.4900   -1.3580    8.3770 cy        1 L8I      0.141300
     28 C46         7.8350   -0.5550    8.2970 c3        1 L8I      0.138100
     29 O50         0.7360   -0.6580   10.4320 o         1 L8I     -0.640500
     30 H4          3.3020    1.6380    1.8220 ha        1 L8I      0.138000
     31 H6          4.6190    1.6340   -0.2920 ha        1 L8I      0.137000
     32 H8          4.0400    0.0380   -2.1230 ha        1 L8I      0.138000
     33 H10         2.1450   -1.5650   -1.8300 ha        1 L8I      0.150000
     34 H14        -1.8800    0.2940    3.5200 h4        1 L8I      0.026100
     35 H18         3.0450   -0.0800    3.6590 ha        1 L8I      0.139000
     36 HN21        3.9730    0.1140    5.8900 hn        1 L8I      0.310700
     37 H26        -0.6070   -1.4690    7.3510 hc        1 L8I      0.072200
     38 H26A       -0.8090    0.0760    8.2660 hc        1 L8I      0.072200
     39 H29        -1.9860   -0.1650    5.9340 hc        1 L8I      0.057200
     40 H29A       -1.1180    1.3770    6.3080 hc        1 L8I      0.057200
     41 HN33        2.8880   -0.5090   11.6440 hn        1 L8I      0.318500
     42 H35         4.2740    1.1960   10.3670 h1        1 L8I      0.041700
     43 H35A        5.0730   -0.3870   10.7960 h1        1 L8I      0.041700
     44 H39         5.5000    1.4060    7.3240 h1        1 L8I      0.063950
     45 H39A        6.1990    1.3720    9.0070 h1        1 L8I      0.063950
     46 H43         5.8190   -1.9260    9.2800 h1        1 L8I      0.063950
     47 H43A        5.0900   -2.0610    7.6090 h1        1 L8I      0.063950
     48 H46         8.4590    0.2570    7.8400 h1        1 L8I      0.038367
     49 H46A        8.2500   -1.5500    7.9900 h1        1 L8I      0.038367
     50 H46B        7.9080   -0.4700    9.4170 h1        1 L8I      0.038367
@<TRIPOS>BOND
     1    1    2 1   
     2    2    3 ar  
     3    2    7 ar  
     4    3    4 ar  
     5    3    8 1   
     6    4    5 ar  
     7    4   30 1   
     8    5    6 ar  
     9    5   31 1   
    10    6    7 ar  
    11    6   32 1   
    12    7   33 1   
    13    8    9 ar  
    14    8   13 ar  
    15    9   10 ar  
    16   10   11 ar  
    17   10   34 1   
    18   11   12 ar  
    19   11   20 1   
    20   12   13 ar  
    21   12   14 1   
    22   13   35 1   
    23   14   15 1   
    24   14   18 2   
    25   15   16 1   
    26   15   36 1   
    27   16   17 2   
    28   16   24 1   
    29   17   18 1   
    30   17   21 1   
    31   18   19 1   
    32   19   20 1   
    33   19   37 1   
    34   19   38 1   
    35   20   39 1   
    36   20   40 1   
    37   21   22 1   
    38   21   29 2   
    39   22   23 1   
    40   22   41 1   
    41   23   24 1   
    42   23   42 1   
    43   23   43 1   
    44   24   25 1   
    45   24   27 1   
    46   25   26 1   
    47   25   44 1   
    48   25   45 1   
    49   26   27 1   
    50   26   28 1   
    51   27   46 1   
    52   27   47 1   
    53   28   48 1   
    54   28   49 1   
    55   28   50 1   
@<TRIPOS>SUBSTRUCTURE
     1 L8I         1 TEMP              0 ****  ****    0 ROOT
