@<TRIPOS>MOLECULE
L8I
   50    55     1     0     0
SMALL
bcc


@<TRIPOS>ATOM
      1 F1          0.6510   -1.7400    0.2950 f         1 L8I     -0.124900
      2 C2          1.6590   -0.8500    0.1630 ca        1 L8I      0.164900
      3 C3          1.9820    0.0510    1.2020 cp        1 L8I     -0.178500
      4 C4          3.0480    0.9400    1.0210 ca        1 L8I     -0.094000
      5 C6          3.7820    0.9430   -0.1610 ca        1 L8I     -0.151000
      6 C8          3.4580    0.0530   -1.1870 ca        1 L8I     -0.097000
      7 C10         2.4070   -0.8420   -1.0330 ca        1 L8I     -0.174000
      8 C12         1.2280    0.0810    2.4680 cp        1 L8I      0.460800
      9 N13        -0.1260    0.1760    2.4290 nb        1 L8I     -0.645000
     10 C14        -0.7810    0.2130    3.6000 ca        1 L8I      0.402200
     11 C16        -0.1600    0.1590    4.8650 ca        1 L8I     -0.176600
     12 C17         1.2480    0.0510    4.8890 ca        1 L8I      0.038000
     13 C18         1.9500    0.0150    3.6810 ca        1 L8I     -0.238300
     14 C20         1.8650   -0.0470    6.1880 cc        1 L8I     -0.109300
     15 N21         3.2210    0.0160    6.5230 na        1 L8I     -0.125100
     16 C23         3.3310   -0.1190    7.8950 cc        1 L8I     -0.052600
     17 C24         2.0330   -0.2790    8.4490 cd        1 L8I     -0.202600
     18 C25         1.1040   -0.2320    7.3700 cd        1 L8I     -0.038300
     19 C26        -0.3560   -0.3800    7.3390 c3        1 L8I     -0.016100
     20 C29        -0.9690    0.2720    6.1070 c3        1 L8I     -0.029100
     21 C32         1.8400   -0.4710    9.8830 c         1 L8I      0.742100
     22 N33         3.0020   -0.4700   10.6560 n         1 L8I     -0.576900
     23 C35         4.2470    0.0690   10.1850 c3        1 L8I      0.121000
     24 C38         4.5610   -0.1470    8.7010 cy        1 L8I     -0.037700
     25 C39         5.7340    0.7550    8.2000 cy        1 L8I      0.141300
     26 N42         6.5000   -0.4430    7.7860 n3        1 L8I     -0.710600
     27 C43         5.4940   -1.3600    8.3720 cy        1 L8I      0.141300
     28 C46         7.8370   -0.5520    8.2940 c3        1 L8I      0.138100
     29 O50         0.7390   -0.6740   10.4320 o         1 L8I     -0.640500
     30 H4          3.2980    1.6480    1.8260 ha        1 L8I      0.138000
     31 H6          4.6140    1.6510   -0.2890 ha        1 L8I      0.137000
     32 H8          4.0370    0.0590   -2.1230 ha        1 L8I      0.138000
     33 H10         2.1440   -1.5480   -1.8340 ha        1 L8I      0.150000
     34 H14        -1.8820    0.2920    3.5220 h4        1 L8I      0.026100
     35 H18         3.0440   -0.0750    3.6580 ha        1 L8I      0.139000
     36 HN21        3.9720    0.1160    5.8900 hn        1 L8I      0.310700
     37 H26        -0.8080    0.0620    8.2680 hc        1 L8I      0.072200
     38 H26A       -0.6040   -1.4790    7.3490 hc        1 L8I      0.072200
     39 H29        -1.1200    1.3690    6.3130 hc        1 L8I      0.057200
     40 H29A       -1.9860   -0.1740    5.9360 hc        1 L8I      0.057200
     41 HN33        2.8910   -0.5250   11.6430 hn        1 L8I      0.318500
     42 H35         4.2740    1.1860   10.3700 h1        1 L8I      0.041700
     43 H35A        5.0750   -0.3960   10.7940 h1        1 L8I      0.041700
     44 H39         6.1980    1.3700    9.0100 h1        1 L8I      0.063950
     45 H39A        5.4980    1.4070    7.3270 h1        1 L8I      0.063950
     46 H43         5.0940   -2.0620    7.6030 h1        1 L8I      0.063950
     47 H43A        5.8240   -1.9300    9.2740 h1        1 L8I      0.063950
     48 H46         7.9100   -0.4710    9.4140 h1        1 L8I      0.038367
     49 H46A        8.4600    0.2620    7.8390 h1        1 L8I      0.038367
     50 H46B        8.2540   -1.5460    7.9830 h1        1 L8I      0.038367
@<TRIPOS>BOND
     1    1    2 1   
     2    2    3 ar  
     3    2    7 ar  
     4    3    4 ar  
     5    3    8 1   
     6    4    5 ar  
     7    4   30 1   
     8    5    6 ar  
     9    5   31 1   
    10    6    7 ar  
    11    6   32 1   
    12    7   33 1   
    13    8    9 ar  
    14    8   13 ar  
    15    9   10 ar  
    16   10   11 ar  
    17   10   34 1   
    18   11   12 ar  
    19   11   20 1   
    20   12   13 ar  
    21   12   14 1   
    22   13   35 1   
    23   14   15 1   
    24   14   18 2   
    25   15   16 1   
    26   15   36 1   
    27   16   17 2   
    28   16   24 1   
    29   17   18 1   
    30   17   21 1   
    31   18   19 1   
    32   19   20 1   
    33   19   37 1   
    34   19   38 1   
    35   20   39 1   
    36   20   40 1   
    37   21   22 1   
    38   21   29 2   
    39   22   23 1   
    40   22   41 1   
    41   23   24 1   
    42   23   42 1   
    43   23   43 1   
    44   24   25 1   
    45   24   27 1   
    46   25   26 1   
    47   25   44 1   
    48   25   45 1   
    49   26   27 1   
    50   26   28 1   
    51   27   46 1   
    52   27   47 1   
    53   28   48 1   
    54   28   49 1   
    55   28   50 1   
@<TRIPOS>SUBSTRUCTURE
     1 L8I         1 TEMP              0 ****  ****    0 ROOT
