@<TRIPOS>MOLECULE
L8I
   50    55     1     0     0
SMALL
bcc


@<TRIPOS>ATOM
      1 F1          0.6510   -1.7550    0.2990 f         1 L8I     -0.124900
      2 C2          1.6560   -0.8610    0.1650 ca        1 L8I      0.164900
      3 C3          1.9770    0.0410    1.2030 cp        1 L8I     -0.178500
      4 C4          3.0400    0.9340    1.0200 ca        1 L8I     -0.094000
      5 C6          3.7730    0.9380   -0.1640 ca        1 L8I     -0.151000
      6 C8          3.4510    0.0460   -1.1880 ca        1 L8I     -0.097000
      7 C10         2.4030   -0.8530   -1.0320 ca        1 L8I     -0.174000
      8 C12         1.2240    0.0700    2.4700 cp        1 L8I      0.460800
      9 N13        -0.1300    0.1620    2.4310 nb        1 L8I     -0.645000
     10 C14        -0.7840    0.1980    3.6030 ca        1 L8I      0.402200
     11 C16        -0.1620    0.1470    4.8670 ca        1 L8I     -0.176600
     12 C17         1.2470    0.0440    4.8910 ca        1 L8I      0.038000
     13 C18         1.9480    0.0090    3.6810 ca        1 L8I     -0.238300
     14 C20         1.8650   -0.0500    6.1890 cc        1 L8I     -0.109300
     15 N21         3.2210    0.0180    6.5230 na        1 L8I     -0.125100
     16 C23         3.3330   -0.1140    7.8950 cc        1 L8I     -0.052600
     17 C24         2.0360   -0.2770    8.4500 cd        1 L8I     -0.202600
     18 C25         1.1060   -0.2350    7.3720 cd        1 L8I     -0.038300
     19 C26        -0.3540   -0.3880    7.3430 c3        1 L8I     -0.016100
     20 C29        -0.9700    0.2600    6.1100 c3        1 L8I     -0.029100
     21 C32         1.8450   -0.4670    9.8850 c         1 L8I      0.742100
     22 N33         3.0070   -0.4610   10.6570 ns        1 L8I     -0.576900
     23 C35         4.2500    0.0800   10.1830 c3        1 L8I      0.121000
     24 C38         4.5640   -0.1370    8.7000 cy        1 L8I     -0.037700
     25 C39         5.7340    0.7670    8.1950 cy        1 L8I      0.141300
     26 N42         6.5030   -0.4290    7.7830 n3        1 L8I     -0.710600
     27 C43         5.5000   -1.3480    8.3720 cy        1 L8I      0.141300
     28 C46         7.8410   -0.5340    8.2900 c3        1 L8I      0.138100
     29 O50         0.7450   -0.6730   10.4350 o         1 L8I     -0.640500
     30 H4          3.2880    1.6440    1.8240 ha        1 L8I      0.138000
     31 H6          4.6020    1.6490   -0.2930 ha        1 L8I      0.137000
     32 H8          4.0290    0.0520   -2.1240 ha        1 L8I      0.138000
     33 H10         2.1410   -1.5610   -1.8310 ha        1 L8I      0.150000
     34 H14        -1.8850    0.2730    3.5260 h4        1 L8I      0.026100
     35 H18         3.0420   -0.0780    3.6580 ha        1 L8I      0.139000
     36 HN21        3.9720    0.1190    5.8880 hn        1 L8I      0.310700
     37 H26        -0.8060    0.0550    8.2710 hc        1 L8I      0.072200
     38 H26A       -0.5980   -1.4870    7.3550 hc        1 L8I      0.072200
     39 H29        -1.9860   -0.1890    5.9410 hc        1 L8I      0.057200
     40 H29A       -1.1240    1.3570    6.3150 hc        1 L8I      0.057200
     41 HN33        2.8980   -0.5150   11.6440 hn        1 L8I      0.318500
     42 H35         4.2740    1.1980   10.3660 h1        1 L8I      0.041700
     43 H35A        5.0810   -0.3810   10.7930 h1        1 L8I      0.041700
     44 H39         6.1970    1.3850    9.0040 h1        1 L8I      0.063950
     45 H39A        5.4950    1.4170    7.3210 h1        1 L8I      0.063950
     46 H43         5.8320   -1.9160    9.2740 h1        1 L8I      0.063950
     47 H43A        5.1020   -2.0530    7.6040 h1        1 L8I      0.063950
     48 H46         8.4600    0.2820    7.8320 h1        1 L8I      0.038367
     49 H46A        7.9150   -0.4500    9.4100 h1        1 L8I      0.038367
     50 H46B        8.2600   -1.5270    7.9810 h1        1 L8I      0.038367
@<TRIPOS>BOND
     1    1    2 1   
     2    2    3 ar  
     3    2    7 ar  
     4    3    4 ar  
     5    3    8 1   
     6    4    5 ar  
     7    4   30 1   
     8    5    6 ar  
     9    5   31 1   
    10    6    7 ar  
    11    6   32 1   
    12    7   33 1   
    13    8    9 ar  
    14    8   13 ar  
    15    9   10 ar  
    16   10   11 ar  
    17   10   34 1   
    18   11   12 ar  
    19   11   20 1   
    20   12   13 ar  
    21   12   14 1   
    22   13   35 1   
    23   14   15 1   
    24   14   18 2   
    25   15   16 1   
    26   15   36 1   
    27   16   17 2   
    28   16   24 1   
    29   17   18 1   
    30   17   21 1   
    31   18   19 1   
    32   19   20 1   
    33   19   37 1   
    34   19   38 1   
    35   20   39 1   
    36   20   40 1   
    37   21   22 1   
    38   21   29 2   
    39   22   23 1   
    40   22   41 1   
    41   23   24 1   
    42   23   42 1   
    43   23   43 1   
    44   24   25 1   
    45   24   27 1   
    46   25   26 1   
    47   25   44 1   
    48   25   45 1   
    49   26   27 1   
    50   26   28 1   
    51   27   46 1   
    52   27   47 1   
    53   28   48 1   
    54   28   49 1   
    55   28   50 1   
@<TRIPOS>SUBSTRUCTURE
     1 L8I         1 TEMP              0 ****  ****    0 ROOT
