@<TRIPOS>MOLECULE
L8P
   31    29     1     0     0
SMALL
bcc


@<TRIPOS>ATOM
      1 P          -0.3420    0.6460   -0.5060 p5        1 L8P      2.009000
      2 N1         -1.4890    1.7110    5.7600 n2        1 L8P      0.037000
      3 C2          2.1630   -0.1640    5.7720 c1        1 L8P      0.206000
      4 O2          3.2210   -0.0280    6.3540 o         1 L8P     -0.322000
      5 N3          1.3130   -0.8830    5.1860 n2        1 L8P     -0.187000
      6 C4          0.1610   -0.7110    4.5100 c2        1 L8P     -0.481000
      7 N4          0.1930   -0.2780    3.1170 nz        1 L8P      0.055000
      8 C5         -1.1710   -0.7540    5.1650 c3        1 L8P      0.062000
      9 C6         -1.6740    0.5270    5.6540 c1        1 L8P     -0.193000
     10 C1'        -1.5440    2.9720    6.0090 c2        1 L8P     -0.361000
     11 C2'         2.9390   -0.6320    0.8230 c2        1 L8P     -0.146000
     12 C3'         3.6220   -1.7460    1.1420 c2        1 L8P     -0.077000
     13 O3'         3.1060   -3.0190    1.0950 oh        1 L8P     -0.273000
     14 C4'         1.2320    0.0030   -0.6640 cx        1 L8P     -0.528000
     15 O4'         1.6000   -0.7460    0.4650 os        1 L8P     -0.249000
     16 OP1        -1.0500    0.9530   -1.7480 o         1 L8P     -0.824000
     17 OP2         1.1500    1.3720   -0.2860 os        1 L8P     -0.727000
     18 H5         -1.9560   -1.1600    4.4660 hc        1 L8P      0.111000
     19 H6         -1.1270   -1.4410    6.0580 hc        1 L8P      0.111000
     20 H1'        -1.1120    3.3660    6.9360 h4        1 L8P      0.133000
     21 H3'         4.6510   -1.7610    1.5250 h4        1 L8P      0.159000
     22 H4'         3.0420    2.5660    0.2460 ha        1 L8P      0.000000
     23 H1'A        3.3460    0.3880    0.8230 h4        1 L8P      0.161000
     24 H2'        -2.0050    3.6540    5.2850 h4        1 L8P      0.133000
     25 H3'A        3.6620    2.7460    0.4570 ha        1 L8P      0.000000
     26 H4'A        1.8720   -0.1810   -1.5410 h2        1 L8P      0.112000
     27 HN4         0.3470    0.7290    3.0250 hn        1 L8P      0.227333
     28 HN4A        0.9300   -0.7530    2.5900 hn        1 L8P      0.227333
     29 O6         -0.9940    0.3620    0.7840 o         1 L8P     -0.824000
     30 H12         2.2160   -2.9680    0.7140 ho        1 L8P      0.221000
     31 H43        -0.7080   -0.4900    2.6670 hn        1 L8P      0.227333
@<TRIPOS>BOND
     1    1   14 1   
     2    1   16 1   
     3    1   17 1   
     4    1   29 1   
     5    2    9 1   
     6    2   10 1   
     7    3    4 1   
     8    3    5 1   
     9    5    6 1   
    10    6    7 1   
    11    6    8 1   
    12    7   27 1   
    13    7   28 1   
    14    7   31 1   
    15    8    9 1   
    16    8   18 1   
    17    8   19 1   
    18   10   20 1   
    19   10   24 1   
    20   11   12 1   
    21   11   15 1   
    22   11   23 1   
    23   12   13 1   
    24   12   21 1   
    25   13   30 1   
    26   14   15 1   
    27   14   17 1   
    28   14   26 1   
    29   22   25 1   
@<TRIPOS>SUBSTRUCTURE
     1 L8P         1 TEMP              0 ****  ****    0 ROOT
