@<TRIPOS>MOLECULE
L8P
   30    28     1     0     0
SMALL
bcc


@<TRIPOS>ATOM
      1 P          -3.7480    0.3410   -2.7770 p3        1 L8P      2.620000
      2 N1          0.8410    0.6070    1.0240 n         1 L8P     -0.219000
      3 C2          1.5140   -0.0030    2.1790 c2        1 L8P      0.295000
      4 O2          0.8680   -0.3960    3.1160 o         1 L8P     -0.468000
      5 N3          2.9740   -0.1200    2.1970 n2        1 L8P     -0.378000
      6 C4          3.7600    0.5520    1.2030 c1        1 L8P      0.133000
      7 N4          5.1820    0.6570    1.3640 n2        1 L8P     -0.321000
      8 C5          3.0920    1.2320    0.0750 c2        1 L8P     -0.437000
      9 C6          1.6110    1.2850    0.0230 c2        1 L8P     -0.169000
     10 C1'        -0.5870    0.6290    0.9620 c3        1 L8P     -0.019000
     11 C2'        -1.0560   -0.4180    0.0060 c3        1 L8P     -0.018000
     12 C3'        -1.3630   -1.7040    0.7700 c3        1 L8P     -0.015000
     13 O3'        -1.9920   -2.6310   -0.0970 oh        1 L8P     -0.367000
     14 C4'        -2.1540   -0.0920   -2.0640 c2        1 L8P     -0.658000
     15 O4'        -2.2170    0.0260   -0.6480 os        1 L8P     -0.279000
     16 OP1        -3.6650    0.2560   -4.3000 o         1 L8P     -1.063333
     17 OP2        -4.1170    1.7520   -2.3690 o         1 L8P     -1.063333
     18 H5          3.6260    1.6930   -0.6070 ha        1 L8P      0.108000
     19 H6          1.1720    1.6700   -0.7390 h4        1 L8P      0.220000
     20 H1'        -0.9640    0.4470    1.8710 h1        1 L8P      0.094500
     21 H3'        -0.5300   -2.0880    1.1080 h1        1 L8P      0.079000
     22 H4'        -1.9310   -1.0090   -2.3030 h4        1 L8P      0.082000
     23 H1'A       -0.8880    1.5150    0.6510 h1        1 L8P      0.094500
     24 H2'        -0.3440   -0.5940   -0.6670 h1        1 L8P      0.120000
     25 H3'A       -1.9570   -1.5050    1.5180 h1        1 L8P      0.079000
     26 H4'A       -1.4790    0.5010   -2.4050 h4        1 L8P      0.082000
     27 HN4         5.5740    0.4470    2.1830 hn        1 L8P      0.148000
     28 HN4A        5.7060    0.9640    0.6660 hn        1 L8P      0.148000
     29 O6         -4.7950   -0.6140   -2.2790 o         1 L8P     -1.063333
     30 H12        -2.1320   -3.4000    0.3400 ho        1 L8P      0.236000
@<TRIPOS>BOND
     1    1   16 1   
     2    1   17 1   
     3    1   29 1   
     4    2    3 1   
     5    2    9 1   
     6    2   10 1   
     7    3    4 1   
     8    3    5 1   
     9    5    6 1   
    10    6    8 1   
    11    7   27 1   
    12    7   28 1   
    13    8    9 1   
    14    8   18 1   
    15    9   19 1   
    16   10   11 1   
    17   10   20 1   
    18   10   23 1   
    19   11   12 1   
    20   11   15 1   
    21   11   24 1   
    22   12   13 1   
    23   12   21 1   
    24   12   25 1   
    25   13   30 1   
    26   14   15 1   
    27   14   22 1   
    28   14   26 1   
@<TRIPOS>SUBSTRUCTURE
     1 L8P         1 TEMP              0 ****  ****    0 ROOT
