@<TRIPOS>MOLECULE
L8P
   30    27     1     0     0
SMALL
bcc


@<TRIPOS>ATOM
      1 P        -863.6010 -204.4770-1190.4680 p5        1 L8P      1.940000
      2 N1        313.9630   74.0630  436.9700 n         1 L8P     -0.154000
      3 C2        312.6210   73.5630  436.6060 c2        1 L8P      0.265000
      4 O2        311.9580   72.9760  437.4950 o         1 L8P     -0.390000
      5 N3        312.1040   73.7210  435.3180 n2        1 L8P     -0.359000
      6 C4        312.8580   74.3790  434.4120 c2        1 L8P      0.204000
      7 N4        312.3230   74.6270  433.1430 n3        1 L8P     -0.346000
      8 C5        314.1820   74.8740  434.7200 c2        1 L8P     -0.422000
      9 C6        314.7120   74.7120  435.9760 c1        1 L8P     -0.143000
     10 C1'       314.4550   73.9100  438.1900 c1        1 L8P     -0.095000
     11 C2'       318.6080   75.6130  438.4270 c2        1 L8P     -0.425000
     12 C3'       317.4320   75.2970  437.8540 c2        1 L8P      0.040000
     13 O3'       317.1960   75.5960  436.5540 oh        1 L8P     -0.371000
     14 C4'      -862.5850 -205.6900-1189.8050 c2        1 L8P     -0.408000
     15 O4'      -862.1740 -206.6510-1190.4670 o         1 L8P     -0.298000
     16 OP1      -862.7900 -203.6090-1191.3440 o         1 L8P     -0.836500
     17 OP2      -864.9300 -205.0470-1190.7860 o         1 L8P     -0.836500
     18 H5       -864.8750 -203.6920-1188.8790 ho        1 L8P      0.224000
     19 H6        314.7720   75.3950  433.9600 ha        1 L8P      0.131000
     20 H1'       319.0190   76.6210  435.6570 ha        1 L8P      0.000000
     21 H3'       316.6050   74.7860  438.3910 h4        1 L8P      0.154000
     22 H4'       319.4110   76.1170  437.8820 ha        1 L8P      0.092500
     23 H1'A      313.7760   73.3830  438.9020 ha        1 L8P      0.034000
     24 H2'       319.4960   76.9270  435.2830 ha        1 L8P      0.000000
     25 H3'A      318.8060   75.3760  439.4740 ha        1 L8P      0.092500
     26 H4'A     -862.2740 -205.6090-1188.7350 h4        1 L8P      0.045000
     27 HN4       311.5260   74.0980  432.8730 hn        1 L8P      0.190500
     28 HN4A      313.0050   74.7490  432.4320 hn        1 L8P      0.190500
     29 O6       -863.9470 -203.6570-1189.0810 oh        1 L8P     -0.830000
     30 H12       316.2430   75.2680  436.3180 ho        1 L8P      0.312000
@<TRIPOS>BOND
     1    1   14 1   
     2    1   16 1   
     3    1   17 1   
     4    1   29 1   
     5    2    3 1   
     6    2    9 1   
     7    2   10 1   
     8    3    4 1   
     9    3    5 1   
    10    5    6 1   
    11    6    7 1   
    12    6    8 1   
    13    7   27 1   
    14    7   28 1   
    15    8    9 1   
    16    8   19 1   
    17   10   23 1   
    18   11   12 1   
    19   11   22 1   
    20   11   25 1   
    21   12   13 1   
    22   12   21 1   
    23   13   30 1   
    24   14   15 1   
    25   14   26 1   
    26   18   29 1   
    27   20   24 1   
@<TRIPOS>SUBSTRUCTURE
     1 L8P         1 TEMP              0 ****  ****    0 ROOT
