@<TRIPOS>MOLECULE
L8P
   30    30     1     0     0
SMALL
bcc


@<TRIPOS>ATOM
      1 P           3.8270    2.0310   -0.6060 p5        1 L8P      1.340600
      2 N1         -1.4420   -1.0920   -0.0230 n         1 L8P     -0.319400
      3 C2         -2.5920   -1.1970   -0.8840 c         1 L8P      0.741500
      4 O2         -2.4610   -0.9320   -2.1130 o         1 L8P     -0.702100
      5 N3         -3.8290   -1.5720   -0.3600 ne        1 L8P     -0.804100
      6 C4         -3.8890   -1.8680    0.9670 cf        1 L8P      0.658500
      7 N4         -5.1330   -2.3210    1.4990 nh        1 L8P     -0.882800
      8 C5         -2.7640   -1.7730    1.8250 cf        1 L8P     -0.584700
      9 C6         -1.5200   -1.3740    1.3010 c1        1 L8P     -0.120900
     10 C1'        -0.1900   -0.6780   -0.6210 c3        1 L8P      0.117000
     11 C2'         0.8780   -0.2310    0.3950 c3        1 L8P      0.112100
     12 C3'         1.5850   -1.4290    1.0330 c3        1 L8P      0.116400
     13 O3'         2.4530   -2.1000    0.1420 oh        1 L8P     -0.632800
     14 C4'         2.5830    1.4370    0.4340 c3        1 L8P     -0.102800
     15 O4'         1.8300    0.5370   -0.3560 os        1 L8P     -0.419600
     16 OP1         4.3050    3.3170   -0.0460 o         1 L8P     -0.868000
     17 OP2         4.7420    0.9190   -0.9560 o         1 L8P     -0.868000
     18 H5         -2.8290   -2.0150    2.8880 ha        1 L8P      0.107000
     19 H6          2.6970    1.5640   -2.4120 ho        1 L8P      0.425000
     20 H1'         0.2280   -1.5350   -1.2220 h1        1 L8P      0.053700
     21 H3'         2.1760   -1.0830    1.9250 h1        1 L8P      0.045700
     22 H4'         3.0220    0.9130    1.3180 h1        1 L8P      0.037200
     23 H1'A       -0.3950    0.1730   -1.3330 h1        1 L8P      0.053700
     24 H2'         0.4180    0.3990    1.2030 h1        1 L8P      0.063700
     25 H3'A        0.8210   -2.1870    1.3550 h1        1 L8P      0.045700
     26 H4'A        1.9220    2.2530    0.8170 h1        1 L8P      0.037200
     27 HN4        -5.9170   -2.1190    0.9120 hn        1 L8P      0.351800
     28 HN4A       -5.2740   -1.9510    2.4150 hn        1 L8P      0.351800
     29 O6          3.0040    2.3550   -1.9850 oh        1 L8P     -0.782400
     30 H12         2.9620   -1.4210   -0.3270 ho        1 L8P      0.427000
@<TRIPOS>BOND
     1    1   14 1   
     2    1   16 1   
     3    1   17 1   
     4    1   29 1   
     5    2    3 1   
     6    2    9 2   
     7    2   10 1   
     8    3    4 2   
     9    3    5 1   
    10    5    6 2   
    11    6    7 1   
    12    6    8 1   
    13    7   27 1   
    14    7   28 1   
    15    8    9 2   
    16    8   18 1   
    17   10   11 1   
    18   10   20 1   
    19   10   23 1   
    20   11   12 1   
    21   11   15 1   
    22   11   24 1   
    23   12   13 1   
    24   12   21 1   
    25   12   25 1   
    26   13   30 1   
    27   14   15 1   
    28   14   22 1   
    29   14   26 1   
    30   19   29 1   
@<TRIPOS>SUBSTRUCTURE
     1 L8P         1 TEMP              0 ****  ****    0 ROOT
