@<TRIPOS>MOLECULE
L8V
   49    52     1     0     0
SMALL
bcc


@<TRIPOS>ATOM
      1 N1         -7.8190    2.0000   -1.2600 nb        1 L8V     -0.742000
      2 C2         -6.5660    1.5960   -1.6570 ca        1 L8V      0.657200
      3 C3         -5.6250    1.0450   -0.7360 ca        1 L8V     -0.366300
      4 C4         -5.9970    0.9470    0.6040 ca        1 L8V      0.184100
      5 O5         -5.1940    0.4170    1.6040 os        1 L8V     -0.231200
      6 C6         -3.8750    0.1340    1.2610 ca        1 L8V      0.032100
      7 C7         -2.9590    1.1510    0.9740 ca        1 L8V     -0.103000
      8 C8         -1.6220    0.8470    0.7670 ca        1 L8V     -0.165000
      9 C9         -1.1650   -0.4920    0.8520 ca        1 L8V      0.180600
     10 C10        -2.0810   -1.5130    1.1630 ca        1 L8V     -0.160000
     11 C11        -3.4400   -1.2060    1.3510 ca        1 L8V      0.146900
     12 F12        -4.3140   -2.1960    1.6400 f         1 L8V     -0.120900
     13 N13         0.2080   -0.7360    0.6700 nh        1 L8V     -0.752300
     14 C14         0.7670   -1.7900   -0.0330 ca        1 L8V      0.731200
     15 C15         2.1980   -1.8830   -0.1620 ca        1 L8V     -0.345900
     16 C16         2.7400   -2.9740   -0.8550 ca        1 L8V     -0.024000
     17 C17         1.9010   -3.9190   -1.4310 ca        1 L8V     -0.311300
     18 C18         0.5110   -3.7330   -1.2940 ca        1 L8V      0.471200
     19 N19        -0.0550   -2.7240   -0.6300 nb        1 L8V     -0.729000
     20 C20         3.0970   -0.8650    0.4430 c         1 L8V      0.697700
     21 O21         2.9050   -0.3980    1.5840 o         1 L8V     -0.607100
     22 N22         4.1660   -0.4630   -0.3490 n         1 L8V     -0.462100
     23 C23         5.1500    0.4820   -0.0190 ca        1 L8V      0.025600
     24 C24         5.3870    0.9260    1.2980 ca        1 L8V     -0.111000
     25 C25         6.3830    1.8510    1.5790 ca        1 L8V     -0.152000
     26 C26         7.1870    2.3630    0.5460 ca        1 L8V      0.125900
     27 C27         6.9870    1.9410   -0.7770 ca        1 L8V     -0.177000
     28 C28         5.9780    1.0120   -1.0590 ca        1 L8V      0.092900
     29 F29         8.1580    3.2640    0.8240 f         1 L8V     -0.133900
     30 C30        -8.1230    1.8850    0.0410 ca        1 L8V      0.456200
     31 C31        -7.2690    1.3730    1.0270 ca        1 L8V     -0.313300
     32 F32         5.8010    0.6120   -2.3450 f         1 L8V     -0.142900
     33 N33        -6.1760    1.7940   -2.9870 nh        1 L8V     -0.928500
     34 H3         -4.6320    0.7150   -1.0700 ha        1 L8V      0.154000
     35 H7         -3.3140    2.1910    0.9080 ha        1 L8V      0.159000
     36 H8         -0.9170    1.6620    0.5410 ha        1 L8V      0.146000
     37 H10        -1.7660   -2.5630    1.2640 ha        1 L8V      0.173000
     38 HN13        0.8330   -0.0880    1.1050 hn        1 L8V      0.475800
     39 H16         3.8320   -3.0950   -0.9320 ha        1 L8V      0.144000
     40 H17         2.2990   -4.7850   -1.9740 ha        1 L8V      0.153000
     41 H18        -0.2010   -4.4500   -1.7470 h4        1 L8V      0.030100
     42 HN22        4.1960   -0.8010   -1.2870 hn        1 L8V      0.331500
     43 H24         4.7710    0.5400    2.1300 ha        1 L8V      0.183000
     44 H25         6.5490    2.1860    2.6140 ha        1 L8V      0.158000
     45 H27         7.6130    2.3350   -1.5900 ha        1 L8V      0.167000
     46 H30        -9.1390    2.2300    0.3120 h4        1 L8V      0.024100
     47 H31        -7.5720    1.2960    2.0770 ha        1 L8V      0.161000
     48 HN33       -6.9040    1.9950   -3.6350 hn        1 L8V      0.407800
     49 HN3A       -5.4990    1.1430   -3.3140 hn        1 L8V      0.407800
@<TRIPOS>BOND
     1    1    2 ar  
     2    1   30 ar  
     3    2    3 ar  
     4    2   33 1   
     5    3    4 ar  
     6    3   34 1   
     7    4    5 1   
     8    4   31 ar  
     9    5    6 1   
    10    6    7 ar  
    11    6   11 ar  
    12    7    8 ar  
    13    7   35 1   
    14    8    9 ar  
    15    8   36 1   
    16    9   10 ar  
    17    9   13 1   
    18   10   11 ar  
    19   10   37 1   
    20   11   12 1   
    21   13   14 1   
    22   13   38 1   
    23   14   15 ar  
    24   14   19 ar  
    25   15   16 ar  
    26   15   20 1   
    27   16   17 ar  
    28   16   39 1   
    29   17   18 ar  
    30   17   40 1   
    31   18   19 ar  
    32   18   41 1   
    33   20   21 2   
    34   20   22 1   
    35   22   23 1   
    36   22   42 1   
    37   23   24 ar  
    38   23   28 ar  
    39   24   25 ar  
    40   24   43 1   
    41   25   26 ar  
    42   25   44 1   
    43   26   27 ar  
    44   26   29 1   
    45   27   28 ar  
    46   27   45 1   
    47   28   32 1   
    48   30   31 ar  
    49   30   46 1   
    50   31   47 1   
    51   33   48 1   
    52   33   49 1   
@<TRIPOS>SUBSTRUCTURE
     1 L8V         1 TEMP              0 ****  ****    0 ROOT
