@<TRIPOS>MOLECULE
L8V
   52    55     1     0     0
SMALL
bcc


@<TRIPOS>ATOM
      1 N1         -0.5660   -1.1470    0.4880 nb        1 L8V     -0.644000
      2 C2          0.5720   -1.9020    0.5620 ca        1 L8V      0.482200
      3 C3          1.8010   -1.4430    1.0630 ca        1 L8V     -0.212300
      4 C4          1.8330   -0.0990    1.5100 ca        1 L8V      0.166100
      5 O5          3.0800    0.3060    1.9650 os        1 L8V     -0.218200
      6 C6          3.1910    1.5550    2.5670 ca        1 L8V      0.088100
      7 C7          3.7150    2.6190    1.8270 ca        1 L8V     -0.072000
      8 C8          4.0590    3.8130    2.4610 ca        1 L8V     -0.087000
      9 C9          3.8640    3.9370    3.8470 ca        1 L8V     -0.001400
     10 C10         3.3350    2.8840    4.6100 ca        1 L8V     -0.140000
     11 C11         2.9890    1.6810    3.9660 ca        1 L8V      0.171900
     12 F12         2.4840    0.6630    4.6850 f         1 L8V     -0.078900
     13 N13         4.2100    5.2010    4.5210 n4        1 L8V     -0.625100
     14 C14         5.6320    5.3380    4.9500 ca        1 L8V      0.547200
     15 C15         6.0280    6.3840    5.8490 ca        1 L8V     -0.281900
     16 C16         7.3990    6.4510    6.1680 ca        1 L8V     -0.032000
     17 C17         8.2950    5.5250    5.6380 ca        1 L8V     -0.178300
     18 C18         7.8000    4.5300    4.7710 ca        1 L8V      0.506200
     19 N19         6.5000    4.4400    4.4330 nb        1 L8V     -0.627000
     20 C20         5.0520    7.3400    6.3860 c         1 L8V      0.577700
     21 O21         3.8720    7.4170    6.0370 o         1 L8V     -0.480100
     22 N22         5.4480    8.3000    7.4750 n4        1 L8V     -0.503200
     23 C23         5.8640    9.6050    6.9550 ca        1 L8V     -0.173400
     24 C24         4.9200   10.4480    6.3320 ca        1 L8V     -0.043000
     25 C25         5.2850   11.7140    5.9120 ca        1 L8V     -0.156000
     26 C26         6.6080   12.1780    6.1130 ca        1 L8V      0.261900
     27 C27         7.5640   11.3500    6.7380 ca        1 L8V     -0.181000
     28 C28         7.1950   10.0690    7.1590 ca        1 L8V      0.194900
     29 F29         6.9550   13.4070    5.7100 f         1 L8V     -0.054900
     30 C30        -0.4880    0.1150    0.9240 ca        1 L8V      0.481200
     31 C31         0.6910    0.6970    1.4470 ca        1 L8V     -0.260300
     32 F32         8.0970    9.2660    7.7690 f         1 L8V     -0.120900
     33 N33         0.4600   -3.2950    0.0740 n4        1 L8V     -0.821300
     34 H3          2.7130   -2.0590    1.1210 ha        1 L8V      0.195000
     35 H7          3.8820    2.5030    0.7400 ha        1 L8V      0.200000
     36 H8          4.4900    4.6310    1.8580 ha        1 L8V      0.178000
     37 H10         3.1840    2.9540    5.7010 ha        1 L8V      0.183000
     38 HN13        3.6110    5.3050    5.3570 hn        1 L8V      0.481300
     39 H16         7.8060    7.2410    6.8270 ha        1 L8V      0.184000
     40 H17         9.3730    5.5660    5.8840 ha        1 L8V      0.221000
     41 H18         8.4650    3.7610    4.3140 h4        1 L8V      0.101100
     42 HN22        6.2050    7.9040    8.0510 hn        1 L8V      0.487300
     43 H24         3.8790   10.1090    6.1810 ha        1 L8V      0.175000
     44 H25         4.5460   12.3810    5.4290 ha        1 L8V      0.208000
     45 H27         8.5950   11.7150    6.9080 ha        1 L8V      0.220000
     46 H30        -1.4300    0.7000    0.8480 h4        1 L8V      0.083100
     47 H31         0.6860    1.7420    1.7860 ha        1 L8V      0.176000
     48 HN33       -0.2590   -3.7980    0.6150 hn        1 L8V      0.483800
     49 HN3A        1.3630   -3.7710    0.1770 hn        1 L8V      0.483800
     50 H132        4.0070    5.9860    3.8790 hn        1 L8V      0.481300
     51 H222        4.6180    8.4580    8.0780 hn        1 L8V      0.487300
     52 H333        0.1810   -3.2950   -0.9190 hn        1 L8V      0.483800
@<TRIPOS>BOND
     1    1    2 ar  
     2    1   30 ar  
     3    2    3 ar  
     4    2   33 1   
     5    3    4 ar  
     6    3   34 1   
     7    4    5 1   
     8    4   31 ar  
     9    5    6 1   
    10    6    7 ar  
    11    6   11 ar  
    12    7    8 ar  
    13    7   35 1   
    14    8    9 ar  
    15    8   36 1   
    16    9   10 ar  
    17    9   13 1   
    18   10   11 ar  
    19   10   37 1   
    20   11   12 1   
    21   13   14 1   
    22   13   38 1   
    23   13   50 1   
    24   14   15 ar  
    25   14   19 ar  
    26   15   16 ar  
    27   15   20 1   
    28   16   17 ar  
    29   16   39 1   
    30   17   18 ar  
    31   17   40 1   
    32   18   19 ar  
    33   18   41 1   
    34   20   21 2   
    35   20   22 1   
    36   22   23 1   
    37   22   42 1   
    38   22   51 1   
    39   23   24 ar  
    40   23   28 ar  
    41   24   25 ar  
    42   24   43 1   
    43   25   26 ar  
    44   25   44 1   
    45   26   27 ar  
    46   26   29 1   
    47   27   28 ar  
    48   27   45 1   
    49   28   32 1   
    50   30   31 ar  
    51   30   46 1   
    52   31   47 1   
    53   33   48 1   
    54   33   49 1   
    55   33   52 1   
@<TRIPOS>SUBSTRUCTURE
     1 L8V         1 TEMP              0 ****  ****    0 ROOT
