@<TRIPOS>MOLECULE
L8V
   49    52     1     0     0
SMALL
bcc


@<TRIPOS>ATOM
      1 N1          0.9160   -1.1810   -0.1220 nb        1 L8V     -0.742000
      2 C2          1.9470   -0.3510    0.2520 ca        1 L8V      0.657200
      3 C3          1.9480    0.3320    1.5070 ca        1 L8V     -0.366300
      4 C4          0.8500    0.1590    2.3490 ca        1 L8V      0.184100
      5 O5          0.7240    0.7450    3.6010 os        1 L8V     -0.231200
      6 C6          1.6790    1.6980    3.9440 ca        1 L8V      0.033100
      7 C7          1.7410    2.9360    3.2960 ca        1 L8V     -0.104000
      8 C8          2.6120    3.9160    3.7480 ca        1 L8V     -0.165000
      9 C9          3.4420    3.6800    4.8730 ca        1 L8V      0.180600
     10 C10         3.3640    2.4440    5.5380 ca        1 L8V     -0.159000
     11 C11         2.4960    1.4440    5.0670 ca        1 L8V      0.146900
     12 F12         2.4350    0.2550    5.7070 f         1 L8V     -0.120900
     13 N13         4.2790    4.7240    5.3080 nh        1 L8V     -0.752300
     14 C14         5.5870    4.5970    5.7460 ca        1 L8V      0.731200
     15 C15         6.3300    5.7710    6.1250 ca        1 L8V     -0.345900
     16 C16         7.6410    5.6130    6.5900 ca        1 L8V     -0.024000
     17 C17         8.2140    4.3490    6.6440 ca        1 L8V     -0.311300
     18 C18         7.4340    3.2560    6.2160 ca        1 L8V      0.471200
     19 N19         6.1760    3.3490    5.7830 nb        1 L8V     -0.729000
     20 C20         5.7230    7.1260    6.0540 c         1 L8V      0.697700
     21 O21         4.5510    7.3530    6.4180 o         1 L8V     -0.607100
     22 N22         6.5460    8.1270    5.5510 n         1 L8V     -0.462100
     23 C23         6.2170    9.4790    5.3760 ca        1 L8V      0.025600
     24 C24         5.1060   10.0920    5.9910 ca        1 L8V     -0.111000
     25 C25         4.8300   11.4390    5.8010 ca        1 L8V     -0.152000
     26 C26         5.6640   12.2270    4.9900 ca        1 L8V      0.125900
     27 C27         6.7830   11.6560    4.3660 ca        1 L8V     -0.177000
     28 C28         7.0570   10.2960    4.5540 ca        1 L8V      0.092900
     29 F29         5.3910   13.5410    4.8080 f         1 L8V     -0.133900
     30 C30        -0.1150   -1.3080    0.7270 ca        1 L8V      0.456200
     31 C31        -0.2180   -0.6730    1.9720 ca        1 L8V     -0.313300
     32 F32         8.1470    9.7610    3.9460 f         1 L8V     -0.142900
     33 N33         2.9910   -0.1130   -0.6490 nh        1 L8V     -0.928500
     34 H3          2.7840    0.9820    1.7970 ha        1 L8V      0.154000
     35 H7          1.0960    3.1190    2.4230 ha        1 L8V      0.159000
     36 H8          2.6470    4.8840    3.2240 ha        1 L8V      0.146000
     37 H10         3.9710    2.2260    6.4310 ha        1 L8V      0.173000
     38 HN13        3.8780    5.6390    5.3110 hn        1 L8V      0.475800
     39 H16         8.2190    6.4880    6.9280 ha        1 L8V      0.144000
     40 H17         9.2370    4.1970    7.0090 ha        1 L8V      0.153000
     41 H18         7.8480    2.2300    6.2260 h4        1 L8V      0.030100
     42 HN22        7.4320    7.8500    5.1830 hn        1 L8V      0.331500
     43 H24         4.4340    9.4980    6.6350 ha        1 L8V      0.183000
     44 H25         3.9550   11.8960    6.2880 ha        1 L8V      0.158000
     45 H27         7.4420   12.2660    3.7310 ha        1 L8V      0.167000
     46 H30        -0.9220   -1.9810    0.3790 h4        1 L8V      0.024100
     47 H31        -1.0830   -0.8180    2.6290 ha        1 L8V      0.161000
     48 HN33        3.8590    0.1100   -0.2170 hn        1 L8V      0.407800
     49 HN3A        3.0620   -0.7400   -1.4190 hn        1 L8V      0.407800
@<TRIPOS>BOND
     1    1    2 ar  
     2    1   30 ar  
     3    2    3 ar  
     4    2   33 1   
     5    3    4 ar  
     6    3   34 1   
     7    4    5 1   
     8    4   31 ar  
     9    5    6 1   
    10    6    7 ar  
    11    6   11 ar  
    12    7    8 ar  
    13    7   35 1   
    14    8    9 ar  
    15    8   36 1   
    16    9   10 ar  
    17    9   13 1   
    18   10   11 ar  
    19   10   37 1   
    20   11   12 1   
    21   13   14 1   
    22   13   38 1   
    23   14   15 ar  
    24   14   19 ar  
    25   15   16 ar  
    26   15   20 1   
    27   16   17 ar  
    28   16   39 1   
    29   17   18 ar  
    30   17   40 1   
    31   18   19 ar  
    32   18   41 1   
    33   20   21 2   
    34   20   22 1   
    35   22   23 1   
    36   22   42 1   
    37   23   24 ar  
    38   23   28 ar  
    39   24   25 ar  
    40   24   43 1   
    41   25   26 ar  
    42   25   44 1   
    43   26   27 ar  
    44   26   29 1   
    45   27   28 ar  
    46   27   45 1   
    47   28   32 1   
    48   30   31 ar  
    49   30   46 1   
    50   31   47 1   
    51   33   48 1   
    52   33   49 1   
@<TRIPOS>SUBSTRUCTURE
     1 L8V         1 TEMP              0 ****  ****    0 ROOT
