@<TRIPOS>MOLECULE
L8V
   49    43     1     0     0
SMALL
bcc


@<TRIPOS>ATOM
      1 N1          0.3560   -7.3330   -1.4460 n1        1 L8V     -0.218000
      2 C2         -0.7200   -6.9270   -0.7070 c1        1 L8V      0.141000
      3 C3         -1.4280   -5.8010   -1.0780 c1        1 L8V     -0.303000
      4 C4         -1.0530   -5.0920   -2.1860 c1        1 L8V      0.141000
      5 O5         -1.8330   -3.9900   -2.6190 os        1 L8V     -0.143000
      6 C6         -1.2540   -2.7860   -2.1470 c2        1 L8V     -0.016000
      7 C7         -1.7610   -2.1720   -1.0050 c2        1 L8V     -0.099000
      8 C8         -1.2430   -0.9530   -0.5830 c1        1 L8V     -0.175000
      9 C9         -0.2290   -0.3500   -1.2960 c1        1 L8V      0.087000
     10 C10         0.2790   -0.9640   -2.4410 c1        1 L8V     -0.155000
     11 C11        -0.2370   -2.1830   -2.8630 c1        1 L8V      0.115000
     12 F12         0.1480   -2.7000   -4.0440 f         1 L8V     -0.085000
     13 N13         0.2980    0.9210   -0.8650 n3        1 L8V     -0.251000
     14 C14         1.4490    0.9660   -0.0460 c2        1 L8V      0.178000
     15 C15         1.6520    2.0510    0.8200 c2        1 L8V     -0.239000
     16 C16         2.8020    2.1400    1.5380 c1        1 L8V     -0.030000
     17 C17         3.7590    1.1730    1.4140 c1        1 L8V     -0.119500
     18 C18         3.5550    0.0970    0.5530 c1        1 L8V     -0.119500
     19 N19         2.4010    0.0090   -0.1660 n1        1 L8V     -0.192000
     20 C20         0.5370    3.0900    1.0240 c2        1 L8V      0.367000
     21 O21        -0.5140    2.9710    0.4370 o         1 L8V     -0.352000
     22 N22         0.7740    4.2440    1.8390 n         1 L8V     -0.325000
     23 C23        -0.2340    5.2590    1.9590 c2        1 L8V      0.008000
     24 C24        -0.1430    6.4150    1.2040 c2        1 L8V     -0.113000
     25 C25        -1.0630    7.4360    1.3860 c1        1 L8V     -0.166000
     26 C26        -2.0760    7.2990    2.3240 c1        1 L8V      0.110000
     27 C27        -2.1680    6.1410    3.0800 c1        1 L8V     -0.196000
     28 C28        -1.2500    5.1210    2.9000 c1        1 L8V      0.129000
     29 F29        -3.0020    8.2490    2.4470 f         1 L8V     -0.097000
     30 C30         0.7300   -6.6300   -2.5480 c1        1 L8V     -0.009000
     31 C31         0.0210   -5.4980   -2.9230 c1        1 L8V     -0.251000
     32 F32        -1.2530    4.0620    3.7310 f         1 L8V     -0.082000
     33 N33        -1.1280   -7.6790    0.4190 n3        1 L8V     -0.330000
     34 H3         -2.1900   -5.5140   -0.5530 ha        1 L8V      0.154000
     35 H7         -2.4740   -2.5950   -0.5030 ha        1 L8V      0.155000
     36 H8         -1.5960   -0.5260    0.2120 ha        1 L8V      0.148000
     37 H10         1.0070   -0.5320   -2.9520 ha        1 L8V      0.169000
     38 HN13       -0.1540    1.6820   -1.0490 hn        1 L8V      0.257000
     39 H16         2.9450    2.8980    2.1440 ha        1 L8V      0.148000
     40 H17         4.5860    1.2350    1.9290 ha        1 L8V      0.160500
     41 H18         4.2370   -0.5930    0.4640 ha        1 L8V      0.160500
     42 HN22        1.5440    4.3170    2.3030 hn        1 L8V      0.237000
     43 H24         0.5640    6.5110    0.5490 ha        1 L8V      0.145000
     44 H25        -0.9970    8.2610    0.8470 ha        1 L8V      0.156000
     45 H27        -2.8900    6.0430    3.7480 ha        1 L8V      0.169000
     46 H30         1.4980   -6.9200   -3.0740 ha        1 L8V      0.160000
     47 H31         0.2900   -4.9910   -3.7160 ha        1 L8V      0.161000
     48 HN33       -1.8850   -7.4450    0.8750 hn        1 L8V      0.205500
     49 HN3A       -0.6570   -8.4170    0.6670 hn        1 L8V      0.205500
@<TRIPOS>BOND
     1    1   30 1   
     2    2    3 1   
     3    2   33 1   
     4    3   34 1   
     5    4    5 1   
     6    4   31 1   
     7    5    6 1   
     8    6    7 1   
     9    6   11 1   
    10    7    8 1   
    11    7   35 1   
    12    8   36 1   
    13    9   10 1   
    14    9   13 1   
    15   10   37 1   
    16   11   12 1   
    17   13   14 1   
    18   13   38 1   
    19   14   15 1   
    20   14   19 1   
    21   15   16 1   
    22   15   20 1   
    23   16   39 1   
    24   17   18 1   
    25   17   40 1   
    26   18   41 1   
    27   20   21 1   
    28   20   22 1   
    29   22   23 1   
    30   22   42 1   
    31   23   24 1   
    32   23   28 1   
    33   24   25 1   
    34   24   43 1   
    35   25   44 1   
    36   26   27 1   
    37   26   29 1   
    38   27   45 1   
    39   28   32 1   
    40   30   46 1   
    41   31   47 1   
    42   33   48 1   
    43   33   49 1   
@<TRIPOS>SUBSTRUCTURE
     1 L8V         1 TEMP              0 ****  ****    0 ROOT
