@<TRIPOS>MOLECULE
L90
   50    43     1     0     0
SMALL
bcc


@<TRIPOS>ATOM
      1 O3         -1.9440   -0.0250    4.2940 o         1 L90     -0.352000
      2 C16        -0.7190   -0.1660    4.3140 c1        1 L90      0.406000
      3 N4         -0.0290   -0.1240    5.5420 n2        1 L90     -0.362000
      4 C3          0.0570   -0.2750    3.0070 c2        1 L90     -0.252000
      5 N2         -0.3540   -0.2460    1.6770 n3        1 L90     -0.051000
      6 C4         -1.4470   -0.1310    0.8580 c1        1 L90     -0.068000
      7 C5         -1.0020   -0.0680   -0.4400 c1        1 L90     -0.035000
      8 N3          0.3390   -0.1410   -0.4230 n2        1 L90     -0.120000
      9 C6          1.3410   -0.4330   -1.4110 c2        1 L90     -0.025000
     10 C7          2.1920    0.8300   -1.6690 c3        1 L90     -0.187000
     11 C8          3.3420    0.4900   -2.6420 c3        1 L90     -0.156000
     12 C9          4.4890    1.5090   -2.4540 c3        1 L90     -0.211000
     13 C1          0.7460   -0.2530    0.9020 c2        1 L90      0.060000
     14 N1          1.8630   -0.2860    1.7370 n2        1 L90     -0.169000
     15 C2          1.4250   -0.2990    3.0250 c1        1 L90      0.113000
     16 N5          2.1460   -0.3060    4.3170 n2        1 L90     -0.237000
     17 C18         3.5790   -0.4780    4.3430 c3        1 L90     -0.066000
     18 C17         1.4050   -0.1930    5.5640 c2        1 L90      0.408000
     19 O2          2.0060   -0.2380    6.6490 o         1 L90     -0.367000
     20 C10        -2.2310   -0.2250   -1.3620 c1        1 L90      0.032000
     21 C15        -2.6630   -1.4250   -1.9650 c1        1 L90     -0.114000
     22 C29        -2.3380   -2.7490   -1.7200 c1        1 L90     -0.158000
     23 N28        -3.1510   -3.5260   -2.4770 n2        1 L90     -0.035000
     24 N27        -3.9850   -2.6980   -3.1950 n2        1 L90     -0.194000
     25 C14        -3.6770   -1.4030   -2.8730 c1        1 L90     -0.013000
     26 C13        -4.2940   -0.1840   -3.2100 c1        1 L90     -0.113500
     27 C12        -3.8680    0.9950   -2.6170 c1        1 L90     -0.113500
     28 C11        -2.8370    0.9730   -1.6930 c1        1 L90     -0.069000
     29 C26        -2.8760    2.5160   -1.4280 c2        1 L90     -0.186000
     30 H1         -0.5010   -0.0530    6.3360 hn        1 L90      0.270000
     31 H2         -2.3900   -0.1000    1.1500 DU        1 L90      0.226667
     32 H3          1.9140   -1.1520   -1.0890 ha        1 L90      0.119000
     33 H4          0.9070   -0.7100   -2.2430 ha        1 L90      0.119000
     34 H5          1.6240    1.5350   -2.0620 hc        1 L90      0.096500
     35 H6          2.5680    1.1490   -0.8180 hc        1 L90      0.096500
     36 H7          3.6780   -0.4250   -2.4520 hc        1 L90      0.082500
     37 H8          3.0150    0.5320   -3.5620 hc        1 L90      0.082500
     38 H9          4.8170    1.4640   -1.5300 hc        1 L90      0.076000
     39 H10         4.1550    2.4180   -2.6400 hc        1 L90      0.076000
     40 H11         5.2240    1.2950   -3.0730 hc        1 L90      0.076000
     41 H12         3.9590    0.0300    5.1050 h1        1 L90      0.102667
     42 H13         3.7940   -1.4380    4.4460 h1        1 L90      0.102667
     43 H14         3.9650   -0.1450    3.5000 h1        1 L90      0.102667
     44 H15        -1.6530   -3.0620   -1.1190 DU        1 L90      0.226667
     45 H17        -5.0190   -0.1680   -3.8590 ha        1 L90      0.142000
     46 H18        -4.2910    1.8310   -2.8480 ha        1 L90      0.142000
     47 H19        -3.6670    2.7360   -0.8720 ha        1 L90      0.090333
     48 H20        -2.0550    2.7900   -0.9530 ha        1 L90      0.090333
     49 H21        -2.9350    2.9970   -2.2890 ha        1 L90      0.090333
     50 H16        -4.6230   -2.9630   -3.7770 DU        1 L90      0.226667
@<TRIPOS>BOND
     1    1    2 1   
     2    2    4 1   
     3    3   18 1   
     4    3   30 1   
     5    4    5 1   
     6    4   15 1   
     7    5    6 1   
     8    5   13 1   
     9    6    7 1   
    10    7    8 1   
    11    8   13 1   
    12    9   10 1   
    13    9   32 1   
    14    9   33 1   
    15   10   11 1   
    16   10   34 1   
    17   10   35 1   
    18   11   12 1   
    19   11   36 1   
    20   11   37 1   
    21   12   38 1   
    22   12   39 1   
    23   12   40 1   
    24   13   14 1   
    25   14   15 1   
    26   16   17 1   
    27   16   18 1   
    28   17   41 1   
    29   17   42 1   
    30   17   43 1   
    31   18   19 1   
    32   20   21 1   
    33   20   28 1   
    34   21   25 1   
    35   22   23 1   
    36   23   24 1   
    37   24   25 1   
    38   26   27 1   
    39   26   45 1   
    40   27   46 1   
    41   29   47 1   
    42   29   48 1   
    43   29   49 1   
@<TRIPOS>SUBSTRUCTURE
     1 L90         1 TEMP              0 ****  ****    0 ROOT
