@<TRIPOS>MOLECULE
L90
   50    54     1     0     0
SMALL
bcc


@<TRIPOS>ATOM
      1 O3         -0.0460    0.6870    0.1080 o         1 L90     -0.627500
      2 C16         1.1740    0.4660    0.0140 c         1 L90      0.769100
      3 N4          1.9740    0.4330    1.1710 n         1 L90     -0.582500
      4 C3          1.9130    0.2270   -1.2040 cc        1 L90     -0.362200
      5 N2          1.5070    0.1760   -2.5290 na        1 L90     -0.090900
      6 C4          0.4310    0.2480   -3.4060 cc        1 L90     -0.092300
      7 C5          0.9310    0.0260   -4.6990 cd        1 L90     -0.059300
      8 N3          2.3300   -0.2700   -4.6380 na        1 L90     -0.164900
      9 C6          3.2660   -0.1140   -5.7230 c3        1 L90      0.034300
     10 C7          3.7370    1.3150   -5.9910 c3        1 L90     -0.108400
     11 C8          4.7090    1.3230   -7.1520 c3        1 L90     -0.077400
     12 C9          5.1960    2.7180   -7.4450 c3        1 L90     -0.093100
     13 C1          2.6990   -0.1070   -3.2950 cc        1 L90      0.500000
     14 N1          3.8330   -0.2340   -2.5210 nd        1 L90     -0.695000
     15 C2          3.3380   -0.0260   -1.2220 cd        1 L90      0.521200
     16 N5          4.0550   -0.0340   -0.0330 n         1 L90     -0.421300
     17 C18         5.4710   -0.2930   -0.0320 c3        1 L90      0.089300
     18 C17         3.3610    0.1950    1.1810 c         1 L90      0.817500
     19 O2          3.9740    0.1890    2.2710 o         1 L90     -0.642500
     20 C10         0.1520   -0.0060   -5.9250 ca        1 L90      0.032000
     21 C15         0.2160   -1.1180   -6.7750 ca        1 L90     -0.197900
     22 C29         0.9260   -2.3930   -6.7840 cc        1 L90      0.342800
     23 N28         0.5870   -3.1020   -7.8790 nd        1 L90     -0.502100
     24 N27        -0.2610   -2.3710   -8.6150 na        1 L90     -0.019100
     25 C14        -0.5760   -1.1570   -7.9810 ca        1 L90     -0.058200
     26 C13        -1.4200   -0.0930   -8.3290 ca        1 L90     -0.123000
     27 C12        -1.4660    0.9860   -7.4650 ca        1 L90     -0.104000
     28 C11        -0.7000    1.0480   -6.2770 ca        1 L90     -0.076300
     29 C26        -0.8370    2.2540   -5.4250 c3        1 L90     -0.060800
     30 H1          1.5450    0.5880    2.0580 hn        1 L90      0.356500
     31 H2         -0.5900    0.4450   -3.0720 h4        1 L90      0.211000
     32 H3          4.1600   -0.7570   -5.4790 h1        1 L90      0.079700
     33 H4          2.7620   -0.5230   -6.6460 h1        1 L90      0.079700
     34 H5          2.8610    1.9740   -6.2270 hc        1 L90      0.057200
     35 H6          4.2360    1.7320   -5.0760 hc        1 L90      0.057200
     36 H7          5.5840    0.6610   -6.9130 hc        1 L90      0.043200
     37 H8          4.2100    0.8980   -8.0630 hc        1 L90      0.043200
     38 H9          4.3420    3.3870   -7.7100 hc        1 L90      0.036700
     39 H10         5.9120    2.7040   -8.3020 hc        1 L90      0.036700
     40 H11         5.7170    3.1500   -6.5560 hc        1 L90      0.036700
     41 H12         5.9940    0.4820   -0.6530 h1        1 L90      0.063367
     42 H13         5.6690   -1.3080   -0.4710 h1        1 L90      0.063367
     43 H14         5.8600   -0.2570    1.0210 h1        1 L90      0.063367
     44 H15         1.6260   -2.7650   -6.0340 h4        1 L90      0.064800
     45 H17        -2.0210   -0.1170   -9.2480 ha        1 L90      0.144000
     46 H18        -2.1240    1.8370   -7.7040 ha        1 L90      0.140000
     47 H19         0.1030    2.4550   -4.8530 hc        1 L90      0.051033
     48 H20        -1.6680    2.1070   -4.6890 hc        1 L90      0.051033
     49 H21        -1.0730    3.1540   -6.0430 hc        1 L90      0.051033
     50 H16        -0.7660   -2.7930   -9.3580 hn        1 L90      0.324700
@<TRIPOS>BOND
     1    1    2 2   
     2    2    3 1   
     3    2    4 1   
     4    3   18 1   
     5    3   30 1   
     6    4    5 1   
     7    4   15 2   
     8    5    6 1   
     9    5   13 1   
    10    6    7 2   
    11    6   31 1   
    12    7    8 1   
    13    7   20 1   
    14    8    9 1   
    15    8   13 1   
    16    9   10 1   
    17    9   32 1   
    18    9   33 1   
    19   10   11 1   
    20   10   34 1   
    21   10   35 1   
    22   11   12 1   
    23   11   36 1   
    24   11   37 1   
    25   12   38 1   
    26   12   39 1   
    27   12   40 1   
    28   13   14 2   
    29   14   15 1   
    30   15   16 1   
    31   16   17 1   
    32   16   18 1   
    33   17   41 1   
    34   17   42 1   
    35   17   43 1   
    36   18   19 2   
    37   20   21 ar  
    38   20   28 ar  
    39   21   22 1   
    40   21   25 ar  
    41   22   23 2   
    42   22   44 1   
    43   23   24 1   
    44   24   25 1   
    45   24   50 1   
    46   25   26 ar  
    47   26   27 ar  
    48   26   45 1   
    49   27   28 ar  
    50   27   46 1   
    51   28   29 1   
    52   29   47 1   
    53   29   48 1   
    54   29   49 1   
@<TRIPOS>SUBSTRUCTURE
     1 L90         1 TEMP              0 ****  ****    0 ROOT
