@<TRIPOS>MOLECULE
L90
   50    54     1     0     0
SMALL
bcc


@<TRIPOS>ATOM
      1 O3         -0.0960    0.3580    0.1320 o         1 L90     -0.628500
      2 C16         1.1350    0.2150    0.0350 c         1 L90      0.769100
      3 N4          1.9320    0.1750    1.1940 n         1 L90     -0.582500
      4 C3          1.8920    0.0820   -1.1880 cc        1 L90     -0.363200
      5 N2          1.4940    0.0730   -2.5160 na        1 L90     -0.089900
      6 C4          0.4180    0.1220   -3.3960 cc        1 L90     -0.096300
      7 C5          0.9380   -0.0010   -4.6940 cd        1 L90     -0.057300
      8 N3          2.3490   -0.2120   -4.6360 na        1 L90     -0.166900
      9 C6          3.2730   -0.0150   -5.7210 c3        1 L90      0.040300
     10 C7          3.6920    1.4330   -5.9770 c3        1 L90     -0.108400
     11 C8          4.6460    1.4890   -7.1510 c3        1 L90     -0.078400
     12 C9          5.0840    2.9040   -7.4310 c3        1 L90     -0.093100
     13 C1          2.7050   -0.0990   -3.2870 cc        1 L90      0.501000
     14 N1          3.8420   -0.1960   -2.5120 nd        1 L90     -0.697000
     15 C2          3.3300   -0.0830   -1.2090 cd        1 L90      0.522200
     16 N5          4.0420   -0.1060   -0.0170 n         1 L90     -0.422300
     17 C18         5.4710   -0.2770   -0.0180 c3        1 L90      0.089300
     18 C17         3.3290    0.0200    1.2030 c         1 L90      0.817500
     19 O2          3.9380   -0.0020    2.2950 o         1 L90     -0.643500
     20 C10         0.1800   -0.0150   -5.9360 ca        1 L90      0.025000
     21 C15         0.1170   -1.1850   -6.7010 ca        1 L90     -0.194900
     22 C29         0.6630   -2.5340   -6.6040 cc        1 L90      0.345800
     23 N28         0.2580   -3.2720   -7.6550 nd        1 L90     -0.502100
     24 N27        -0.4790   -2.4970   -8.4640 na        1 L90     -0.019100
     25 C14        -0.6530   -1.2110   -7.9230 ca        1 L90     -0.061200
     26 C13        -1.3450   -0.0760   -8.3670 ca        1 L90     -0.120000
     27 C12        -1.2600    1.0640   -7.5860 ca        1 L90     -0.106000
     28 C11        -0.5100    1.1150   -6.3880 ca        1 L90     -0.072300
     29 C26        -0.4550    2.3950   -5.6410 c3        1 L90     -0.057800
     30 H1          1.4900    0.2590    2.0850 hn        1 L90      0.356500
     31 H2         -0.6140    0.2350   -3.0560 h4        1 L90      0.212000
     32 H3          4.1920   -0.6290   -5.4910 h1        1 L90      0.078700
     33 H4          2.7780   -0.4320   -6.6460 h1        1 L90      0.078700
     34 H5          4.1900    1.8540   -5.0640 hc        1 L90      0.056200
     35 H6          2.7900    2.0640   -6.1910 hc        1 L90      0.056200
     36 H7          4.1480    1.0620   -8.0620 hc        1 L90      0.043200
     37 H8          5.5450    0.8530   -6.9350 hc        1 L90      0.043200
     38 H9          4.2050    3.5490   -7.6730 hc        1 L90      0.036700
     39 H10         5.7870    2.9250   -8.2970 hc        1 L90      0.036700
     40 H11         5.6030    3.3390   -6.5430 hc        1 L90      0.036700
     41 H12         5.7320   -1.2540   -0.5070 h1        1 L90      0.063033
     42 H13         5.9470    0.5600   -0.5960 h1        1 L90      0.063033
     43 H14         5.8530   -0.2710    1.0380 h1        1 L90      0.063033
     44 H15         1.3050   -2.9310   -5.8160 h4        1 L90      0.064800
     45 H17        -1.9310   -0.0910   -9.2950 ha        1 L90      0.144000
     46 H18        -1.7960    1.9720   -7.9060 ha        1 L90      0.140000
     47 H19         0.5450    2.8770   -5.7840 hc        1 L90      0.050367
     48 H20        -1.2410    3.1060   -5.9950 hc        1 L90      0.050367
     49 H21        -0.6050    2.2220   -4.5450 hc        1 L90      0.050367
     50 H16        -1.0320   -2.9100   -9.1780 hn        1 L90      0.323700
@<TRIPOS>BOND
     1    1    2 2   
     2    2    3 1   
     3    2    4 1   
     4    3   18 1   
     5    3   30 1   
     6    4    5 1   
     7    4   15 2   
     8    5    6 1   
     9    5   13 1   
    10    6    7 2   
    11    6   31 1   
    12    7    8 1   
    13    7   20 1   
    14    8    9 1   
    15    8   13 1   
    16    9   10 1   
    17    9   32 1   
    18    9   33 1   
    19   10   11 1   
    20   10   34 1   
    21   10   35 1   
    22   11   12 1   
    23   11   36 1   
    24   11   37 1   
    25   12   38 1   
    26   12   39 1   
    27   12   40 1   
    28   13   14 2   
    29   14   15 1   
    30   15   16 1   
    31   16   17 1   
    32   16   18 1   
    33   17   41 1   
    34   17   42 1   
    35   17   43 1   
    36   18   19 2   
    37   20   21 ar  
    38   20   28 ar  
    39   21   22 1   
    40   21   25 ar  
    41   22   23 2   
    42   22   44 1   
    43   23   24 1   
    44   24   25 1   
    45   24   50 1   
    46   25   26 ar  
    47   26   27 ar  
    48   26   45 1   
    49   27   28 ar  
    50   27   46 1   
    51   28   29 1   
    52   29   47 1   
    53   29   48 1   
    54   29   49 1   
@<TRIPOS>SUBSTRUCTURE
     1 L90         1 TEMP              0 ****  ****    0 ROOT
