@<TRIPOS>MOLECULE
L90
   50    54     1     0     0
SMALL
bcc


@<TRIPOS>ATOM
      1 O3         -3.2460   -2.5910   -1.7020 o         1 L90     -0.627500
      2 C16        -3.5510   -1.6130   -0.9990 c         1 L90      0.769100
      3 N4         -4.9040   -1.3220   -0.7460 n         1 L90     -0.582500
      4 C3         -2.6370   -0.6820   -0.3780 cc        1 L90     -0.362200
      5 N2         -1.2520   -0.6150   -0.3820 na        1 L90     -0.090900
      6 C4         -0.0720   -1.2140   -0.8070 cc        1 L90     -0.092300
      7 C5          0.9910   -0.4550   -0.2910 cd        1 L90     -0.059300
      8 N3          0.4850    0.5950    0.5370 na        1 L90     -0.164900
      9 C6          1.1840    1.8110    0.8670 c3        1 L90      0.034300
     10 C7          1.1940    2.8850   -0.2200 c3        1 L90     -0.108400
     11 C8          1.9610    4.0970    0.2670 c3        1 L90     -0.077400
     12 C9          1.9910    5.1790   -0.7820 c3        1 L90     -0.093100
     13 C1         -0.9110    0.5360    0.4240 cc        1 L90      0.500000
     14 N1         -2.0100    1.1960    0.9310 nd        1 L90     -0.695000
     15 C2         -3.0800    0.4350    0.4300 cd        1 L90      0.521200
     16 N5         -4.4370    0.6530    0.6240 n         1 L90     -0.421300
     17 C18        -4.8950    1.7530    1.4320 c3        1 L90      0.089300
     18 C17        -5.3620   -0.2430    0.0310 c         1 L90      0.817500
     19 O2         -6.5920   -0.0800    0.1900 o         1 L90     -0.642500
     20 C10         2.4060   -0.7310   -0.4720 ca        1 L90      0.032000
     21 C15         3.2500   -0.8520    0.6400 ca        1 L90     -0.197900
     22 C29         3.0980   -0.7660    2.0880 cc        1 L90      0.342800
     23 N28         4.2830   -0.9850    2.6910 nd        1 L90     -0.502100
     24 N27         5.2150   -1.1680    1.7460 na        1 L90     -0.019100
     25 C14         4.6520   -1.1470    0.4580 ca        1 L90     -0.058200
     26 C13         5.1980   -1.3180   -0.8220 ca        1 L90     -0.123000
     27 C12         4.3350   -1.1990   -1.8970 ca        1 L90     -0.104000
     28 C11         2.9590   -0.9100   -1.7460 ca        1 L90     -0.076300
     29 C26         2.1310   -0.8140   -2.9720 c3        1 L90     -0.060800
     30 H1         -5.6050   -1.9160   -1.1360 hn        1 L90      0.356500
     31 H2         -0.0580   -2.1130   -1.4280 h4        1 L90      0.211000
     32 H3          0.6950    2.2290    1.7940 h1        1 L90      0.079700
     33 H4          2.2460    1.5170    1.1150 h1        1 L90      0.079700
     34 H5          1.6690    2.4860   -1.1540 hc        1 L90      0.057200
     35 H6          0.1420    3.1810   -0.4750 hc        1 L90      0.057200
     36 H7          1.4840    4.4920    1.2020 hc        1 L90      0.043200
     37 H8          3.0100    3.7970    0.5300 hc        1 L90      0.043200
     38 H9          0.9560    5.5080   -1.0400 hc        1 L90      0.036700
     39 H10         2.5590    6.0640   -0.4060 hc        1 L90      0.036700
     40 H11         2.4860    4.8120   -1.7140 hc        1 L90      0.036700
     41 H12        -4.5310    2.7190    0.9910 h1        1 L90      0.063367
     42 H13        -6.0180    1.7540    1.4660 h1        1 L90      0.063367
     43 H14        -4.4880    1.6500    2.4740 h1        1 L90      0.063367
     44 H15         2.1810   -0.5670    2.6450 h4        1 L90      0.064800
     45 H17         6.2640   -1.5390   -0.9640 ha        1 L90      0.144000
     46 H18         4.7290   -1.3340   -2.9170 ha        1 L90      0.140000
     47 H19         1.7240   -1.8230   -3.2380 hc        1 L90      0.051033
     48 H20         1.2680   -0.1180   -2.8250 hc        1 L90      0.051033
     49 H21         2.7390   -0.4440   -3.8350 hc        1 L90      0.051033
     50 H16         6.1080   -1.5270    1.9900 hn        1 L90      0.324700
@<TRIPOS>BOND
     1    1    2 2   
     2    2    3 1   
     3    2    4 1   
     4    3   18 1   
     5    3   30 1   
     6    4    5 1   
     7    4   15 2   
     8    5    6 1   
     9    5   13 1   
    10    6    7 2   
    11    6   31 1   
    12    7    8 1   
    13    7   20 1   
    14    8    9 1   
    15    8   13 1   
    16    9   10 1   
    17    9   32 1   
    18    9   33 1   
    19   10   11 1   
    20   10   34 1   
    21   10   35 1   
    22   11   12 1   
    23   11   36 1   
    24   11   37 1   
    25   12   38 1   
    26   12   39 1   
    27   12   40 1   
    28   13   14 2   
    29   14   15 1   
    30   15   16 1   
    31   16   17 1   
    32   16   18 1   
    33   17   41 1   
    34   17   42 1   
    35   17   43 1   
    36   18   19 2   
    37   20   21 ar  
    38   20   28 ar  
    39   21   22 1   
    40   21   25 ar  
    41   22   23 2   
    42   22   44 1   
    43   23   24 1   
    44   24   25 1   
    45   24   50 1   
    46   25   26 ar  
    47   26   27 ar  
    48   26   45 1   
    49   27   28 ar  
    50   27   46 1   
    51   28   29 1   
    52   29   47 1   
    53   29   48 1   
    54   29   49 1   
@<TRIPOS>SUBSTRUCTURE
     1 L90         1 TEMP              0 ****  ****    0 ROOT
