@<TRIPOS>MOLECULE
L92
   56    59     1     0     0
SMALL
bcc


@<TRIPOS>ATOM
      1 O2          2.5870   -0.8420   -2.0900 o         1 L92     -0.818800
      2 C1          2.6960   -1.4570   -0.9950 c         1 L92      0.922600
      3 O1          3.1810   -2.6070   -0.8430 o         1 L92     -0.818800
      4 C2          2.2280   -0.6550    0.2820 c3        1 L92     -0.098000
      5 N1          1.2590   -1.3660    1.0810 na        1 L92     -0.015100
      6 C13         0.2770   -0.7530    1.8610 cc        1 L92     -0.161300
      7 C12        -0.4340   -1.7490    2.5480 cd        1 L92     -0.239500
      8 C11         0.1430   -3.0070    2.1810 cd        1 L92     -0.239500
      9 C10         1.1890   -2.7390    1.2810 cc        1 L92     -0.161300
     10 C3          3.4880   -0.2560    1.0800 c3        1 L92     -0.051100
     11 C4          3.9610    1.1180    0.7580 ca        1 L92     -0.058300
     12 C9          4.3980    1.9660    1.7820 ca        1 L92     -0.132000
     13 C8          4.8760    3.2430    1.4930 ca        1 L92     -0.136500
     14 C7          4.9250    3.6960    0.1720 ca        1 L92     -0.109300
     15 C6          4.4830    2.8500   -0.8530 ca        1 L92     -0.136500
     16 C5          4.0070    1.5740   -0.5670 ca        1 L92     -0.132000
     17 C14         5.4280    5.0590   -0.1490 c3        1 L92     -0.026100
     18 C15         6.8050    5.0070   -0.7850 c3        1 L92     -0.078400
     19 C16         7.2210    6.3770   -1.2870 c3        1 L92     -0.103700
     20 C17         8.5290    6.3330   -1.9800 cc        1 L92      0.246300
     21 C19         8.8740    5.5690   -3.0970 cd        1 L92      0.171700
     22 C26         8.1850    4.5880   -3.9340 c3        1 L92     -0.130400
     23 O3         10.2040    5.8600   -3.4200 os        1 L92     -0.384800
     24 C18        10.6170    6.8110   -2.4620 cd        1 L92      0.530900
     25 N2          9.6400    7.1070   -1.5980 nc        1 L92     -0.657000
     26 C20        11.9820    7.2960   -2.5610 ca        1 L92     -0.121500
     27 C25        12.4540    8.2480   -1.6450 ca        1 L92     -0.095000
     28 C24        13.7650    8.7110   -1.7430 ca        1 L92     -0.140000
     29 C23        14.6080    8.2320   -2.7450 ca        1 L92     -0.120000
     30 C22        14.1400    7.2840   -3.6560 ca        1 L92     -0.140000
     31 C21        12.8320    6.8140   -3.5680 ca        1 L92     -0.095000
     32 H2          1.7160    0.2830   -0.0860 h1        1 L92      0.061700
     33 H13         0.1470    0.3270    1.8610 h4        1 L92      0.177500
     34 H12        -1.2670   -1.5930    3.2230 ha        1 L92      0.125000
     35 H11        -0.1700   -3.9850    2.5260 ha        1 L92      0.125000
     36 H10         1.8730   -3.4070    0.7460 h4        1 L92      0.177500
     37 H31         4.3040   -0.9900    0.8290 hc        1 L92      0.060700
     38 H32         3.3040   -0.3340    2.1850 hc        1 L92      0.060700
     39 H9          4.3630    1.6240    2.8270 ha        1 L92      0.162000
     40 H8          5.2160    3.8970    2.3100 ha        1 L92      0.116500
     41 H6          4.5110    3.1990   -1.8960 ha        1 L92      0.116500
     42 H5          3.6550    0.9070   -1.3820 ha        1 L92      0.162000
     43 H141        4.7110    5.5600   -0.8550 hc        1 L92      0.038200
     44 H142        5.4720    5.6870    0.7800 hc        1 L92      0.038200
     45 H151        6.7950    4.2790   -1.6400 hc        1 L92      0.050700
     46 H152        7.5520    4.6330   -0.0370 hc        1 L92      0.050700
     47 H161        7.2560    7.0960   -0.4250 hc        1 L92      0.055700
     48 H162        6.4520    6.7610   -2.0130 hc        1 L92      0.055700
     49 H261        8.6320    4.5560   -4.9590 hc        1 L92      0.065033
     50 H262        8.2680    3.5680   -3.4770 hc        1 L92      0.065033
     51 H263        7.1010    4.8560   -4.0110 hc        1 L92      0.065033
     52 H25        11.7920    8.6270   -0.8520 ha        1 L92      0.153000
     53 H24        14.1340    9.4570   -1.0240 ha        1 L92      0.132500
     54 H23        15.6420    8.6000   -2.8170 ha        1 L92      0.129000
     55 H22        14.8040    6.9040   -4.4460 ha        1 L92      0.132500
     56 H21        12.4590    6.0650   -4.2840 ha        1 L92      0.153000
@<TRIPOS>BOND
     1    1    2 1   
     2    2    3 1   
     3    2    4 1   
     4    4    5 1   
     5    4   10 1   
     6    4   32 1   
     7    5    6 1   
     8    5    9 1   
     9    6    7 2   
    10    6   33 1   
    11    7    8 1   
    12    7   34 1   
    13    8    9 2   
    14    8   35 1   
    15    9   36 1   
    16   10   11 1   
    17   10   37 1   
    18   10   38 1   
    19   11   12 ar  
    20   11   16 ar  
    21   12   13 ar  
    22   12   39 1   
    23   13   14 ar  
    24   13   40 1   
    25   14   15 ar  
    26   14   17 1   
    27   15   16 ar  
    28   15   41 1   
    29   16   42 1   
    30   17   18 1   
    31   17   43 1   
    32   17   44 1   
    33   18   19 1   
    34   18   45 1   
    35   18   46 1   
    36   19   20 1   
    37   19   47 1   
    38   19   48 1   
    39   20   21 2   
    40   20   25 1   
    41   21   22 1   
    42   21   23 1   
    43   22   49 1   
    44   22   50 1   
    45   22   51 1   
    46   23   24 1   
    47   24   25 2   
    48   24   26 1   
    49   26   27 ar  
    50   26   31 ar  
    51   27   28 ar  
    52   27   52 1   
    53   28   29 ar  
    54   28   53 1   
    55   29   30 ar  
    56   29   54 1   
    57   30   31 ar  
    58   30   55 1   
    59   31   56 1   
@<TRIPOS>SUBSTRUCTURE
     1 L92         1 TEMP              0 ****  ****    0 ROOT
