@<TRIPOS>MOLECULE
L92
   56    59     1     0     0
SMALL
bcc


@<TRIPOS>ATOM
      1 O2          2.5800   -0.8440   -2.0860 o         1 L92     -0.818800
      2 C1          2.6910   -1.4580   -0.9910 c         1 L92      0.922600
      3 O1          3.1760   -2.6080   -0.8390 o         1 L92     -0.818800
      4 C2          2.2250   -0.6550    0.2860 c3        1 L92     -0.098000
      5 N1          1.2570   -1.3650    1.0870 na        1 L92     -0.015100
      6 C13         0.2770   -0.7530    1.8690 cc        1 L92     -0.161300
      7 C12        -0.4340   -1.7480    2.5580 cd        1 L92     -0.239500
      8 C11         0.1430   -3.0070    2.1910 cd        1 L92     -0.239500
      9 C10         1.1870   -2.7380    1.2880 cc        1 L92     -0.161300
     10 C3          3.4860   -0.2550    1.0810 c3        1 L92     -0.051100
     11 C4          3.9580    1.1180    0.7580 ca        1 L92     -0.058300
     12 C9          4.3960    1.9680    1.7810 ca        1 L92     -0.132000
     13 C8          4.8740    3.2450    1.4900 ca        1 L92     -0.136500
     14 C7          4.9200    3.6960    0.1690 ca        1 L92     -0.109300
     15 C6          4.4770    2.8490   -0.8550 ca        1 L92     -0.136500
     16 C5          4.0020    1.5740   -0.5680 ca        1 L92     -0.132000
     17 C14         5.4230    5.0590   -0.1550 c3        1 L92     -0.026100
     18 C15         6.8000    5.0070   -0.7910 c3        1 L92     -0.078400
     19 C16         7.2150    6.3770   -1.2940 c3        1 L92     -0.103700
     20 C17         8.5240    6.3320   -1.9870 cc        1 L92      0.246300
     21 C19         8.8690    5.5670   -3.1030 cd        1 L92      0.171700
     22 C26         8.1810    4.5850   -3.9390 c3        1 L92     -0.130400
     23 O3         10.1990    5.8580   -3.4260 os        1 L92     -0.384800
     24 C18        10.6110    6.8110   -2.4690 cd        1 L92      0.530900
     25 N2          9.6340    7.1070   -1.6050 nc        1 L92     -0.657000
     26 C20        11.9760    7.2960   -2.5680 ca        1 L92     -0.121500
     27 C25        12.4470    8.2490   -1.6530 ca        1 L92     -0.095000
     28 C24        13.7580    8.7130   -1.7510 ca        1 L92     -0.140000
     29 C23        14.6020    8.2330   -2.7530 ca        1 L92     -0.120000
     30 C22        14.1340    7.2850   -3.6630 ca        1 L92     -0.140000
     31 C21        12.8260    6.8140   -3.5750 ca        1 L92     -0.095000
     32 H2          1.7120    0.2820   -0.0820 h1        1 L92      0.061700
     33 H13         0.1460    0.3280    1.8680 h4        1 L92      0.177500
     34 H12        -1.2650   -1.5910    3.2340 ha        1 L92      0.125000
     35 H11        -0.1690   -3.9840    2.5360 ha        1 L92      0.125000
     36 H10         1.8710   -3.4070    0.7530 h4        1 L92      0.177500
     37 H31         4.3010   -0.9900    0.8300 hc        1 L92      0.060700
     38 H32         3.3040   -0.3320    2.1870 hc        1 L92      0.060700
     39 H9          4.3630    1.6260    2.8260 ha        1 L92      0.162000
     40 H8          5.2140    3.8990    2.3050 ha        1 L92      0.116500
     41 H6          4.5040    3.1970   -1.8980 ha        1 L92      0.116500
     42 H5          3.6490    0.9060   -1.3810 ha        1 L92      0.162000
     43 H141        5.4660    5.6880    0.7740 hc        1 L92      0.038200
     44 H142        4.7050    5.5590   -0.8610 hc        1 L92      0.038200
     45 H151        6.7900    4.2780   -1.6450 hc        1 L92      0.050700
     46 H152        7.5470    4.6340   -0.0430 hc        1 L92      0.050700
     47 H161        7.2490    7.0970   -0.4330 hc        1 L92      0.055700
     48 H162        6.4460    6.7590   -2.0200 hc        1 L92      0.055700
     49 H261        7.0970    4.8530   -4.0170 hc        1 L92      0.065033
     50 H262        8.2640    3.5660   -3.4800 hc        1 L92      0.065033
     51 H263        8.6270    4.5510   -4.9630 hc        1 L92      0.065033
     52 H25        11.7850    8.6280   -0.8600 ha        1 L92      0.153000
     53 H24        14.1260    9.4590   -1.0330 ha        1 L92      0.132500
     54 H23        15.6360    8.6010   -2.8250 ha        1 L92      0.129000
     55 H22        14.7990    6.9040   -4.4520 ha        1 L92      0.132500
     56 H21        12.4540    6.0640   -4.2900 ha        1 L92      0.153000
@<TRIPOS>BOND
     1    1    2 1   
     2    2    3 1   
     3    2    4 1   
     4    4    5 1   
     5    4   10 1   
     6    4   32 1   
     7    5    6 1   
     8    5    9 1   
     9    6    7 2   
    10    6   33 1   
    11    7    8 1   
    12    7   34 1   
    13    8    9 2   
    14    8   35 1   
    15    9   36 1   
    16   10   11 1   
    17   10   37 1   
    18   10   38 1   
    19   11   12 ar  
    20   11   16 ar  
    21   12   13 ar  
    22   12   39 1   
    23   13   14 ar  
    24   13   40 1   
    25   14   15 ar  
    26   14   17 1   
    27   15   16 ar  
    28   15   41 1   
    29   16   42 1   
    30   17   18 1   
    31   17   43 1   
    32   17   44 1   
    33   18   19 1   
    34   18   45 1   
    35   18   46 1   
    36   19   20 1   
    37   19   47 1   
    38   19   48 1   
    39   20   21 2   
    40   20   25 1   
    41   21   22 1   
    42   21   23 1   
    43   22   49 1   
    44   22   50 1   
    45   22   51 1   
    46   23   24 1   
    47   24   25 2   
    48   24   26 1   
    49   26   27 ar  
    50   26   31 ar  
    51   27   28 ar  
    52   27   52 1   
    53   28   29 ar  
    54   28   53 1   
    55   29   30 ar  
    56   29   54 1   
    57   30   31 ar  
    58   30   55 1   
    59   31   56 1   
@<TRIPOS>SUBSTRUCTURE
     1 L92         1 TEMP              0 ****  ****    0 ROOT
