@<TRIPOS>MOLECULE
L92
   56    59     1     0     0
SMALL
bcc


@<TRIPOS>ATOM
      1 O2          4.7680    1.9940    2.1750 o         1 L92     -0.818800
      2 C1          5.3560    0.8800    2.1880 c         1 L92      0.922600
      3 O1          5.7120    0.2480    3.2150 o         1 L92     -0.818800
      4 C2          5.5960    0.2250    0.7710 c3        1 L92     -0.098000
      5 N1          6.9740   -0.1330    0.5300 na        1 L92     -0.015100
      6 C13         7.5740   -0.1620   -0.7290 cc        1 L92     -0.161300
      7 C12         8.8930   -0.6180   -0.5860 cd        1 L92     -0.239500
      8 C11         9.0970   -0.8850    0.8060 cd        1 L92     -0.239500
      9 C10         7.8940   -0.5830    1.4680 cc        1 L92     -0.161300
     10 C3          4.6310   -0.9730    0.6330 c3        1 L92     -0.051100
     11 C4          3.3720   -0.6180   -0.0750 ca        1 L92     -0.058300
     12 C9          2.8290   -1.4960   -1.0210 ca        1 L92     -0.132000
     13 C8          1.6310   -1.1930   -1.6670 ca        1 L92     -0.136500
     14 C7          0.9560   -0.0040   -1.3810 ca        1 L92     -0.109300
     15 C6          1.5020    0.8770   -0.4390 ca        1 L92     -0.136500
     16 C5          2.6950    0.5770    0.2090 ca        1 L92     -0.132000
     17 C14        -0.3200    0.3330   -2.0680 c3        1 L92     -0.026100
     18 C15        -1.5100    0.1760   -1.1390 c3        1 L92     -0.078400
     19 C16        -2.7750    0.7100   -1.7850 c3        1 L92     -0.103700
     20 C17        -3.9330    0.6370   -0.8650 cc        1 L92      0.246300
     21 C19        -4.0560    1.2270    0.3950 cd        1 L92      0.171700
     22 C26        -3.1910    2.0420    1.2460 c3        1 L92     -0.130400
     23 O3         -5.3250    0.9120    0.8930 os        1 L92     -0.384800
     24 C18        -5.9300    0.1250   -0.1110 cd        1 L92      0.530900
     25 N2         -5.1240   -0.0500   -1.1630 nc        1 L92     -0.657000
     26 C20        -7.2770   -0.3510    0.1480 ca        1 L92     -0.121500
     27 C25        -7.9390   -1.1310   -0.8120 ca        1 L92     -0.095000
     28 C24        -9.2320   -1.5860   -0.5600 ca        1 L92     -0.140000
     29 C23        -9.8690   -1.2720    0.6400 ca        1 L92     -0.120000
     30 C22        -9.2100   -0.4970    1.5960 ca        1 L92     -0.140000
     31 C21        -7.9180   -0.0360    1.3550 ca        1 L92     -0.095000
     32 H2          5.3260    1.0030   -0.0030 h1        1 L92      0.061700
     33 H13         7.0340    0.1520   -1.6200 h4        1 L92      0.177500
     34 H12         9.6200   -0.7380   -1.3800 ha        1 L92      0.125000
     35 H11        10.0080   -1.2470    1.2670 ha        1 L92      0.125000
     36 H10         7.6200   -0.6270    2.5290 h4        1 L92      0.177500
     37 H31         5.1270   -1.8270    0.0990 hc        1 L92      0.060700
     38 H32         4.3780   -1.3340    1.6690 hc        1 L92      0.060700
     39 H9          3.3510   -2.4350   -1.2580 ha        1 L92      0.162000
     40 H8          1.2180   -1.8940   -2.4070 ha        1 L92      0.116500
     41 H6          0.9810    1.8190   -0.2110 ha        1 L92      0.116500
     42 H5          3.1270    1.2800    0.9530 ha        1 L92      0.162000
     43 H141       -0.2720    1.3940   -2.4360 hc        1 L92      0.038200
     44 H142       -0.4630   -0.3230   -2.9680 hc        1 L92      0.038200
     45 H151       -1.6440   -0.9050   -0.8770 hc        1 L92      0.050700
     46 H152       -1.3130    0.7300   -0.1820 hc        1 L92      0.050700
     47 H161       -2.6230    1.7860   -2.0750 hc        1 L92      0.055700
     48 H162       -2.9840    0.1370   -2.7280 hc        1 L92      0.055700
     49 H261       -3.7970    2.6740    1.9420 hc        1 L92      0.065033
     50 H262       -2.5220    1.3810    1.8570 hc        1 L92      0.065033
     51 H263       -2.5510    2.7020    0.6090 hc        1 L92      0.065033
     52 H25        -7.4390   -1.3830   -1.7600 ha        1 L92      0.153000
     53 H24        -9.7500   -2.1980   -1.3130 ha        1 L92      0.132500
     54 H23       -10.8890   -1.6350    0.8350 ha        1 L92      0.129000
     55 H22        -9.7100   -0.2490    2.5440 ha        1 L92      0.132500
     56 H21        -7.3950    0.5740    2.1070 ha        1 L92      0.153000
@<TRIPOS>BOND
     1    1    2 1   
     2    2    3 1   
     3    2    4 1   
     4    4    5 1   
     5    4   10 1   
     6    4   32 1   
     7    5    6 1   
     8    5    9 1   
     9    6    7 2   
    10    6   33 1   
    11    7    8 1   
    12    7   34 1   
    13    8    9 2   
    14    8   35 1   
    15    9   36 1   
    16   10   11 1   
    17   10   37 1   
    18   10   38 1   
    19   11   12 ar  
    20   11   16 ar  
    21   12   13 ar  
    22   12   39 1   
    23   13   14 ar  
    24   13   40 1   
    25   14   15 ar  
    26   14   17 1   
    27   15   16 ar  
    28   15   41 1   
    29   16   42 1   
    30   17   18 1   
    31   17   43 1   
    32   17   44 1   
    33   18   19 1   
    34   18   45 1   
    35   18   46 1   
    36   19   20 1   
    37   19   47 1   
    38   19   48 1   
    39   20   21 2   
    40   20   25 1   
    41   21   22 1   
    42   21   23 1   
    43   22   49 1   
    44   22   50 1   
    45   22   51 1   
    46   23   24 1   
    47   24   25 2   
    48   24   26 1   
    49   26   27 ar  
    50   26   31 ar  
    51   27   28 ar  
    52   27   52 1   
    53   28   29 ar  
    54   28   53 1   
    55   29   30 ar  
    56   29   54 1   
    57   30   31 ar  
    58   30   55 1   
    59   31   56 1   
@<TRIPOS>SUBSTRUCTURE
     1 L92         1 TEMP              0 ****  ****    0 ROOT
