@<TRIPOS>MOLECULE
L92
   56    49     1     0     0
SMALL
bcc


@<TRIPOS>ATOM
      1 O2         -4.6600    2.9310   -3.0260 o         1 L92     -0.553000
      2 C1         -4.7970    2.1170   -2.0750 c2        1 L92      0.343000
      3 O1         -5.2940    2.5020   -0.9850 o         1 L92     -0.553000
      4 C2         -4.4150    0.6670   -2.2620 c3        1 L92     -0.068000
      5 N1         -5.5900   -0.1120   -2.4400 n3        1 L92     -0.082000
      6 C13        -6.8280    0.3660   -2.7550 c1        1 L92     -0.137500
      7 C12        -7.7060   -0.6950   -2.7630 c1        1 L92     -0.240000
      8 C11        -7.0080   -1.8180   -2.4530 c1        1 L92     -0.240000
      9 C10        -5.6930   -1.4590   -2.2520 c1        1 L92     -0.137500
     10 C3         -3.5300    0.5310   -3.4810 c3        1 L92     -0.137000
     11 C4         -2.0760    0.5330   -3.0530 c2        1 L92     -0.051000
     12 C9         -1.3320   -0.6350   -3.1230 c2        1 L92     -0.143000
     13 C8          0.0190   -0.6170   -2.8100 c1        1 L92     -0.144000
     14 C7          0.6260    0.5690   -2.4270 c1        1 L92     -0.102000
     15 C6         -0.1180    1.7370   -2.3560 c1        1 L92     -0.128000
     16 C5         -1.4680    1.7190   -2.6690 c1        1 L92     -0.121000
     17 C14         2.1110    0.5970   -2.1260 c3        1 L92     -0.112000
     18 C15         2.3590    0.0070   -0.7530 c3        1 L92     -0.157000
     19 C16         3.6180    0.6100   -0.1640 c3        1 L92     -0.089000
     20 C17         3.8670    0.0200    1.2090 c2        1 L92     -0.106000
     21 C19         4.8210   -0.9140    1.5230 c1        1 L92     -0.059000
     22 C26         5.7870   -1.5590    0.5540 c2        1 L92     -0.151000
     23 O3          4.7740   -1.1240    2.8490 os        1 L92     -0.127000
     24 C18         3.7970   -0.3290    3.3670 c2        1 L92      0.034000
     25 N2          3.2420    0.3740    2.3460 n2        1 L92     -0.130000
     26 C20         3.4000   -0.2870    4.6950 c1        1 L92     -0.016000
     27 C25         4.0710    0.5290    5.5920 c1        1 L92     -0.124750
     28 C24         3.7110    0.5290    6.9310 c1        1 L92     -0.124750
     29 C23         2.6810   -0.2860    7.3720 c1        1 L92     -0.124750
     30 C22         2.0110   -1.1020    6.4750 c1        1 L92     -0.124750
     31 C21         2.3700   -1.1020    5.1360 c1        1 L92     -0.089000
     32 H2         -3.9330    0.3530   -1.4730 h1        1 L92      0.101000
     33 H13        -7.0520    1.2970   -2.9430 DU        1 L92      0.151250
     34 H12        -8.6610   -0.6480   -2.9560 DU        1 L92      0.151250
     35 H11        -7.3760   -2.7180   -2.3720 DU        1 L92      0.151250
     36 H10        -4.9640   -2.0620   -2.0170 DU        1 L92      0.151250
     37 H31        -3.7340   -0.3080   -3.9400 hc        1 L92      0.099000
     38 H32        -3.6930    1.2820   -4.0870 hc        1 L92      0.099000
     39 H9         -1.7590   -1.4700   -3.3930 ha        1 L92      0.121000
     40 H8          0.5420   -1.4390   -2.8600 ha        1 L92      0.109000
     41 H6          0.3170    2.5790   -2.1210 ha        1 L92      0.125000
     42 H5         -1.9920    2.5420   -2.6190 ha        1 L92      0.203000
     43 H141        2.5900    0.0720   -2.7990 hc        1 L92      0.078000
     44 H142        2.4300    1.5210   -2.1460 hc        1 L92      0.078000
     45 H151        2.4680   -0.9630   -0.8300 hc        1 L92      0.089500
     46 H152        1.5990    0.2050   -0.1700 hc        1 L92      0.089500
     47 H161        3.5100    1.5800   -0.0880 hc        1 L92      0.096000
     48 H162        4.3780    0.4120   -0.7470 hc        1 L92      0.096000
     49 H261        5.3110   -2.2210    0.0100 ha        1 L92      0.101333
     50 H262        6.1720   -0.8730   -0.0290 ha        1 L92      0.101333
     51 H263        6.5040   -2.0030    1.0540 ha        1 L92      0.101333
     52 H25         4.7960    1.1030    5.2820 ha        1 L92      0.136000
     53 H24         4.1840    1.1040    7.5630 ha        1 L92      0.136000
     54 H23         2.4150   -0.2700    8.3100 ha        1 L92      0.136000
     55 H22         1.2860   -1.6760    6.7860 ha        1 L92      0.136000
     56 H21         1.9160   -1.6960    4.5090 ha        1 L92      0.157000
@<TRIPOS>BOND
     1    1    2 1   
     2    2    3 1   
     3    2    4 1   
     4    4    5 1   
     5    4   10 1   
     6    4   32 1   
     7    5    6 1   
     8    5    9 1   
     9    6    7 1   
    10    7    8 1   
    11    8    9 1   
    12   10   11 1   
    13   10   37 1   
    14   10   38 1   
    15   11   12 1   
    16   11   16 1   
    17   12   13 1   
    18   12   39 1   
    19   13   40 1   
    20   14   15 1   
    21   14   17 1   
    22   15   41 1   
    23   16   42 1   
    24   17   18 1   
    25   17   43 1   
    26   17   44 1   
    27   18   19 1   
    28   18   45 1   
    29   18   46 1   
    30   19   20 1   
    31   19   47 1   
    32   19   48 1   
    33   20   21 1   
    34   20   25 1   
    35   21   23 1   
    36   22   49 1   
    37   22   50 1   
    38   22   51 1   
    39   23   24 1   
    40   24   25 1   
    41   24   26 1   
    42   26   31 1   
    43   27   28 1   
    44   27   52 1   
    45   28   53 1   
    46   29   30 1   
    47   29   54 1   
    48   30   55 1   
    49   31   56 1   
@<TRIPOS>SUBSTRUCTURE
     1 L92         1 TEMP              0 ****  ****    0 ROOT
