@<TRIPOS>MOLECULE
L94
   60    55     1     0     0
SMALL
bcc


@<TRIPOS>ATOM
      1 C1         -0.0150   -0.1720   -1.9610 c1        1 L94     -0.116000
      2 C2          1.3770   -0.1730   -1.9590 c1        1 L94     -0.077500
      3 C3          2.0740   -0.1380   -0.7510 c1        1 L94     -0.077500
      4 C4          1.3750   -0.1030    0.4580 c1        1 L94     -0.116000
      5 C5         -0.0180   -0.1030    0.4580 c1        1 L94     -0.078500
      6 C6         -0.7150   -0.1370   -0.7500 c1        1 L94     -0.078500
      7 C11        -0.7690    0.0010   -3.2810 c2        1 L94      0.326500
      8 N111       -0.7540    1.2370   -3.9390 n3        1 L94     -0.284500
      9 N114        2.4140   -1.4390    2.4070 n3        1 L94     -0.284500
     10 C14         2.1470   -0.1700    1.7960 c2        1 L94      0.326500
     11 N21        -1.4340   -1.0260   -3.8070 n2        1 L94     -0.269500
     12 N24         2.5680    0.9510    2.3820 n2        1 L94     -0.269500
     13 C31        -1.4470   -2.3300   -3.1190 c2        1 L94     -0.028000
     14 C34         2.3050    2.2240    1.7720 c2        1 L94     -0.028000
     15 C41        -2.4910   -3.2390   -3.7660 c3        1 L94     -0.209500
     16 C44         1.9240    3.2510    2.8630 c3        1 L94     -0.209500
     17 C51        -3.1550   -4.0840   -2.7030 c3        1 L94     -0.132500
     18 C54         3.1660    3.9640    3.3360 c3        1 L94     -0.132500
     19 N61        -4.5030   -4.4200   -3.1300 n4        1 L94      0.000500
     20 N64         2.8590    4.7470    4.5050 n4        1 L94      0.000500
     21 C71        -5.4440   -3.7900   -2.2600 c3        1 L94     -0.198750
     22 C74         3.3410    6.0660    4.3230 c3        1 L94     -0.198750
     23 C81        -4.6800   -5.8710   -3.0850 c3        1 L94     -0.198750
     24 C84         3.4920    4.1590    5.6650 c3        1 L94     -0.198750
     25 H2          1.8550   -0.1980   -2.7870 ha        1 L94      0.190000
     26 H3          3.0480   -0.1390   -0.7500 ha        1 L94      0.190000
     27 H5         -0.5110   -0.0780    1.3150 ha        1 L94      0.188000
     28 H6         -1.6980   -0.1380   -0.7510 ha        1 L94      0.188000
     29 H111       -0.0120    1.7840   -3.8800 hn        1 L94      0.293250
     30 H411        3.1740   -1.5560    2.9150 hn        1 L94      0.293250
     31 H11A       -1.4600    1.4860   -4.4530 hn        1 L94      0.293250
     32 H41A        1.8680   -2.1530    2.2320 hn        1 L94      0.293250
     33 H121       -1.8970   -0.9190   -4.6200 hn        1 L94      0.275000
     34 H424        3.0340    0.9100    3.1900 hn        1 L94      0.275000
     35 H131       -0.5430   -2.7560   -3.1940 ha        1 L94      0.128500
     36 H434        3.1320    2.5430    1.2850 ha        1 L94      0.128500
     37 H13A       -1.6730   -2.1970   -2.1630 ha        1 L94      0.128500
     38 H43A        1.5760    2.1350    1.1450 ha        1 L94      0.128500
     39 H141       -2.0580   -3.8180   -4.4130 hc        1 L94      0.135750
     40 H444        1.2710    3.9290    2.4780 hc        1 L94      0.135750
     41 H14A       -3.1590   -2.6960   -4.2120 hc        1 L94      0.135750
     42 H44A        1.4990    2.7790    3.6310 hc        1 L94      0.135750
     43 H151       -2.6380   -4.9120   -2.5680 hx        1 L94      0.147750
     44 H454        3.8560    3.3070    3.5540 hx        1 L94      0.147750
     45 H15A       -3.1930   -3.5730   -1.8460 hx        1 L94      0.147750
     46 H45A        3.4880    4.5510    2.6340 hx        1 L94      0.147750
     47 H161       -4.6400   -4.1170   -4.0010 hn        1 L94      0.254000
     48 H464        1.9390    4.7670    4.6320 hn        1 L94      0.254000
     49 H171       -5.4130   -2.8310   -2.3920 hx        1 L94      0.158167
     50 H474        2.9410    6.4500    3.5130 hx        1 L94      0.158167
     51 H17A       -6.3330   -4.1130   -2.4590 hx        1 L94      0.158167
     52 H47A        4.3160    6.0460    4.2280 hx        1 L94      0.158167
     53 H17B       -5.2190   -3.9980   -1.3310 hx        1 L94      0.158167
     54 H47B        3.1030    6.6060    5.0850 hx        1 L94      0.158167
     55 H181       -4.0000   -6.3080   -3.6670 hx        1 L94      0.158167
     56 H484        4.4510    4.1320    5.5310 hx        1 L94      0.158167
     57 H18A       -4.5720   -6.1760   -2.1850 hx        1 L94      0.158167
     58 H48A        3.1530    3.2480    5.7960 hx        1 L94      0.158167
     59 H18B       -5.5890   -6.1040   -3.4080 hx        1 L94      0.158167
     60 H48B        3.2870    4.7050    6.4620 hx        1 L94      0.158167
@<TRIPOS>BOND
     1    1    6 1   
     2    1    7 1   
     3    2    3 1   
     4    2   25 1   
     5    3   26 1   
     6    4    5 1   
     7    4   10 1   
     8    5   27 1   
     9    6   28 1   
    10    7    8 1   
    11    7   11 1   
    12    8   29 1   
    13    8   31 1   
    14    9   10 1   
    15    9   30 1   
    16    9   32 1   
    17   10   12 1   
    18   11   33 1   
    19   12   34 1   
    20   13   15 1   
    21   13   35 1   
    22   13   37 1   
    23   14   16 1   
    24   14   36 1   
    25   14   38 1   
    26   15   17 1   
    27   15   39 1   
    28   15   41 1   
    29   16   18 1   
    30   16   40 1   
    31   16   42 1   
    32   17   19 1   
    33   17   43 1   
    34   17   45 1   
    35   18   20 1   
    36   18   44 1   
    37   18   46 1   
    38   19   21 1   
    39   19   23 1   
    40   19   47 1   
    41   20   22 1   
    42   20   24 1   
    43   20   48 1   
    44   21   49 1   
    45   21   51 1   
    46   21   53 1   
    47   22   50 1   
    48   22   52 1   
    49   22   54 1   
    50   23   55 1   
    51   23   57 1   
    52   23   59 1   
    53   24   56 1   
    54   24   58 1   
    55   24   60 1   
@<TRIPOS>SUBSTRUCTURE
     1 L94         1 TEMP              0 ****  ****    0 ROOT
