@<TRIPOS>MOLECULE
L94
   60    60     1     0     0
SMALL
bcc


@<TRIPOS>ATOM
      1 C1         -0.8210   -0.1600    0.4790 cc        1 L94     -0.116000
      2 C2          0.5780   -0.0800    0.4690 cc        1 L94     -0.073000
      3 C3          1.2700    0.0950    1.6700 cd        1 L94     -0.073000
      4 C4          0.5620    0.1740    2.8760 cd        1 L94     -0.116000
      5 C5         -0.8340    0.0870    2.8860 cd        1 L94     -0.073000
      6 C6         -1.5280   -0.0740    1.6830 cc        1 L94     -0.073000
      7 C11        -1.5490   -0.3850   -0.8170 c2        1 L94      0.485000
      8 N111       -1.3410   -1.5560   -1.4490 nh        1 L94     -0.772600
      9 N114        1.9700    1.5690    4.2920 nh        1 L94     -0.772600
     10 C14         1.3200    0.3990    4.1550 c2        1 L94      0.485000
     11 N21        -2.3670    0.5910   -1.2860 nh        1 L94     -0.709000
     12 N24         1.3170   -0.5780    5.0980 nh        1 L94     -0.709000
     13 C31        -3.1100    0.4960   -2.5320 c3        1 L94      0.182800
     14 C34         2.0240   -0.4830    6.3650 c3        1 L94      0.182800
     15 C41        -3.9180    1.7590   -2.8570 c3        1 L94     -0.120400
     16 C44         1.9020   -1.7460    7.2270 c3        1 L94     -0.120400
     17 C51        -4.6470    1.5320   -4.1840 c3        1 L94      0.102800
     18 C54         2.6860   -1.5190    8.5220 c3        1 L94      0.102800
     19 N61        -5.5210    2.6730   -4.6090 n4        1 L94     -0.677400
     20 N64         2.6180   -2.6610    9.4910 n4        1 L94     -0.677400
     21 C71        -4.7250    3.8040   -5.1640 c3        1 L94      0.077600
     22 C74         3.4970   -3.7910    9.0790 c3        1 L94      0.077600
     23 C81        -6.5240    2.2100   -5.6160 c3        1 L94      0.077600
     24 C84         2.9860   -2.1970   10.8630 c3        1 L94      0.077600
     25 H2          1.1480   -0.1440   -0.4750 ha        1 L94      0.186500
     26 H3          2.3740    0.1590    1.6490 ha        1 L94      0.186500
     27 H5         -1.4040    0.1550    3.8300 ha        1 L94      0.186500
     28 H6         -2.6310   -0.1440    1.7040 ha        1 L94      0.186500
     29 H111       -0.7330   -2.2380   -1.0380 hn        1 L94      0.496300
     30 H411        1.9180    2.2520    3.5600 hn        1 L94      0.496300
     31 H11A       -1.7760   -1.7940   -2.3180 hn        1 L94      0.496300
     32 H41A        2.5050    1.8080    5.1040 hn        1 L94      0.496300
     33 H121       -2.4450    1.4360   -0.7520 hn        1 L94      0.491800
     34 H424        0.8160   -1.4230    4.8970 hn        1 L94      0.491800
     35 H131       -3.8180   -0.3840   -2.4620 h1        1 L94      0.090200
     36 H434        3.1190   -0.2920    6.1560 h1        1 L94      0.090200
     37 H13A       -2.3810    0.3060   -3.3760 h1        1 L94      0.090200
     38 H43A        1.6080    0.3960    6.9420 h1        1 L94      0.090200
     39 H141       -3.2320    2.6450   -2.9360 hc        1 L94      0.088200
     40 H444        0.8220   -1.9520    7.4570 hc        1 L94      0.088200
     41 H14A       -4.6580    1.9640   -2.0380 hc        1 L94      0.088200
     42 H44A        2.3140   -2.6320    6.6720 hc        1 L94      0.088200
     43 H151       -5.3050    0.6170   -4.0940 hx        1 L94      0.115700
     44 H454        3.7750   -1.3370    8.2870 hx        1 L94      0.115700
     45 H15A       -3.8990    1.3510   -5.0100 hx        1 L94      0.115700
     46 H45A        2.2780   -0.6050    9.0460 hx        1 L94      0.115700
     47 H161       -6.0340    3.0160   -3.7850 hn        1 L94      0.455800
     48 H464        1.6470   -3.0040    9.5230 hn        1 L94      0.455800
     49 H171       -5.4190    4.6570   -5.4090 hx        1 L94      0.118700
     50 H474        3.2180   -4.1290    8.0470 hx        1 L94      0.118700
     51 H17A       -3.9710    4.1430   -4.4060 hx        1 L94      0.118700
     52 H47A        3.3620   -4.6440    9.8020 hx        1 L94      0.118700
     53 H17B       -4.2040    3.4770   -6.1050 hx        1 L94      0.118700
     54 H47B        4.5720   -3.4630    9.0980 hx        1 L94      0.118700
     55 H181       -7.1860    1.4280   -5.1560 hx        1 L94      0.118700
     56 H484        2.2560   -1.4160   11.2070 hx        1 L94      0.118700
     57 H18A       -7.1510    3.0880   -5.9370 hx        1 L94      0.118700
     58 H48A        2.9510   -3.0760   11.5660 hx        1 L94      0.118700
     59 H18B       -5.9930    1.7850   -6.5110 hx        1 L94      0.118700
     60 H48B        4.0260   -1.7720   10.8520 hx        1 L94      0.118700
@<TRIPOS>BOND
     1    1    2 1   
     2    1    6 1   
     3    1    7 2   
     4    2    3 2   
     5    2   25 1   
     6    3    4 1   
     7    3   26 1   
     8    4    5 1   
     9    4   10 2   
    10    5    6 2   
    11    5   27 1   
    12    6   28 1   
    13    7    8 1   
    14    7   11 1   
    15    8   29 1   
    16    8   31 1   
    17    9   10 1   
    18    9   30 1   
    19    9   32 1   
    20   10   12 1   
    21   11   13 1   
    22   11   33 1   
    23   12   14 1   
    24   12   34 1   
    25   13   15 1   
    26   13   35 1   
    27   13   37 1   
    28   14   16 1   
    29   14   36 1   
    30   14   38 1   
    31   15   17 1   
    32   15   39 1   
    33   15   41 1   
    34   16   18 1   
    35   16   40 1   
    36   16   42 1   
    37   17   19 1   
    38   17   43 1   
    39   17   45 1   
    40   18   20 1   
    41   18   44 1   
    42   18   46 1   
    43   19   21 1   
    44   19   23 1   
    45   19   47 1   
    46   20   22 1   
    47   20   24 1   
    48   20   48 1   
    49   21   49 1   
    50   21   51 1   
    51   21   53 1   
    52   22   50 1   
    53   22   52 1   
    54   22   54 1   
    55   23   55 1   
    56   23   57 1   
    57   23   59 1   
    58   24   56 1   
    59   24   58 1   
    60   24   60 1   
@<TRIPOS>SUBSTRUCTURE
     1 L94         1 TEMP              0 ****  ****    0 ROOT
