@<TRIPOS>MOLECULE
L94
   60    60     1     0     0
SMALL
bcc


@<TRIPOS>ATOM
      1 C1         -1.3100   -0.3670    0.4770 cc        1 L94     -0.116000
      2 C2         -0.6550   -1.5830    0.2410 cc        1 L94     -0.073000
      3 C3          0.6550   -1.5820   -0.2450 cd        1 L94     -0.073000
      4 C4          1.3100   -0.3660   -0.4790 cd        1 L94     -0.116000
      5 C5          0.6580    0.8480   -0.2360 cd        1 L94     -0.073000
      6 C6         -0.6580    0.8480    0.2370 cc        1 L94     -0.073000
      7 C11        -2.7050   -0.3840    1.0340 c2        1 L94      0.485000
      8 N111       -2.8700   -0.8810    2.2750 nh        1 L94     -0.772600
      9 N114        2.8700   -0.8760   -2.2780 nh        1 L94     -0.772600
     10 C14         2.7060   -0.3830   -1.0360 c2        1 L94      0.485000
     11 N21        -3.7210    0.0910    0.2700 nh        1 L94     -0.709000
     12 N24         3.7220    0.0900   -0.2710 nh        1 L94     -0.709000
     13 C31        -5.1120    0.1110    0.6930 c3        1 L94      0.182800
     14 C34         5.1120    0.1110   -0.6940 c3        1 L94      0.182800
     15 C41        -6.0680    0.6490   -0.3800 c3        1 L94     -0.120400
     16 C44         6.0680    0.6460    0.3810 c3        1 L94     -0.120400
     17 C51        -7.4890    0.6170    0.1850 c3        1 L94      0.102800
     18 C54         7.4900    0.6150   -0.1850 c3        1 L94      0.102800
     19 N61        -8.5330    1.1620   -0.7420 n4        1 L94     -0.677400
     20 N64         8.5340    1.1570    0.7440 n4        1 L94     -0.677400
     21 C71        -8.8720    0.1970   -1.8240 c3        1 L94      0.077600
     22 C74         8.8720    0.1890    1.8240 c3        1 L94      0.077600
     23 C81        -9.7650    1.5270    0.0230 c3        1 L94      0.077600
     24 C84         9.7650    1.5230   -0.0200 c3        1 L94      0.077600
     25 H2         -1.1590   -2.5490    0.4240 ha        1 L94      0.186500
     26 H3          1.1590   -2.5480   -0.4300 ha        1 L94      0.186500
     27 H5          1.1610    1.8130   -0.4240 ha        1 L94      0.186500
     28 H6         -1.1610    1.8130    0.4270 ha        1 L94      0.186500
     29 H111       -2.0720   -1.2020    2.7890 hn        1 L94      0.496300
     30 H411        2.0720   -1.1960   -2.7930 hn        1 L94      0.496300
     31 H11A       -3.7610   -0.9380    2.7290 hn        1 L94      0.496300
     32 H41A        3.7610   -0.9330   -2.7320 hn        1 L94      0.496300
     33 H121       -3.5010    0.4250   -0.6490 hn        1 L94      0.491800
     34 H424        3.5020    0.4220    0.6490 hn        1 L94      0.491800
     35 H131       -5.4260   -0.9420    0.9610 h1        1 L94      0.090200
     36 H434        5.4260   -0.9420   -0.9640 h1        1 L94      0.090200
     37 H13A       -5.1970    0.7590    1.6170 h1        1 L94      0.090200
     38 H43A        5.1970    0.7610   -1.6160 h1        1 L94      0.090200
     39 H141       -5.7830    1.7000   -0.6570 hc        1 L94      0.088200
     40 H444        5.7840    1.6960    0.6600 hc        1 L94      0.088200
     41 H14A       -6.0020    0.0170   -1.3060 hc        1 L94      0.088200
     42 H44A        6.0020    0.0110    1.3050 hc        1 L94      0.088200
     43 H151       -7.7800   -0.4440    0.4390 hx        1 L94      0.115700
     44 H454        7.7810   -0.4460   -0.4410 hx        1 L94      0.115700
     45 H15A       -7.5250    1.2320    1.1340 hx        1 L94      0.115700
     46 H45A        7.5260    1.2310   -1.1320 hx        1 L94      0.115700
     47 H161       -8.1660    2.0190   -1.1790 hn        1 L94      0.455800
     48 H464        8.1670    2.0130    1.1830 hn        1 L94      0.455800
     49 H171       -9.3360   -0.7260   -1.3810 hx        1 L94      0.118700
     50 H474        9.6110    0.6660    2.5280 hx        1 L94      0.118700
     51 H17A       -9.6100    0.6760   -2.5270 hx        1 L94      0.118700
     52 H47A        7.9430   -0.0860    2.3890 hx        1 L94      0.118700
     53 H17B       -7.9430   -0.0770   -2.3900 hx        1 L94      0.118700
     54 H47B        9.3360   -0.7330    1.3780 hx        1 L94      0.118700
     55 H181       -9.5210    2.3300    0.7700 hx        1 L94      0.118700
     56 H484        9.5230    2.3280   -0.7650 hx        1 L94      0.118700
     57 H18A      -10.5410    1.9100   -0.6970 hx        1 L94      0.118700
     58 H48A       10.5420    1.9040    0.7010 hx        1 L94      0.118700
     59 H18B      -10.1650    0.6200    0.5520 hx        1 L94      0.118700
     60 H48B       10.1650    0.6170   -0.5510 hx        1 L94      0.118700
@<TRIPOS>BOND
     1    1    2 1   
     2    1    6 1   
     3    1    7 2   
     4    2    3 2   
     5    2   25 1   
     6    3    4 1   
     7    3   26 1   
     8    4    5 1   
     9    4   10 2   
    10    5    6 2   
    11    5   27 1   
    12    6   28 1   
    13    7    8 1   
    14    7   11 1   
    15    8   29 1   
    16    8   31 1   
    17    9   10 1   
    18    9   30 1   
    19    9   32 1   
    20   10   12 1   
    21   11   13 1   
    22   11   33 1   
    23   12   14 1   
    24   12   34 1   
    25   13   15 1   
    26   13   35 1   
    27   13   37 1   
    28   14   16 1   
    29   14   36 1   
    30   14   38 1   
    31   15   17 1   
    32   15   39 1   
    33   15   41 1   
    34   16   18 1   
    35   16   40 1   
    36   16   42 1   
    37   17   19 1   
    38   17   43 1   
    39   17   45 1   
    40   18   20 1   
    41   18   44 1   
    42   18   46 1   
    43   19   21 1   
    44   19   23 1   
    45   19   47 1   
    46   20   22 1   
    47   20   24 1   
    48   20   48 1   
    49   21   49 1   
    50   21   51 1   
    51   21   53 1   
    52   22   50 1   
    53   22   52 1   
    54   22   54 1   
    55   23   55 1   
    56   23   57 1   
    57   23   59 1   
    58   24   56 1   
    59   24   58 1   
    60   24   60 1   
@<TRIPOS>SUBSTRUCTURE
     1 L94         1 TEMP              0 ****  ****    0 ROOT
