@<TRIPOS>MOLECULE
L98
   28    28     1     0     0
SMALL
bcc


@<TRIPOS>ATOM
      1 S          -1.4000   -2.1740    1.4540 sh        1 L98     -0.495900
      2 C1         -2.1630   -0.6040    1.0590 c3        1 L98      0.077700
      3 C2         -1.6350    0.0770   -0.1810 c3        1 L98     -0.178400
      4 C3         -0.3090    0.7140    0.0630 ca        1 L98     -0.001300
      5 C4          0.8590    0.0610   -0.3390 ca        1 L98     -0.159000
      6 C5          2.1270    0.6180   -0.0660 ca        1 L98      0.080600
      7 C6         -0.2190    1.9560    0.7090 ca        1 L98     -0.128000
      8 C7          1.0270    2.5230    0.9550 ca        1 L98     -0.124000
      9 C8          2.1990    1.8640    0.5890 ca        1 L98     -0.190000
     10 N9          3.3050   -0.0380   -0.5100 nh        1 L98     -0.712600
     11 C10         3.4910   -1.4400   -0.1650 c2        1 L98      0.753100
     12 N11         4.2580   -2.2380   -0.8680 n2        1 L98     -0.878100
     13 N12         2.8520   -1.9350    1.0060 nh        1 L98     -0.900800
     14 C13        -2.7100    1.1180   -0.6550 c         1 L98      0.926600
     15 O14        -3.1320    1.9600    0.1830 o         1 L98     -0.822300
     16 O15        -3.1030    1.0130   -1.8450 o         1 L98     -0.822300
     17 HS         -1.5840   -2.7990    0.3040 hs        1 L98      0.209800
     18 H11A       -1.9890    0.0330    1.9610 h1        1 L98      0.079200
     19 H12        -3.2630   -0.7660    0.9500 h1        1 L98      0.079200
     20 H2         -1.5380   -0.6770   -1.0110 hc        1 L98      0.054700
     21 H4          0.7840   -0.8960   -0.8770 ha        1 L98      0.132000
     22 H6         -1.1560    2.4730    0.9920 ha        1 L98      0.190000
     23 H7          1.0920    3.5030    1.4500 ha        1 L98      0.118000
     24 H8          3.1720    2.3260    0.8070 ha        1 L98      0.111000
     25 HN9         4.1320    0.4910   -0.3020 hn        1 L98      0.391800
     26 H11         4.7420   -1.8050   -1.6230 hn        1 L98      0.390400
     27 H121        2.7880   -2.9300    1.0400 hn        1 L98      0.408300
     28 H122        1.9810   -1.4910    1.2240 hn        1 L98      0.408300
@<TRIPOS>BOND
     1    1    2 1   
     2    1   17 1   
     3    2    3 1   
     4    2   18 1   
     5    2   19 1   
     6    3    4 1   
     7    3   14 1   
     8    3   20 1   
     9    4    5 ar  
    10    4    7 ar  
    11    5    6 ar  
    12    5   21 1   
    13    6    9 ar  
    14    6   10 1   
    15    7    8 ar  
    16    7   22 1   
    17    8    9 ar  
    18    8   23 1   
    19    9   24 1   
    20   10   11 1   
    21   10   25 1   
    22   11   12 2   
    23   11   13 1   
    24   12   26 1   
    25   13   27 1   
    26   13   28 1   
    27   14   15 1   
    28   14   16 1   
@<TRIPOS>SUBSTRUCTURE
     1 L98         1 TEMP              0 ****  ****    0 ROOT
