@<TRIPOS>MOLECULE
L98
   28    28     1     0     0
SMALL
bcc


@<TRIPOS>ATOM
      1 S           1.5970    1.7140   -0.2570 sh        1 L98     -0.495900
      2 C1          1.7980   -0.0310    0.0900 c3        1 L98      0.077700
      3 C2          2.3470   -0.3580    1.4570 c3        1 L98     -0.178400
      4 C3          3.8150   -0.1130    1.5340 ca        1 L98     -0.001300
      5 C4          4.2940    1.0650    2.1150 ca        1 L98     -0.159000
      6 C5          5.6760    1.3450    2.1450 ca        1 L98      0.080600
      7 C6          4.7260   -1.0430    1.0120 ca        1 L98     -0.128000
      8 C7          6.0910   -0.7860    1.0650 ca        1 L98     -0.124000
      9 C8          6.5760    0.4010    1.6110 ca        1 L98     -0.190000
     10 N9          6.1520    2.5290    2.7690 nh        1 L98     -0.712600
     11 C10         5.5750    3.8040    2.3660 c2        1 L98      0.753100
     12 N11         5.5880    4.8560    3.1490 n2        1 L98     -0.878100
     13 N12         5.0280    3.9120    1.0580 nh        1 L98     -0.900800
     14 C13         1.9830   -1.8510    1.7800 c         1 L98      0.926600
     15 O14         2.2970   -2.7350    0.9380 o         1 L98     -0.822300
     16 O15         1.3630   -2.0550    2.8560 o         1 L98     -0.822300
     17 HS          0.8570    2.0580    0.7830 hs        1 L98      0.209800
     18 H11A        2.4840   -0.4030   -0.7090 h1        1 L98      0.079200
     19 H12         0.8060   -0.5300   -0.0370 h1        1 L98      0.079200
     20 H2          1.8240    0.2690    2.2320 hc        1 L98      0.054700
     21 H4          3.5790    1.7770    2.5540 ha        1 L98      0.132000
     22 H6          4.3310   -1.9850    0.5850 ha        1 L98      0.190000
     23 H7          6.8010   -1.5250    0.6670 ha        1 L98      0.118000
     24 H8          7.6590    0.5880    1.6280 ha        1 L98      0.111000
     25 HN9         7.1530    2.5780    2.7710 hn        1 L98      0.391800
     26 H11         6.0630    4.7340    4.0160 hn        1 L98      0.390400
     27 H121        4.6310    3.0650    0.7010 hn        1 L98      0.408300
     28 H122        4.4200    4.6940    0.9390 hn        1 L98      0.408300
@<TRIPOS>BOND
     1    1    2 1   
     2    1   17 1   
     3    2    3 1   
     4    2   18 1   
     5    2   19 1   
     6    3    4 1   
     7    3   14 1   
     8    3   20 1   
     9    4    5 ar  
    10    4    7 ar  
    11    5    6 ar  
    12    5   21 1   
    13    6    9 ar  
    14    6   10 1   
    15    7    8 ar  
    16    7   22 1   
    17    8    9 ar  
    18    8   23 1   
    19    9   24 1   
    20   10   11 1   
    21   10   25 1   
    22   11   12 2   
    23   11   13 1   
    24   12   26 1   
    25   13   27 1   
    26   13   28 1   
    27   14   15 1   
    28   14   16 1   
@<TRIPOS>SUBSTRUCTURE
     1 L98         1 TEMP              0 ****  ****    0 ROOT
