@<TRIPOS>MOLECULE
L98
   29    29     1     0     0
SMALL
bcc


@<TRIPOS>ATOM
      1 S           1.9700    2.2180    0.5820 sh        1 L98     -0.537900
      2 C1          1.8690    0.3920    0.4660 c3        1 L98      0.122700
      3 C2          2.4350   -0.3910    1.6110 c3        1 L98     -0.224400
      4 C3          3.9060   -0.2090    1.7340 ca        1 L98     -0.007300
      5 C4          4.3730    0.9720    2.3130 ca        1 L98     -0.207000
      6 C5          5.7380    1.3170    2.2390 ca        1 L98     -0.004400
      7 C6          4.8370   -1.1350    1.2350 ca        1 L98     -0.075000
      8 C7          6.1990   -0.8480    1.2820 ca        1 L98     -0.131000
      9 C8          6.6640    0.3840    1.7490 ca        1 L98     -0.111000
     10 N9          6.1620    2.6360    2.5920 nu        1 L98     -0.689600
     11 C10         5.3970    3.7100    2.0550 c2        1 L98      0.706100
     12 N11         5.2980    4.9390    2.4610 n2        1 L98     -0.817100
     13 N12         4.6970    3.4130    0.7560 nz        1 L98     -0.866600
     14 C13         2.0280   -1.9110    1.3580 c         1 L98      0.938600
     15 O14         1.3600   -2.4420    2.2700 o         1 L98     -0.783800
     16 O15         2.4010   -2.4150    0.2700 o         1 L98     -0.783800
     17 HS          1.3780    2.4050    1.7570 hs        1 L98      0.253800
     18 H11A        2.4010    0.1630   -0.4890 h1        1 L98      0.101700
     19 H12         0.7820    0.1630    0.3480 h1        1 L98      0.101700
     20 H2          1.9390   -0.0960    2.5760 hc        1 L98      0.072700
     21 H4          3.6560    1.6390    2.8170 ha        1 L98      0.123000
     22 H6          4.4660   -2.0860    0.7970 ha        1 L98      0.216000
     23 H7          6.9250   -1.5940    0.9220 ha        1 L98      0.148000
     24 H8          7.7390    0.6140    1.7250 ha        1 L98      0.144000
     25 HN9         6.3810    2.7440    3.5650 hn        1 L98      0.434800
     26 H11         5.7360    5.1760    3.3240 hn        1 L98      0.447400
     27 H121        5.3030    2.8310    0.1730 hn        1 L98      0.475467
     28 H122        4.4860    4.2850    0.2670 hn        1 L98      0.475467
     29 H123        3.7510    2.8650    0.9240 hn        1 L98      0.475467
@<TRIPOS>BOND
     1    1    2 1   
     2    1   17 1   
     3    2    3 1   
     4    2   18 1   
     5    2   19 1   
     6    3    4 1   
     7    3   14 1   
     8    3   20 1   
     9    4    5 ar  
    10    4    7 ar  
    11    5    6 ar  
    12    5   21 1   
    13    6    9 ar  
    14    6   10 1   
    15    7    8 ar  
    16    7   22 1   
    17    8    9 ar  
    18    8   23 1   
    19    9   24 1   
    20   10   11 1   
    21   10   25 1   
    22   11   12 2   
    23   11   13 1   
    24   12   26 1   
    25   13   27 1   
    26   13   28 1   
    27   13   29 1   
    28   14   15 1   
    29   14   16 1   
@<TRIPOS>SUBSTRUCTURE
     1 L98         1 TEMP              0 ****  ****    0 ROOT
