@<TRIPOS>MOLECULE
L98
   29    29     1     0     0
SMALL
bcc


@<TRIPOS>ATOM
      1 S           2.1200    2.0410    0.4990 sh        1 L98     -0.681900
      2 C1          1.7930    0.2270    0.4400 c3        1 L98      0.167700
      3 C2          2.3710   -0.4650    1.6340 c3        1 L98     -0.212400
      4 C3          3.8340   -0.2230    1.7600 ca        1 L98      0.001700
      5 C4          4.2530    0.9610    2.3750 ca        1 L98     -0.170000
      6 C5          5.6120    1.3310    2.3550 ca        1 L98      0.003600
      7 C6          4.7950   -1.1060    1.2430 ca        1 L98     -0.081000
      8 C7          6.1480   -0.7850    1.3170 ca        1 L98     -0.119000
      9 C8          6.5690    0.4350    1.8430 ca        1 L98     -0.153000
     10 N9          5.9940    2.6090    2.8600 nh        1 L98     -0.682600
     11 C10         5.6350    3.7610    2.1170 c2        1 L98      0.708100
     12 N11         6.1240    4.9630    2.1490 n2        1 L98     -0.826100
     13 N12         4.4030    3.6200    1.2530 n4        1 L98     -0.818600
     14 C13         2.0320   -2.0110    1.4650 c         1 L98      0.935600
     15 O14         1.4280   -2.5380    2.4230 o         1 L98     -0.786300
     16 O15         2.3910   -2.5480    0.3850 o         1 L98     -0.786300
     17 HS          1.3570    2.4340   -0.5140 hs        1 L98      0.259800
     18 H11A        0.6860    0.1080    0.4170 h1        1 L98      0.087700
     19 H12         2.2430   -0.1540   -0.5070 h1        1 L98      0.087700
     20 H2          1.8540   -0.1300    2.5750 hc        1 L98      0.082700
     21 H4          3.5000    1.5850    2.8840 ha        1 L98      0.140000
     22 H6          4.4530   -2.0550    0.7770 ha        1 L98      0.216000
     23 H7          6.8980   -1.4980    0.9390 ha        1 L98      0.147000
     24 H8          7.6410    0.6820    1.8580 ha        1 L98      0.129000
     25 HN9         6.9300    2.6410    3.2190 hn        1 L98      0.439800
     26 H11         6.9310    5.1220    2.7110 hn        1 L98      0.452400
     27 H121        3.5650    3.5770    1.8560 hn        1 L98      0.485467
     28 H122        4.3230    4.4180    0.6170 hn        1 L98      0.485467
     29 H123        4.4130    2.7320    0.7060 hn        1 L98      0.485467
@<TRIPOS>BOND
     1    1    2 1   
     2    1   17 1   
     3    2    3 1   
     4    2   18 1   
     5    2   19 1   
     6    3    4 1   
     7    3   14 1   
     8    3   20 1   
     9    4    5 ar  
    10    4    7 ar  
    11    5    6 ar  
    12    5   21 1   
    13    6    9 ar  
    14    6   10 1   
    15    7    8 ar  
    16    7   22 1   
    17    8    9 ar  
    18    8   23 1   
    19    9   24 1   
    20   10   11 1   
    21   10   25 1   
    22   11   12 2   
    23   11   13 1   
    24   12   26 1   
    25   13   27 1   
    26   13   28 1   
    27   13   29 1   
    28   14   15 1   
    29   14   16 1   
@<TRIPOS>SUBSTRUCTURE
     1 L98         1 TEMP              0 ****  ****    0 ROOT
