@<TRIPOS>MOLECULE
L9G
   48    51     1     0     0
SMALL
bcc


@<TRIPOS>ATOM
      1 C1          0.0070    0.1530   -0.0810 cc        1 L9G     -0.066000
      2 C2          1.4330    0.0900   -0.0440 cc        1 L9G     -0.068300
      3 N3          2.0970    0.0170    1.2190 na        1 L9G     -0.038200
      4 C4          1.3790   -0.0140    2.3920 cc        1 L9G     -0.097300
      5 C5         -0.0020    0.0460    2.3550 cd        1 L9G     -0.069300
      6 C6         -0.6850    0.1330    1.1010 cd        1 L9G     -0.112000
      7 C7          3.4670   -0.0460    0.8980 cc        1 L9G      0.251400
      8 N8          2.4070    0.0750   -1.0360 nd        1 L9G     -0.060000
      9 N9          3.5740   -0.0050   -0.4840 nd        1 L9G     -0.301700
     10 C10        -0.7810    0.0110    3.6210 c3        1 L9G     -0.039100
     11 C11        -1.2260    1.4050    4.0380 c3        1 L9G     -0.026100
     12 C12        -1.8690    1.3890    5.3780 ca        1 L9G     -0.137300
     13 C13        -1.0880    1.2930    6.5510 ca        1 L9G      0.144900
     14 C14        -1.6870    1.2930    7.8210 ca        1 L9G     -0.203000
     15 C15        -3.0850    1.3890    7.9150 ca        1 L9G      0.162900
     16 C16        -3.8730    1.4860    6.7530 ca        1 L9G     -0.170000
     17 C17        -3.2580    1.4860    5.5060 ca        1 L9G     -0.075000
     18 F18         0.2630    1.2020    6.4650 f         1 L9G     -0.150900
     19 F19        -3.6730    1.3890    9.1320 f         1 L9G     -0.123900
     20 C20         4.5650   -0.0900    1.8490 ca        1 L9G     -0.068900
     21 C21         4.5770    0.8110    2.9180 ca        1 L9G     -0.030000
     22 C22         5.6550    0.8310    3.8220 ca        1 L9G     -0.225600
     23 C23         6.7200   -0.0720    3.6530 ca        1 L9G     -0.084000
     24 C24         6.7000   -0.9660    2.5950 ca        1 L9G     -0.135000
     25 C25         5.6340   -0.9940    1.6750 ca        1 L9G      0.061700
     26 C26         5.5850    1.8110    4.8910 c         1 L9G      0.580700
     27 N27         6.8690    2.0600    5.6770 nz        1 L9G     -0.763400
     28 O28         4.6510    2.5060    5.2640 o         1 L9G     -0.423100
     29 C29         5.6680   -1.9620    0.5600 c3        1 L9G     -0.087800
     30 H1         -0.4840    0.2110   -1.0650 ha        1 L9G      0.184000
     31 H4          1.9550   -0.0950    3.3290 h4        1 L9G      0.168000
     32 H6         -1.7860    0.1790    1.1070 ha        1 L9G      0.162000
     33 H10        -1.6820   -0.6470    3.4850 hc        1 L9G      0.067200
     34 H10A       -0.1610   -0.4360    4.4450 hc        1 L9G      0.067200
     35 H11        -0.3330    2.0870    4.0680 hc        1 L9G      0.059200
     36 H11A       -1.9370    1.8150    3.2710 hc        1 L9G      0.059200
     37 H14        -1.0710    1.2190    8.7290 ha        1 L9G      0.167000
     38 H16        -4.9670    1.5630    6.8420 ha        1 L9G      0.164000
     39 H17        -3.8790    1.5660    4.5990 ha        1 L9G      0.148000
     40 H21         3.7450    1.5260    3.0500 ha        1 L9G      0.171000
     41 H23         7.5720   -0.1040    4.3480 ha        1 L9G      0.123000
     42 H24         7.5350   -1.6770    2.4670 ha        1 L9G      0.169000
     43 HN27        7.1190    1.2220    6.2090 hn        1 L9G      0.466133
     44 HN2A        7.6310    2.2840    5.0320 hn        1 L9G      0.466133
     45 H29         5.9480   -1.4360   -0.3920 hc        1 L9G      0.083033
     46 H29A        4.6620   -2.4300    0.4070 hc        1 L9G      0.083033
     47 H29B        6.4150   -2.7730    0.7470 hc        1 L9G      0.083033
     48 H273        6.7300    2.8430    6.3270 hn        1 L9G      0.466133
@<TRIPOS>BOND
     1    1    2 1   
     2    1    6 2   
     3    1   30 1   
     4    2    3 1   
     5    2    8 2   
     6    3    4 1   
     7    3    7 1   
     8    4    5 2   
     9    4   31 1   
    10    5    6 1   
    11    5   10 1   
    12    6   32 1   
    13    7    9 2   
    14    7   20 1   
    15    8    9 1   
    16   10   11 1   
    17   10   33 1   
    18   10   34 1   
    19   11   12 1   
    20   11   35 1   
    21   11   36 1   
    22   12   13 ar  
    23   12   17 ar  
    24   13   14 ar  
    25   13   18 1   
    26   14   15 ar  
    27   14   37 1   
    28   15   16 ar  
    29   15   19 1   
    30   16   17 ar  
    31   16   38 1   
    32   17   39 1   
    33   20   21 ar  
    34   20   25 ar  
    35   21   22 ar  
    36   21   40 1   
    37   22   23 ar  
    38   22   26 1   
    39   23   24 ar  
    40   23   41 1   
    41   24   25 ar  
    42   24   42 1   
    43   25   29 1   
    44   26   27 1   
    45   26   28 2   
    46   27   43 1   
    47   27   44 1   
    48   27   48 1   
    49   29   45 1   
    50   29   46 1   
    51   29   47 1   
@<TRIPOS>SUBSTRUCTURE
     1 L9G         1 TEMP              0 ****  ****    0 ROOT
