@<TRIPOS>MOLECULE
L9G
   47    50     1     0     0
SMALL
bcc


@<TRIPOS>ATOM
      1 C1         -0.6040    3.8380   -0.6350 cc        1 L9G     -0.080000
      2 C2         -1.8220    3.0920   -0.5530 cc        1 L9G     -0.083300
      3 N3         -1.7760    1.7300   -0.1160 na        1 L9G     -0.060200
      4 C4         -0.5820    1.1380    0.2300 cc        1 L9G     -0.064300
      5 C5          0.5910    1.8630    0.1530 cd        1 L9G     -0.103300
      6 C6          0.5670    3.2260   -0.2880 cd        1 L9G     -0.118000
      7 C7         -3.1190    1.3010   -0.1390 cc        1 L9G      0.325400
      8 N8         -3.1420    3.4070   -0.8140 nd        1 L9G     -0.083000
      9 N9         -3.8850    2.3650   -0.5710 nd        1 L9G     -0.329700
     10 C10         1.8850    1.2440    0.5410 c3        1 L9G     -0.031100
     11 C11         2.7510    0.9510   -0.6760 c3        1 L9G     -0.031100
     12 C12         4.0930    0.4490   -0.2800 ca        1 L9G     -0.131300
     13 C13         4.2700   -0.8860    0.1480 ca        1 L9G      0.155900
     14 C14         5.5400   -1.3670    0.5090 ca        1 L9G     -0.205000
     15 C15         6.6410   -0.5000    0.4400 ca        1 L9G      0.151900
     16 C16         6.4780    0.8310    0.0140 ca        1 L9G     -0.179000
     17 C17         5.2120    1.2850   -0.3390 ca        1 L9G     -0.081000
     18 F18         3.2100   -1.7260    0.2150 f         1 L9G     -0.128900
     19 F19         7.8700   -0.9510    0.7860 f         1 L9G     -0.133900
     20 C20        -3.5680   -0.0410    0.2090 ca        1 L9G     -0.102900
     21 C21        -2.8940   -1.1420   -0.3340 ca        1 L9G     -0.069000
     22 C22        -3.3070   -2.4420   -0.0310 ca        1 L9G     -0.151600
     23 C23        -4.3950   -2.6440    0.8230 ca        1 L9G     -0.089000
     24 C24        -5.0640   -1.5500    1.3610 ca        1 L9G     -0.147000
     25 C25        -4.6680   -0.2380    1.0640 ca        1 L9G     -0.007300
     26 C26        -2.5360   -3.5730   -0.6200 c         1 L9G      0.671700
     27 N27        -3.2160   -4.7130   -0.9740 n         1 L9G     -0.670000
     28 O28        -1.3010   -3.5030   -0.7970 o         1 L9G     -0.612100
     29 C29        -5.4130    0.8980    1.6530 c3        1 L9G     -0.065800
     30 H1         -0.6590    4.8810   -0.9760 ha        1 L9G      0.168000
     31 H4         -0.6280    0.0840    0.5590 h4        1 L9G      0.184000
     32 H6          1.5220    3.7710   -0.3370 ha        1 L9G      0.146000
     33 H10         2.4310    1.9420    1.2310 hc        1 L9G      0.062200
     34 H10A        1.7110    0.2850    1.1010 hc        1 L9G      0.062200
     35 H11         2.2410    0.1790   -1.3150 hc        1 L9G      0.061200
     36 H11A        2.8560    1.8830   -1.2930 hc        1 L9G      0.061200
     37 H14         5.6660   -2.4080    0.8390 ha        1 L9G      0.167000
     38 H16         7.3500    1.4980   -0.0370 ha        1 L9G      0.154000
     39 H17         5.0880    2.3270   -0.6750 ha        1 L9G      0.142000
     40 H21        -2.0330   -0.9990   -1.0080 ha        1 L9G      0.157000
     41 H23        -4.7190   -3.6620    1.0900 ha        1 L9G      0.137000
     42 H24        -5.9200   -1.7140    2.0350 ha        1 L9G      0.141000
     43 HN27       -4.2010   -4.7530   -0.9300 hn        1 L9G      0.313500
     44 HN2A       -2.7240   -5.4560   -1.4040 hn        1 L9G      0.313500
     45 H29        -6.0650    1.3720    0.8750 hc        1 L9G      0.059033
     46 H29A       -6.0620    0.5590    2.4980 hc        1 L9G      0.059033
     47 H29B       -4.7090    1.6770    2.0380 hc        1 L9G      0.059033
@<TRIPOS>BOND
     1    1    2 1   
     2    1    6 2   
     3    1   30 1   
     4    2    3 1   
     5    2    8 2   
     6    3    4 1   
     7    3    7 1   
     8    4    5 2   
     9    4   31 1   
    10    5    6 1   
    11    5   10 1   
    12    6   32 1   
    13    7    9 2   
    14    7   20 1   
    15    8    9 1   
    16   10   11 1   
    17   10   33 1   
    18   10   34 1   
    19   11   12 1   
    20   11   35 1   
    21   11   36 1   
    22   12   13 ar  
    23   12   17 ar  
    24   13   14 ar  
    25   13   18 1   
    26   14   15 ar  
    27   14   37 1   
    28   15   16 ar  
    29   15   19 1   
    30   16   17 ar  
    31   16   38 1   
    32   17   39 1   
    33   20   21 ar  
    34   20   25 ar  
    35   21   22 ar  
    36   21   40 1   
    37   22   23 ar  
    38   22   26 1   
    39   23   24 ar  
    40   23   41 1   
    41   24   25 ar  
    42   24   42 1   
    43   25   29 1   
    44   26   27 1   
    45   26   28 2   
    46   27   43 1   
    47   27   44 1   
    48   29   45 1   
    49   29   46 1   
    50   29   47 1   
@<TRIPOS>SUBSTRUCTURE
     1 L9G         1 TEMP              0 ****  ****    0 ROOT
