@<TRIPOS>MOLECULE
L9G
   48    51     1     0     0
SMALL
bcc


@<TRIPOS>ATOM
      1 C1          0.0050    0.1560   -0.0840 cc        1 L9G     -0.066000
      2 C2          1.4310    0.0930   -0.0460 cc        1 L9G     -0.068300
      3 N3          2.0950    0.0190    1.2160 na        1 L9G     -0.038200
      4 C4          1.3760   -0.0130    2.3890 cc        1 L9G     -0.097300
      5 C5         -0.0050    0.0470    2.3520 cd        1 L9G     -0.069300
      6 C6         -0.6870    0.1360    1.0980 cd        1 L9G     -0.112000
      7 C7          3.4650   -0.0440    0.8960 cc        1 L9G      0.251400
      8 N8          2.4060    0.0790   -1.0380 nd        1 L9G     -0.060000
      9 N9          3.5720   -0.0030   -0.4860 nd        1 L9G     -0.301700
     10 C10        -0.7840    0.0110    3.6180 c3        1 L9G     -0.039100
     11 C11        -1.2230    1.4070    4.0390 c3        1 L9G     -0.026100
     12 C12        -1.8640    1.3890    5.3800 ca        1 L9G     -0.137300
     13 C13        -1.0820    1.2870    6.5530 ca        1 L9G      0.144900
     14 C14        -1.6780    1.2860    7.8230 ca        1 L9G     -0.203000
     15 C15        -3.0760    1.3870    7.9190 ca        1 L9G      0.162900
     16 C16        -3.8660    1.4910    6.7580 ca        1 L9G     -0.170000
     17 C17        -3.2520    1.4910    5.5110 ca        1 L9G     -0.075000
     18 F18         0.2690    1.1910    6.4630 f         1 L9G     -0.150900
     19 F19        -3.6630    1.3860    9.1370 f         1 L9G     -0.123900
     20 C20         4.5630   -0.0890    1.8470 ca        1 L9G     -0.068900
     21 C21         4.5740    0.8100    2.9180 ca        1 L9G     -0.030000
     22 C22         5.6520    0.8290    3.8230 ca        1 L9G     -0.225600
     23 C23         6.7170   -0.0740    3.6520 ca        1 L9G     -0.084000
     24 C24         6.6970   -0.9670    2.5940 ca        1 L9G     -0.135000
     25 C25         5.6320   -0.9930    1.6730 ca        1 L9G      0.061700
     26 C26         5.5820    1.8080    4.8920 c         1 L9G      0.580700
     27 N27         6.8650    2.0550    5.6800 n4        1 L9G     -0.763400
     28 O28         4.6480    2.5030    5.2650 o         1 L9G     -0.423100
     29 C29         5.6660   -1.9610    0.5570 c3        1 L9G     -0.087800
     30 H1         -0.4860    0.2160   -1.0670 ha        1 L9G      0.184000
     31 H4          1.9520   -0.0950    3.3260 h4        1 L9G      0.168000
     32 H6         -1.7880    0.1820    1.1040 ha        1 L9G      0.162000
     33 H10        -1.6880   -0.6410    3.4800 hc        1 L9G      0.067200
     34 H10A       -0.1660   -0.4400    4.4410 hc        1 L9G      0.067200
     35 H11        -0.3270    2.0850    4.0710 hc        1 L9G      0.059200
     36 H11A       -1.9330    1.8220    3.2750 hc        1 L9G      0.059200
     37 H14        -1.0620    1.2070    8.7300 ha        1 L9G      0.167000
     38 H16        -4.9590    1.5720    6.8490 ha        1 L9G      0.164000
     39 H17        -3.8740    1.5760    4.6050 ha        1 L9G      0.148000
     40 H21         3.7430    1.5250    3.0500 ha        1 L9G      0.171000
     41 H23         7.5680   -0.1060    4.3480 ha        1 L9G      0.123000
     42 H24         7.5320   -1.6770    2.4650 ha        1 L9G      0.169000
     43 HN27        7.1140    1.2170    6.2110 hn        1 L9G      0.466133
     44 HN2A        7.6280    2.2800    5.0350 hn        1 L9G      0.466133
     45 H29         5.9470   -1.4340   -0.3940 hc        1 L9G      0.083033
     46 H29A        4.6600   -2.4280    0.4030 hc        1 L9G      0.083033
     47 H29B        6.4130   -2.7720    0.7440 hc        1 L9G      0.083033
     48 H273        6.7260    2.8370    6.3310 hn        1 L9G      0.466133
@<TRIPOS>BOND
     1    1    2 1   
     2    1    6 2   
     3    1   30 1   
     4    2    3 1   
     5    2    8 2   
     6    3    4 1   
     7    3    7 1   
     8    4    5 2   
     9    4   31 1   
    10    5    6 1   
    11    5   10 1   
    12    6   32 1   
    13    7    9 2   
    14    7   20 1   
    15    8    9 1   
    16   10   11 1   
    17   10   33 1   
    18   10   34 1   
    19   11   12 1   
    20   11   35 1   
    21   11   36 1   
    22   12   13 ar  
    23   12   17 ar  
    24   13   14 ar  
    25   13   18 1   
    26   14   15 ar  
    27   14   37 1   
    28   15   16 ar  
    29   15   19 1   
    30   16   17 ar  
    31   16   38 1   
    32   17   39 1   
    33   20   21 ar  
    34   20   25 ar  
    35   21   22 ar  
    36   21   40 1   
    37   22   23 ar  
    38   22   26 1   
    39   23   24 ar  
    40   23   41 1   
    41   24   25 ar  
    42   24   42 1   
    43   25   29 1   
    44   26   27 1   
    45   26   28 2   
    46   27   43 1   
    47   27   44 1   
    48   27   48 1   
    49   29   45 1   
    50   29   46 1   
    51   29   47 1   
@<TRIPOS>SUBSTRUCTURE
     1 L9G         1 TEMP              0 ****  ****    0 ROOT
