@<TRIPOS>MOLECULE
L9G
   47    40     1     0     0
SMALL
bcc


@<TRIPOS>ATOM
      1 C1         -1.4390   -0.1120   -3.1040 c1        1 L9G     -0.107750
      2 C2         -0.0280   -0.1110   -3.0180 c1        1 L9G     -0.057000
      3 N3          0.5750   -0.0990   -1.8090 n1        1 L9G     -0.069000
      4 C4         -0.1920   -0.0860   -0.6490 c1        1 L9G     -0.045000
      5 C5         -1.5830   -0.0860   -0.7320 c1        1 L9G     -0.094000
      6 C6         -2.1960   -0.0990   -1.9600 c1        1 L9G     -0.107750
      7 C7          1.9280   -0.1150   -2.0130 c1        1 L9G     -0.088000
      8 N8          0.9440   -0.1350   -3.9730 n1        1 L9G     -0.083000
      9 N9          2.1500   -0.1370   -3.3460 n2        1 L9G     -0.041000
     10 C10        -2.3800   -0.2560    0.5800 c3        1 L9G     -0.116000
     11 C11        -3.4910    0.7830    0.6390 c3        1 L9G     -0.117000
     12 C12        -4.5630    0.3260    1.6240 c2        1 L9G     -0.123000
     13 C13        -5.5690   -0.5310    1.2070 c2        1 L9G      0.116000
     14 C14        -6.5530   -0.9350    2.1000 c1        1 L9G     -0.205000
     15 C15        -6.5280   -0.4810    3.4110 c1        1 L9G      0.116000
     16 C16        -5.5210    0.3760    3.8290 c1        1 L9G     -0.177000
     17 C17        -4.5380    0.7800    2.9360 c1        1 L9G     -0.078000
     18 F18        -5.6070   -0.9510   -0.0650 f         1 L9G     -0.102000
     19 F19        -7.5000   -0.8340    4.2580 f         1 L9G     -0.099000
     20 C20         3.1830   -0.0990   -1.3590 c1        1 L9G     -0.015000
     21 C21         3.7140    1.1030   -0.9100 c1        1 L9G     -0.072000
     22 C22         4.8730    1.1080   -0.1390 c1        1 L9G     -0.132000
     23 C23         5.4980   -0.0860    0.1800 c1        1 L9G     -0.107750
     24 C24         4.9670   -1.2910   -0.2700 c1        1 L9G     -0.107750
     25 C25         3.8110   -1.2970   -1.0380 c1        1 L9G      0.001000
     26 C26         5.4990    2.4370    0.2930 c2        1 L9G      0.347000
     27 N27         6.6310    2.4420    1.1710 n         1 L9G     -0.428000
     28 O28         4.9810    3.4890   -0.0390 o         1 L9G     -0.382000
     29 C29         3.3100   -2.5910   -1.6300 c3        1 L9G     -0.191000
     30 H1         -1.8760   -0.1210   -3.9820 ha        1 L9G      0.150000
     31 H4          0.2410   -0.0770    0.2190 ha        1 L9G      0.182000
     32 H6         -3.1770   -0.0990   -2.0190 ha        1 L9G      0.150000
     33 H10        -2.7720   -1.1580    0.6120 hc        1 L9G      0.100500
     34 H10A       -1.7780   -0.1340    1.3450 hc        1 L9G      0.100500
     35 H11        -3.8880    0.8870   -0.2490 hc        1 L9G      0.101000
     36 H11A       -3.1210    1.6410    0.9340 hc        1 L9G      0.101000
     37 H14        -7.2600   -1.5370    1.8060 ha        1 L9G      0.165000
     38 H16        -5.5030    0.6970    4.7530 ha        1 L9G      0.156000
     39 H17        -3.8300    1.3830    3.2310 ha        1 L9G      0.151000
     40 H21         3.2760    1.9410   -1.1340 ha        1 L9G      0.156000
     41 H23         6.3140   -0.0830    0.7220 ha        1 L9G      0.150000
     42 H24         5.4090   -2.1340   -0.0440 ha        1 L9G      0.150000
     43 HN27        7.0260    1.6530    1.4140 hn        1 L9G      0.227500
     44 HN2A        6.9610    3.2380    1.4900 hn        1 L9G      0.227500
     45 H29         2.3330   -2.6270   -1.5570 hc        1 L9G      0.099000
     46 H29A        3.7010   -3.3430   -1.1450 hc        1 L9G      0.099000
     47 H29B        3.5700   -2.6400   -2.5730 hc        1 L9G      0.099000
@<TRIPOS>BOND
     1    1    6 1   
     2    1   30 1   
     3    2    3 1   
     4    4    5 1   
     5    4   31 1   
     6    5   10 1   
     7    6   32 1   
     8    7    9 1   
     9    7   20 1   
    10    8    9 1   
    11   10   11 1   
    12   10   33 1   
    13   10   34 1   
    14   11   12 1   
    15   11   35 1   
    16   11   36 1   
    17   12   13 1   
    18   12   17 1   
    19   13   14 1   
    20   13   18 1   
    21   14   37 1   
    22   15   16 1   
    23   15   19 1   
    24   16   38 1   
    25   17   39 1   
    26   20   25 1   
    27   21   22 1   
    28   21   40 1   
    29   22   26 1   
    30   23   24 1   
    31   23   41 1   
    32   24   42 1   
    33   25   29 1   
    34   26   27 1   
    35   26   28 1   
    36   27   43 1   
    37   27   44 1   
    38   29   45 1   
    39   29   46 1   
    40   29   47 1   
@<TRIPOS>SUBSTRUCTURE
     1 L9G         1 TEMP              0 ****  ****    0 ROOT
