@<TRIPOS>MOLECULE
L9G
   48    51     1     0     0
SMALL
bcc


@<TRIPOS>ATOM
      1 C1          0.0050    0.1550   -0.0810 cc        1 L9G     -0.066000
      2 C2          1.4310    0.0920   -0.0440 cc        1 L9G     -0.068300
      3 N3          2.0960    0.0190    1.2180 na        1 L9G     -0.038200
      4 C4          1.3780   -0.0130    2.3920 cc        1 L9G     -0.097300
      5 C5         -0.0030    0.0470    2.3550 cd        1 L9G     -0.069300
      6 C6         -0.6860    0.1340    1.1020 cd        1 L9G     -0.112000
      7 C7          3.4660   -0.0440    0.8970 cc        1 L9G      0.251400
      8 N8          2.4040    0.0780   -1.0370 nd        1 L9G     -0.060000
      9 N9          3.5710   -0.0030   -0.4860 nd        1 L9G     -0.301700
     10 C10        -0.7810    0.0100    3.6220 c3        1 L9G     -0.039100
     11 C11        -1.2260    1.4050    4.0400 c3        1 L9G     -0.026100
     12 C12        -1.8680    1.3870    5.3810 ca        1 L9G     -0.137300
     13 C13        -1.0870    1.2910    6.5530 ca        1 L9G      0.144900
     14 C14        -1.6850    1.2900    7.8240 ca        1 L9G     -0.203000
     15 C15        -3.0830    1.3850    7.9180 ca        1 L9G      0.162900
     16 C16        -3.8720    1.4830    6.7560 ca        1 L9G     -0.170000
     17 C17        -3.2570    1.4840    5.5100 ca        1 L9G     -0.075000
     18 F18         0.2640    1.2000    6.4660 f         1 L9G     -0.150900
     19 F19        -3.6700    1.3850    9.1360 f         1 L9G     -0.123900
     20 C20         4.5640   -0.0880    1.8460 ca        1 L9G     -0.068900
     21 C21         4.5770    0.8120    2.9160 ca        1 L9G     -0.030000
     22 C22         5.6550    0.8320    3.8200 ca        1 L9G     -0.225600
     23 C23         6.7200   -0.0710    3.6490 ca        1 L9G     -0.084000
     24 C24         6.7000   -0.9650    2.5920 ca        1 L9G     -0.135000
     25 C25         5.6340   -0.9920    1.6720 ca        1 L9G      0.061700
     26 C26         5.5860    1.8120    4.8890 c         1 L9G      0.580700
     27 N27         6.8690    2.0570    5.6770 n4        1 L9G     -0.763400
     28 O28         4.6530    2.5090    5.2610 o         1 L9G     -0.423100
     29 C29         5.6660   -1.9600    0.5570 c3        1 L9G     -0.087800
     30 H1         -0.4870    0.2140   -1.0640 ha        1 L9G      0.184000
     31 H4          1.9550   -0.0940    3.3280 h4        1 L9G      0.168000
     32 H6         -1.7870    0.1800    1.1090 ha        1 L9G      0.162000
     33 H10        -0.1600   -0.4360    4.4460 hc        1 L9G      0.067200
     34 H10A       -1.6810   -0.6470    3.4860 hc        1 L9G      0.067200
     35 H11        -1.9370    1.8150    3.2740 hc        1 L9G      0.059200
     36 H11A       -0.3330    2.0870    4.0710 hc        1 L9G      0.059200
     37 H14        -1.0680    1.2160    8.7310 ha        1 L9G      0.167000
     38 H16        -4.9660    1.5600    6.8460 ha        1 L9G      0.164000
     39 H17        -3.8790    1.5640    4.6030 ha        1 L9G      0.148000
     40 H21         3.7450    1.5270    3.0480 ha        1 L9G      0.171000
     41 H23         7.5730   -0.1030    4.3440 ha        1 L9G      0.123000
     42 H24         7.5350   -1.6750    2.4620 ha        1 L9G      0.169000
     43 HN27        7.1170    1.2180    6.2080 hn        1 L9G      0.466133
     44 HN2A        6.7300    2.8390    6.3290 hn        1 L9G      0.466133
     45 H29         6.4140   -2.7710    0.7430 hc        1 L9G      0.083033
     46 H29A        4.6600   -2.4280    0.4040 hc        1 L9G      0.083033
     47 H29B        5.9460   -1.4340   -0.3950 hc        1 L9G      0.083033
     48 H273        7.6330    2.2810    5.0340 hn        1 L9G      0.466133
@<TRIPOS>BOND
     1    1    2 1   
     2    1    6 2   
     3    1   30 1   
     4    2    3 1   
     5    2    8 2   
     6    3    4 1   
     7    3    7 1   
     8    4    5 2   
     9    4   31 1   
    10    5    6 1   
    11    5   10 1   
    12    6   32 1   
    13    7    9 2   
    14    7   20 1   
    15    8    9 1   
    16   10   11 1   
    17   10   33 1   
    18   10   34 1   
    19   11   12 1   
    20   11   35 1   
    21   11   36 1   
    22   12   13 ar  
    23   12   17 ar  
    24   13   14 ar  
    25   13   18 1   
    26   14   15 ar  
    27   14   37 1   
    28   15   16 ar  
    29   15   19 1   
    30   16   17 ar  
    31   16   38 1   
    32   17   39 1   
    33   20   21 ar  
    34   20   25 ar  
    35   21   22 ar  
    36   21   40 1   
    37   22   23 ar  
    38   22   26 1   
    39   23   24 ar  
    40   23   41 1   
    41   24   25 ar  
    42   24   42 1   
    43   25   29 1   
    44   26   27 1   
    45   26   28 2   
    46   27   43 1   
    47   27   44 1   
    48   27   48 1   
    49   29   45 1   
    50   29   46 1   
    51   29   47 1   
@<TRIPOS>SUBSTRUCTURE
     1 L9G         1 TEMP              0 ****  ****    0 ROOT
