@<TRIPOS>MOLECULE
L9L
   49    52     1     0     0
SMALL
bcc


@<TRIPOS>ATOM
      1 C1         -5.9970   -1.6630   -0.6720 ca        1 L9L     -0.078000
      2 F1          9.2390    1.6870    0.3210 f         1 L9L     -0.238633
      3 N1         -0.0320   -0.0250   -0.0400 nh        1 L9L     -0.801900
      4 O1        -10.5470    1.8880    0.3530 o         1 L9L     -0.597500
      5 S1         -2.6850    0.5420   -0.2340 ss        1 L9L     -0.130300
      6 C2         -7.3890   -1.5560   -0.7370 ca        1 L9L     -0.165000
      7 F2          9.1840    0.9070   -1.7000 f         1 L9L     -0.238633
      8 N2         -1.6840   -1.8490   -0.0140 nc        1 L9L     -0.684000
      9 C3         -7.9770   -0.3640   -0.3220 ca        1 L9L      0.064600
     10 F3          9.8620   -0.3490   -0.0710 f         1 L9L     -0.238633
     11 N3          2.4880    0.7500    1.3400 n3        1 L9L     -0.901800
     12 C4         -7.1650    0.7200    0.1590 ca        1 L9L     -0.143300
     13 N4         -9.3320   -0.0010   -0.2860 n         1 L9L     -0.481100
     14 C5         -5.7970    0.5950    0.2190 ca        1 L9L     -0.074000
     15 C6         -5.1960   -0.6140   -0.2020 ca        1 L9L     -0.034000
     16 C7          2.4300   -0.2420    0.2890 c3        1 L9L      0.168500
     17 C8         -9.4640    1.3120    0.2120 c         1 L9L      0.699500
     18 C9         -3.7650   -0.7580   -0.1440 cd        1 L9L     -0.145400
     19 C10        -3.0580   -1.9510   -0.0180 cc        1 L9L      0.361200
     20 C11        -1.3260   -0.5510   -0.1210 cd        1 L9L      0.608300
     21 C12         1.0590   -0.9640    0.1370 c3        1 L9L      0.129800
     22 C13         5.5490   -0.1610    1.2670 ca        1 L9L     -0.123000
     23 C14         6.8460    0.3020    1.0570 ca        1 L9L     -0.083000
     24 C15         7.4690    0.0830   -0.1740 ca        1 L9L     -0.171300
     25 C16         6.7980   -0.5930   -1.1950 ca        1 L9L     -0.083000
     26 C17         5.5010   -1.0530   -0.9810 ca        1 L9L     -0.123000
     27 C18         4.8670   -0.8410    0.2500 ca        1 L9L     -0.042300
     28 C20         3.4860   -1.3490    0.4760 c3        1 L9L     -0.037100
     29 C21        -8.0630    1.8590    0.5310 c3        1 L9L     -0.102100
     30 H1         -5.5210   -2.5990   -1.0040 ha        1 L9L      0.139000
     31 HN1         0.1450    0.6290   -0.7810 hn        1 L9L      0.395800
     32 H2         -7.9930   -2.3950   -1.1090 ha        1 L9L      0.144000
     33 HN3         1.8710    1.5120    1.1410 hn        1 L9L      0.355800
     34 HN3A        2.2370    0.3480    2.2220 hn        1 L9L      0.355800
     35 HN4       -10.0750   -0.5860   -0.5650 hn        1 L9L      0.342500
     36 H5         -5.1700    1.4190    0.5920 ha        1 L9L      0.142000
     37 H7          2.6570    0.2920   -0.6820 h1        1 L9L      0.061700
     38 H10        -3.5020   -2.9500    0.0770 h4        1 L9L      0.046100
     39 H12         0.8530   -1.5660    1.0660 h1        1 L9L      0.059200
     40 H12A        1.1320   -1.6850   -0.7270 h1        1 L9L      0.059200
     41 H13         5.0520    0.0210    2.2320 ha        1 L9L      0.144500
     42 H14         7.3790    0.8450    1.8530 ha        1 L9L      0.150000
     43 H16         7.2950   -0.7570   -2.1640 ha        1 L9L      0.150000
     44 H17         4.9740   -1.5870   -1.7860 ha        1 L9L      0.144500
     45 H20         3.4060   -1.7840    1.5080 hc        1 L9L      0.057700
     46 H20A        3.2650   -2.1740   -0.2530 hc        1 L9L      0.057700
     47 H21        -7.9970    2.1180    1.6170 hc        1 L9L      0.096200
     48 H21A       -7.8680    2.7750   -0.0780 hc        1 L9L      0.096200
     49 C19         8.8930    0.5700   -0.3990 c3        1 L9L      0.687200
@<TRIPOS>BOND
     1    1    6 ar  
     2    1   15 ar  
     3    1   30 1   
     4    2   49 1   
     5    3   20 1   
     6    3   21 1   
     7    3   31 1   
     8    4   17 2   
     9    5   18 1   
    10    5   20 1   
    11    6    9 ar  
    12    6   32 1   
    13    7   49 1   
    14    8   19 1   
    15    8   20 2   
    16    9   12 ar  
    17    9   13 1   
    18   10   49 1   
    19   11   16 1   
    20   11   33 1   
    21   11   34 1   
    22   12   14 ar  
    23   12   29 1   
    24   13   17 1   
    25   13   35 1   
    26   14   15 ar  
    27   14   36 1   
    28   15   18 1   
    29   16   21 1   
    30   16   28 1   
    31   16   37 1   
    32   17   29 1   
    33   18   19 2   
    34   19   38 1   
    35   21   39 1   
    36   21   40 1   
    37   22   23 ar  
    38   22   27 ar  
    39   22   41 1   
    40   23   24 ar  
    41   23   42 1   
    42   24   25 ar  
    43   24   49 1   
    44   25   26 ar  
    45   25   43 1   
    46   26   27 ar  
    47   26   44 1   
    48   27   28 1   
    49   28   45 1   
    50   28   46 1   
    51   29   47 1   
    52   29   48 1   
@<TRIPOS>SUBSTRUCTURE
     1 L9L         1 TEMP              0 ****  ****    0 ROOT
