@<TRIPOS>MOLECULE
L9L
   51    52     1     0     0
SMALL
bcc


@<TRIPOS>ATOM
      1 C1          0.9280    1.5820   -1.5540 c1        1 L9L      0.093000
      2 F1        -13.5560    3.5560    4.5510 f         1 L9L     -0.149667
      3 N1         -5.8530   -2.4320    1.9910 n3        1 L9L     -0.326000
      4 O1          3.2140    0.8280    3.8010 o         1 L9L     -0.150000
      5 S1         -3.3970   -1.2790    2.4640 ss        1 L9L      0.373000
      6 C2          1.0820    1.4620   -0.3670 c1        1 L9L     -0.301000
      7 F2        -14.3860    1.5520    4.7150 f         1 L9L     -0.149667
      8 N2         -4.0570   -2.5240    0.2140 n3        1 L9L     -0.238000
      9 C3          1.2590    1.3500    1.0120 c2        1 L9L      0.308000
     10 F3        -14.7960    2.7580    2.9480 f         1 L9L     -0.149667
     11 N3         -7.7610   -0.9890    3.7040 n4        1 L9L     -0.060000
     12 C4          0.1110    1.5420    2.0240 c3        1 L9L     -0.090000
     13 N4          2.4120    1.0700    1.6150 n         1 L9L     -0.216000
     14 C5         -1.0560    0.7010    1.9440 c1        1 L9L     -0.135000
     15 C6         -1.5160   -0.0640    0.8780 c2        1 L9L     -0.180000
     16 C7         -7.9120   -1.0630    2.2120 c3        1 L9L     -0.072000
     17 C8          2.2600    1.0620    3.0830 c2        1 L9L      0.291000
     18 C9         -2.5720   -0.9190    1.0490 c2        1 L9L     -0.173000
     19 C10        -3.0790   -1.7120   -0.1170 c1        1 L9L      0.024000
     20 C11        -4.4620   -2.5710    1.6440 c3        1 L9L     -0.121000
     21 C12        -6.5500   -1.2610    1.5030 c3        1 L9L     -0.109000
     22 C13       -10.1670    1.8390    2.5920 c2        1 L9L     -0.033000
     23 C14       -11.3580    2.3530    3.2330 c2        1 L9L     -0.120000
     24 C15       -12.5760    1.8130    3.1390 c2        1 L9L     -0.169000
     25 C16       -11.4220   -1.4380    3.0190 c1        1 L9L     -0.116000
     26 C17       -10.6770   -0.5400    2.7370 c1        1 L9L     -0.225000
     27 C18        -9.8510    0.5410    2.3780 c2        1 L9L     -0.086000
     28 C20        -8.5870    0.1950    1.6550 c3        1 L9L     -0.142000
     29 C21         0.8150    1.3790    3.3930 c3        1 L9L     -0.166000
     30 H1          0.7890    1.6900   -2.6110 ha        1 L9L      0.275000
     31 HN1        -4.1180   -3.5600    2.0810 h3        1 L9L      0.178000
     32 H2         -1.0750    0.0030   -0.1380 ha        1 L9L      0.141000
     33 HN3        -7.1320   -0.2230    3.9570 hn        1 L9L      0.261667
     34 HN3A       -8.6870   -0.8160    4.1240 hn        1 L9L      0.261667
     35 HN4         3.2890    0.8890    1.1630 hn        1 L9L      0.297000
     36 H5         -0.2720    2.6060    1.9030 hc        1 L9L      0.202000
     37 H7         -8.5850   -1.9550    2.0120 hx        1 L9L      0.162000
     38 H10        -4.4850   -3.1430   -0.4410 hn        1 L9L      0.287000
     39 H12        -5.8980   -0.3550    1.6760 h1        1 L9L      0.124500
     40 H12A       -6.7810   -1.3090    0.3980 h1        1 L9L      0.124500
     41 H13        -9.4580    2.6270    2.2680 ha        1 L9L      0.149000
     42 H14       -11.2060    3.2910    3.8070 ha        1 L9L      0.170000
     43 H16       -12.8090    0.9050    2.5600 ha        1 L9L      0.170000
     44 H17       -12.0920   -2.2290    3.2700 ha        1 L9L      0.256000
     45 H20        -8.8340   -0.0110    0.5750 hc        1 L9L      0.133000
     46 H20A       -7.8710    1.0600    1.6770 hc        1 L9L      0.133000
     47 H21         0.3620    0.5480    3.9960 hc        1 L9L      0.176500
     48 H21A        0.7550    2.3210    3.9990 hc        1 L9L      0.176500
     49 H121       -6.3590   -3.2740    1.7690 hn        1 L9L      0.198000
     50 H33        -7.3790   -1.8680    4.0670 hn        1 L9L      0.261667
     51 C19       -13.7980    2.4180    3.8260 c3        1 L9L      0.451000
@<TRIPOS>BOND
     1    1    6 1   
     2    1   30 1   
     3    2   51 1   
     4    3   20 1   
     5    3   21 1   
     6    3   49 1   
     7    4   17 1   
     8    5   18 1   
     9    5   20 1   
    10    6    9 1   
    11    7   51 1   
    12    8   19 1   
    13    8   20 1   
    14    8   38 1   
    15    9   12 1   
    16    9   13 1   
    17   10   51 1   
    18   11   16 1   
    19   11   33 1   
    20   11   34 1   
    21   11   50 1   
    22   12   14 1   
    23   12   29 1   
    24   12   36 1   
    25   13   17 1   
    26   13   35 1   
    27   14   15 1   
    28   15   18 1   
    29   15   32 1   
    30   16   21 1   
    31   16   28 1   
    32   16   37 1   
    33   17   29 1   
    34   18   19 1   
    35   20   31 1   
    36   21   39 1   
    37   21   40 1   
    38   22   23 1   
    39   22   27 1   
    40   22   41 1   
    41   23   24 1   
    42   23   42 1   
    43   24   43 1   
    44   24   51 1   
    45   25   26 1   
    46   25   44 1   
    47   26   27 1   
    48   27   28 1   
    49   28   45 1   
    50   28   46 1   
    51   29   47 1   
    52   29   48 1   
@<TRIPOS>SUBSTRUCTURE
     1 L9L         1 TEMP              0 ****  ****    0 ROOT
