@<TRIPOS>MOLECULE
L9L
   50    50     1     0     0
SMALL
bcc


@<TRIPOS>ATOM
      1 C1          0.0780    3.2610   -0.0380 c1        1 L9L     -0.002000
      2 F1         -9.8600    3.6500    5.8640 f         1 L9L     -0.135333
      3 N1         -5.8820   -2.9600    0.5790 n2        1 L9L     -0.204000
      4 O1         -4.8810    2.6800    2.7080 o         1 L9L     -0.515000
      5 S1         -3.6210   -3.8300    1.5930 ss        1 L9L      0.432000
      6 C2         -0.7690    2.7580    0.6470 c1        1 L9L     -0.274000
      7 F2        -11.4280    2.1650    5.5560 f         1 L9L     -0.135333
      8 N2         -0.1870   -3.8130    0.2500 n2        1 L9L     -0.179000
      9 C3         -1.7340    2.1150    1.4470 c2        1 L9L      0.192000
     10 F3        -11.2840    3.8860    4.2280 f         1 L9L     -0.135333
     11 N3         -8.5660   -2.1580    1.4820 n3        1 L9L     -0.355000
     12 C4         -2.1970    0.3380    3.9180 c3        1 L9L      0.020000
     13 N4         -2.7230    2.7200    2.0410 n         1 L9L     -0.109000
     14 C5         -2.0920   -0.8240    3.0770 c1        1 L9L     -0.163000
     15 C6         -2.0830   -1.8140    2.4000 c1        1 L9L     -0.113000
     16 C7         -7.7910   -1.3500    0.5620 c3        1 L9L     -0.028000
     17 C8         -3.7750    2.0820    2.8820 c2        1 L9L      0.252000
     18 C9         -2.1560   -2.9710    1.6220 c2        1 L9L     -0.312000
     19 C10        -1.0950   -3.4650    0.9800 c1        1 L9L      0.154000
     20 C11        -4.6100   -2.7890    0.6590 c2        1 L9L     -0.237000
     21 C12        -6.6930   -2.1070   -0.2420 c3        1 L9L     -0.129000
     22 C13        -7.4590    1.3810    3.1890 c2        1 L9L      0.140000
     23 C14        -8.2610    2.1470    4.0800 c2        1 L9L     -0.138000
     24 C15        -9.6160    2.1510    3.9480 c2        1 L9L     -0.054000
     25 C16       -10.2960    1.3840    2.8950 c3        1 L9L     -0.209000
     26 C17        -9.4140    0.6430    1.9910 c2        1 L9L      0.091000
     27 C18        -8.0390    0.6300    2.1490 c2        1 L9L     -0.126000
     28 C20        -7.1360   -0.1430    1.2490 c3        1 L9L     -0.141000
     29 C21        -3.4770    1.0420    3.7170 c2        1 L9L     -0.424000
     30 H1          0.8320    3.7050   -0.6470 ha        1 L9L      0.255000
     31 HN1        -4.0630   -1.9730    0.1370 h5        1 L9L      0.112000
     32 H2         -1.6270    1.0050    1.5650 h4        1 L9L      0.218000
     33 HN3        -8.9410   -2.9530    1.0000 hn        1 L9L      0.166500
     34 HN3A       -7.9920   -2.4890    2.2360 hn        1 L9L      0.166500
     35 HN4        -2.8800    3.7080    1.9000 hn        1 L9L      0.256000
     36 H5         -1.3090    1.0120    3.7510 hc        1 L9L      0.096500
     37 H7         -8.5170   -0.9600   -0.2170 h1        1 L9L      0.093000
     38 H10         0.5100   -4.4970    0.4360 hn        1 L9L      0.256000
     39 H12        -7.2120   -2.7830   -0.9830 h1        1 L9L      0.094000
     40 H12A       -6.1110   -1.3400   -0.8320 h1        1 L9L      0.094000
     41 H13        -6.3470    1.4010    3.3170 ha        1 L9L      0.242000
     42 H14        -7.7550    2.7380    4.8700 ha        1 L9L      0.208000
     43 H16       -10.9640    2.0830    2.2900 hc        1 L9L      0.221500
     44 H17       -11.0250    0.6500    3.3780 hc        1 L9L      0.221500
     45 H20        -6.7520    0.5510    0.4500 hc        1 L9L      0.124500
     46 H20A       -6.2450   -0.4910    1.8420 hc        1 L9L      0.124500
     47 H21        -2.1340    0.0020    4.9960 hc        1 L9L      0.096500
     48 H21A       -4.3100    0.6870    4.3410 ha        1 L9L      0.141000
     49 H33        -9.9040    0.0810    1.1720 ha        1 L9L      0.196000
     50 C19       -10.5260    2.9560    4.8920 c3        1 L9L      0.456000
@<TRIPOS>BOND
     1    1    6 1   
     2    1   30 1   
     3    2   50 1   
     4    3   20 1   
     5    3   21 1   
     6    4   17 1   
     7    5   18 1   
     8    5   20 1   
     9    6    9 1   
    10    7   50 1   
    11    8   19 1   
    12    8   38 1   
    13    9   13 1   
    14    9   32 1   
    15   10   50 1   
    16   11   16 1   
    17   11   33 1   
    18   11   34 1   
    19   12   14 1   
    20   12   29 1   
    21   12   36 1   
    22   12   47 1   
    23   13   17 1   
    24   13   35 1   
    25   14   15 1   
    26   15   18 1   
    27   16   21 1   
    28   16   28 1   
    29   16   37 1   
    30   17   29 1   
    31   18   19 1   
    32   20   31 1   
    33   21   39 1   
    34   21   40 1   
    35   22   23 1   
    36   22   27 1   
    37   22   41 1   
    38   23   24 1   
    39   23   42 1   
    40   24   25 1   
    41   24   50 1   
    42   25   26 1   
    43   25   43 1   
    44   25   44 1   
    45   26   27 1   
    46   26   49 1   
    47   27   28 1   
    48   28   45 1   
    49   28   46 1   
    50   29   48 1   
@<TRIPOS>SUBSTRUCTURE
     1 L9L         1 TEMP              0 ****  ****    0 ROOT
