@<TRIPOS>MOLECULE
L9L
   50    50     1     0     0
SMALL
bcc


@<TRIPOS>ATOM
      1 C1          5.8500    2.0660   -0.1130 c1        1 L9L     -0.137000
      2 F1        -15.6950    1.1760    2.5310 f         1 L9L     -0.131333
      3 N1         -6.2630   -0.8050    2.5060 n2        1 L9L     -0.225000
      4 O1          0.6620   -0.4420    1.1280 o         1 L9L     -0.377000
      5 S1         -4.3250   -2.2450    1.4700 ss        1 L9L      0.431000
      6 C2          4.9880    1.3870    0.3670 c1        1 L9L     -0.150000
      7 F2        -15.5090    1.3690    4.6980 f         1 L9L     -0.131333
      8 N2         -3.4960   -3.1400   -2.0030 n2        1 L9L     -0.173000
      9 C3          4.0000    0.5780    0.9480 c2        1 L9L      0.129000
     10 F3        -15.2860   -0.5860    3.7550 f         1 L9L     -0.131333
     11 N3         -8.8710   -0.8880    3.8150 n8        1 L9L     -0.363000
     12 C4          4.1540   -0.3460    1.9490 c2        1 L9L     -0.221000
     13 N4          2.6430    0.6400    0.5260 ns        1 L9L     -0.336000
     14 C5         -2.7070    0.5950   -0.0830 c1        1 L9L      0.195000
     15 C6         -2.4770   -0.6520    0.2570 c2        1 L9L     -0.430000
     16 C7         -8.5140    0.1460    2.8620 c3        1 L9L     -0.027000
     17 C8          1.8810   -0.2700    1.2710 c2        1 L9L      0.313000
     18 C9         -3.3580   -1.7960    0.1520 c2        1 L9L     -0.337000
     19 C10        -3.3690   -2.5530   -0.9390 c1        1 L9L      0.117000
     20 C11        -5.2830   -0.8470    1.6730 c2        1 L9L     -0.226000
     21 C12        -6.9900    0.4170    2.7130 c3        1 L9L     -0.118000
     22 C13       -11.4940    1.7460    2.3040 c2        1 L9L      0.112000
     23 C14       -12.9010    1.5640    2.3820 c2        1 L9L     -0.141000
     24 C15       -13.4530    0.9740    3.4810 c2        1 L9L     -0.049000
     25 C16       -12.6340    0.5190    4.6110 c3        1 L9L     -0.219000
     26 C17       -11.2000    0.7640    4.4850 c2        1 L9L      0.122000
     27 C18       -10.6500    1.3470    3.3470 c2        1 L9L     -0.119000
     28 C20        -9.1720    1.4950    3.2270 c3        1 L9L     -0.145000
     29 C21         2.8250   -0.9770    2.2540 c3        1 L9L     -0.154000
     30 H1          6.6170    2.6660   -0.5360 ha        1 L9L      0.235000
     31 HN1        -4.9650    0.0240    1.0520 h5        1 L9L      0.123000
     32 H2         -1.4670   -0.8580    0.7040 ha        1 L9L      0.244000
     33 HN3        -8.2700   -0.8410    4.6180 hn        1 L9L      0.168500
     34 HN3A      -10.5530    0.4610    5.3330 ha        1 L9L      0.203000
     35 HN4         2.3100    1.2380   -0.1830 hn        1 L9L      0.258000
     36 H5          5.0720   -0.6130    2.4670 ha        1 L9L      0.170000
     37 H7         -8.9130   -0.1660    1.8510 h1        1 L9L      0.102000
     38 H10        -3.0060   -3.9690   -2.2560 hn        1 L9L      0.236000
     39 H12        -6.6110    0.8830    3.6680 h1        1 L9L      0.088500
     40 H12A       -6.8560    1.1770    1.8900 h1        1 L9L      0.088500
     41 H13       -11.0670    2.2120    1.3930 ha        1 L9L      0.193000
     42 H14       -13.5340    1.9020    1.5370 ha        1 L9L      0.206000
     43 H16       -12.8000   -0.6030    4.7690 hc        1 L9L      0.235500
     44 H17       -13.0240    0.9840    5.5790 hc        1 L9L      0.235500
     45 H20        -8.9150    2.2400    2.4270 hc        1 L9L      0.118500
     46 H20A       -8.7490    1.8770    4.1940 hc        1 L9L      0.118500
     47 H21         2.8250   -2.0780    2.0620 hc        1 L9L      0.137000
     48 H21A        2.4970   -0.7860    3.3050 hc        1 L9L      0.137000
     49 H33        -8.7530   -1.7920    3.3940 hn        1 L9L      0.168500
     50 C19       -14.9700    0.7400    3.6050 c3        1 L9L      0.458000
@<TRIPOS>BOND
     1    1    6 1   
     2    1   30 1   
     3    2   50 1   
     4    3   20 1   
     5    3   21 1   
     6    4   17 1   
     7    5   18 1   
     8    5   20 1   
     9    6    9 1   
    10    7   50 1   
    11    8   19 1   
    12    8   38 1   
    13    9   12 1   
    14    9   13 1   
    15   10   50 1   
    16   11   16 1   
    17   11   33 1   
    18   11   49 1   
    19   12   29 1   
    20   12   36 1   
    21   13   17 1   
    22   13   35 1   
    23   14   15 1   
    24   15   18 1   
    25   15   32 1   
    26   16   21 1   
    27   16   28 1   
    28   16   37 1   
    29   17   29 1   
    30   18   19 1   
    31   20   31 1   
    32   21   39 1   
    33   21   40 1   
    34   22   23 1   
    35   22   27 1   
    36   22   41 1   
    37   23   24 1   
    38   23   42 1   
    39   24   25 1   
    40   24   50 1   
    41   25   26 1   
    42   25   43 1   
    43   25   44 1   
    44   26   27 1   
    45   26   34 1   
    46   27   28 1   
    47   28   45 1   
    48   28   46 1   
    49   29   47 1   
    50   29   48 1   
@<TRIPOS>SUBSTRUCTURE
     1 L9L         1 TEMP              0 ****  ****    0 ROOT
