@<TRIPOS>MOLECULE
L9Q
  130   127     1     0     0
SMALL
bcc


@<TRIPOS>ATOM
      1 N          -3.9060   -9.4240   -4.9050 n3        1 L9Q     -0.338000
      2 P          -4.3710   -6.3790   -0.9700 p3        1 L9Q      2.527000
      3 C1         -3.5590   -4.9960    1.1310 c3        1 L9Q      0.034000
      4 C2         -2.9160   -3.6620    1.4790 c3        1 L9Q      0.006000
      5 O2         -3.5410   -3.1220    2.6140 os        1 L9Q     -0.283000
      6 C3         -1.4260   -3.8750    1.7690 c3        1 L9Q     -0.029000
      7 O3         -0.6570   -3.3900    0.6810 os        1 L9Q     -0.268000
      8 C4         -4.2260   -7.9460   -3.0770 c3        1 L9Q      0.003000
      9 C5         -3.2800   -8.8870   -3.7700 c3        1 L9Q     -0.125000
     10 C11         0.7460   -3.2440    0.9780 c2        1 L9Q      0.303000
     11 O11         1.3100   -4.0650    1.7000 o         1 L9Q     -0.374000
     12 C12         1.5350   -2.0810    0.3800 c3        1 L9Q     -0.159000
     13 C13         2.8650   -2.6220   -0.2590 c3        1 L9Q     -0.157000
     14 C14         3.5850   -1.4780   -0.9850 c3        1 L9Q     -0.157000
     15 C15         4.6100   -2.0610   -1.9730 c3        1 L9Q     -0.158000
     16 C16         5.1410   -0.9220   -2.9050 c3        1 L9Q     -0.157000
     17 C17         5.6000   -1.5260   -4.2450 c3        1 L9Q     -0.158000
     18 C18         5.9350   -0.3870   -5.2360 c3        1 L9Q     -0.157000
     19 C19         5.7590   -0.8860   -6.6640 c3        1 L9Q     -0.158000
     20 O1P        -5.5360   -5.7140   -1.6530 o         1 L9Q     -1.134000
     21 C20         6.0870    0.2340   -7.6390 c3        1 L9Q     -0.157000
     22 C21         5.4500   -0.0690   -8.9940 c3        1 L9Q     -0.158000
     23 C22         6.0100    0.8750  -10.0360 c3        1 L9Q     -0.157000
     24 C23         5.1830    0.7640  -11.3210 c3        1 L9Q     -0.158000
     25 C24         5.9200    1.4520  -12.4620 c3        1 L9Q     -0.157000
     26 C25         5.0120    1.5060  -13.6920 c3        1 L9Q     -0.158000
     27 C26         5.7900    2.0440  -14.8730 c3        1 L9Q     -0.158000
     28 C27         4.8670    2.1090  -16.1080 c3        1 L9Q     -0.159000
     29 C28         5.6640    2.5740  -17.3170 c3        1 L9Q     -0.210000
     30 O2P        -4.8800   -7.3190    0.0890 o         1 L9Q     -1.134000
     31 C31        -4.6960   -2.3530    2.3230 c2        1 L9Q      0.309000
     32 O31        -4.9040   -1.9720    1.1840 o         1 L9Q     -0.352000
     33 C32        -5.6640   -1.9690    3.4480 c3        1 L9Q     -0.161000
     34 C33        -6.2120   -0.5680    3.1940 c3        1 L9Q     -0.157000
     35 C34        -6.7970    0.0000    4.5050 c3        1 L9Q     -0.157000
     36 C35        -6.9170    1.5000    4.3960 c3        1 L9Q     -0.157000
     37 C36        -6.8430    2.1290    5.8170 c3        1 L9Q     -0.158000
     38 C37        -6.4900    3.6120    5.7030 c3        1 L9Q     -0.156000
     39 C38        -5.6760    4.0570    6.9710 c3        1 L9Q     -0.133000
     40 C39        -4.7320    5.2160    6.5940 c2        1 L9Q     -0.163000
     41 O3P        -3.4220   -5.2410   -0.2780 o         1 L9Q     -0.737000
     42 C40        -3.7940    5.6510    7.4840 c1        1 L9Q     -0.177000
     43 C41        -3.6780    5.0020    8.8320 c2        1 L9Q     -0.131000
     44 C42        -2.2930    5.2530    9.3910 c3        1 L9Q     -0.155000
     45 C43        -2.3200    5.1080   10.9260 c3        1 L9Q     -0.159000
     46 C44        -0.8930    4.8110   11.4410 c3        1 L9Q     -0.157000
     47 C45        -0.9420    4.5130   12.9620 c3        1 L9Q     -0.158000
     48 C46         0.5090    4.2130   13.4860 c3        1 L9Q     -0.158000
     49 C47         0.4380    3.7540   14.9640 c3        1 L9Q     -0.159000
     50 C48         1.8370    3.7040   15.5460 c3        1 L9Q     -0.210000
     51 O4P        -3.5140   -7.2070   -2.0550 os        1 L9Q     -0.732000
     52 HN         -4.7900   -9.5480   -4.7330 hn        1 L9Q      0.126500
     53 HNA        -3.8110   -8.8470   -5.6060 hn        1 L9Q      0.126500
     54 H1         -4.5160   -4.9710    1.3690 h1        1 L9Q      0.086000
     55 H1A        -3.1200   -5.7050    1.6270 h1        1 L9Q      0.086000
     56 H2         -3.0180   -3.0390    0.7180 h1        1 L9Q      0.146000
     57 H3         -1.2490   -4.8350    1.8920 h1        1 L9Q      0.117500
     58 H3A        -1.1770   -3.3850    2.5920 h1        1 L9Q      0.117500
     59 H4         -4.6000   -7.3220   -3.7300 h1        1 L9Q      0.066500
     60 H4A        -4.9530   -8.4610   -2.6620 h1        1 L9Q      0.066500
     61 H5         -2.4820   -8.4040   -4.0380 h1        1 L9Q      0.094000
     62 H5A        -3.0370   -9.6040   -3.1650 h1        1 L9Q      0.094000
     63 H12         1.7520   -1.4300    1.0920 hc        1 L9Q      0.114500
     64 H12A        0.9950   -1.6410   -0.3120 hc        1 L9Q      0.114500
     65 H13         3.4490   -2.9810    0.4490 hc        1 L9Q      0.096000
     66 H13A        2.6540   -3.3320   -0.8990 hc        1 L9Q      0.096000
     67 H14         2.9350   -0.9440   -1.4690 hc        1 L9Q      0.078000
     68 H14A        4.0430   -0.9200   -0.3350 hc        1 L9Q      0.078000
     69 H15         5.3630   -2.4540   -1.4720 hc        1 L9Q      0.081500
     70 H15A        4.1800   -2.7560   -2.5180 hc        1 L9Q      0.081500
     71 H16         5.8920   -0.4760   -2.4770 hc        1 L9Q      0.077500
     72 H16A        4.4270   -0.2740   -3.0680 hc        1 L9Q      0.077500
     73 H17         6.3960   -2.0770   -4.0990 hc        1 L9Q      0.079000
     74 H17A        4.8800   -2.0830   -4.6170 hc        1 L9Q      0.079000
     75 H18         5.3320    0.3730   -5.0780 hc        1 L9Q      0.078000
     76 H18A        6.8620   -0.1010   -5.1030 hc        1 L9Q      0.078000
     77 H19         4.8330   -1.1730   -6.7970 hc        1 L9Q      0.079000
     78 H19A        6.3560   -1.6360   -6.8200 hc        1 L9Q      0.079000
     79 H20         7.0600    0.3030   -7.7420 hc        1 L9Q      0.078500
     80 H20A        5.7330    1.0840   -7.2930 hc        1 L9Q      0.078500
     81 H21         4.4780    0.0510   -8.9320 hc        1 L9Q      0.078500
     82 H21A        5.6490   -0.9910   -9.2490 hc        1 L9Q      0.078500
     83 H22         5.9690    1.7960   -9.6980 hc        1 L9Q      0.078500
     84 H22A        6.9440    0.6360  -10.2260 hc        1 L9Q      0.078500
     85 H23         4.3120    1.1960  -11.1870 hc        1 L9Q      0.078500
     86 H23A        5.0480   -0.1840  -11.5430 hc        1 L9Q      0.078500
     87 H24         6.1610    2.3620  -12.1930 hc        1 L9Q      0.078500
     88 H24A        6.7320    0.9490  -12.6770 hc        1 L9Q      0.078500
     89 H25         4.2520    2.0920  -13.5100 hc        1 L9Q      0.078500
     90 H25A        4.6890    0.6060  -13.8980 hc        1 L9Q      0.078500
     91 H26         6.1200    2.9420  -14.6650 hc        1 L9Q      0.078500
     92 H26A        6.5460    1.4540  -15.0600 hc        1 L9Q      0.078500
     93 H27         4.1380    2.7380  -15.9360 hc        1 L9Q      0.077500
     94 H27A        4.4940    1.2140  -16.2860 hc        1 L9Q      0.077500
     95 H28         5.1130    2.4920  -18.1210 hc        1 L9Q      0.070667
     96 H28A        5.9260    3.5110  -17.1950 hc        1 L9Q      0.070667
     97 H28B        6.4700    2.0180  -17.4130 hc        1 L9Q      0.070667
     98 H32        -5.1920   -1.9840    4.3020 hc        1 L9Q      0.114000
     99 H32A       -6.3990   -2.6040    3.4740 hc        1 L9Q      0.114000
    100 H33        -5.4850    0.0170    2.8790 hc        1 L9Q      0.094500
    101 H33A       -6.9140   -0.6100    2.5150 hc        1 L9Q      0.094500
    102 H34        -6.2050   -0.2250    5.2500 hc        1 L9Q      0.078500
    103 H34A       -7.6790   -0.3860    4.6620 hc        1 L9Q      0.078500
    104 H35        -6.1860    1.8460    3.8470 hc        1 L9Q      0.080500
    105 H35A       -7.7780    1.7300    3.9790 hc        1 L9Q      0.080500
    106 H36        -7.7150    2.0330    6.2630 hc        1 L9Q      0.078500
    107 H36A       -6.1570    1.6690    6.3400 hc        1 L9Q      0.078500
    108 H37        -7.3170    4.1430    5.6400 hc        1 L9Q      0.080500
    109 H37A       -5.9520    3.7560    4.9080 hc        1 L9Q      0.080500
    110 H38        -6.3000    4.3560    7.6720 hc        1 L9Q      0.087000
    111 H38A       -5.1490    3.3000    7.3040 hc        1 L9Q      0.087000
    112 H39        -4.8050    5.6380    5.7200 ha        1 L9Q      0.122000
    113 H40        -3.1900    6.3940    7.2410 ha        1 L9Q      0.119000
    114 H41        -4.3430    5.3790    9.4310 ha        1 L9Q      0.087000
    115 H41A       -3.8260    4.0390    8.7450 ha        1 L9Q      0.087000
    116 H42        -2.0070    6.1570    9.1560 hc        1 L9Q      0.079000
    117 H42A       -1.6640    4.6030    9.0120 hc        1 L9Q      0.079000
    118 H43        -2.9210    4.3660   11.1750 hc        1 L9Q      0.080000
    119 H43A       -2.6430    5.9360   11.3250 hc        1 L9Q      0.080000
    120 H44        -0.3230    5.5830   11.2790 hc        1 L9Q      0.078000
    121 H44A       -0.5300    4.0300   10.9660 hc        1 L9Q      0.078000
    122 H45        -1.5210    3.7270   13.1260 hc        1 L9Q      0.079000
    123 H45A       -1.3050    5.2880   13.4350 hc        1 L9Q      0.079000
    124 H46         0.9150    3.5000   12.9400 hc        1 L9Q      0.078000
    125 H46A        1.0540    5.0250   13.4220 hc        1 L9Q      0.078000
    126 H47        -0.1020    4.3820   15.4720 hc        1 L9Q      0.078000
    127 H47A        0.0350    2.8690   15.0100 hc        1 L9Q      0.078000
    128 H48         2.3230    2.9470   15.1630 hc        1 L9Q      0.070667
    129 H48A        2.3080    4.5350   15.3350 hc        1 L9Q      0.070667
    130 H48B        1.7810    3.5980   16.5220 hc        1 L9Q      0.070667
@<TRIPOS>BOND
     1    1    9 1   
     2    1   52 1   
     3    1   53 1   
     4    2   20 1   
     5    2   30 1   
     6    2   51 1   
     7    3    4 1   
     8    3   41 1   
     9    3   54 1   
    10    3   55 1   
    11    4    5 1   
    12    4    6 1   
    13    4   56 1   
    14    5   31 1   
    15    6    7 1   
    16    6   57 1   
    17    6   58 1   
    18    7   10 1   
    19    8    9 1   
    20    8   51 1   
    21    8   59 1   
    22    8   60 1   
    23    9   61 1   
    24    9   62 1   
    25   10   11 1   
    26   10   12 1   
    27   12   13 1   
    28   12   63 1   
    29   12   64 1   
    30   13   14 1   
    31   13   65 1   
    32   13   66 1   
    33   14   15 1   
    34   14   67 1   
    35   14   68 1   
    36   15   16 1   
    37   15   69 1   
    38   15   70 1   
    39   16   17 1   
    40   16   71 1   
    41   16   72 1   
    42   17   18 1   
    43   17   73 1   
    44   17   74 1   
    45   18   19 1   
    46   18   75 1   
    47   18   76 1   
    48   19   21 1   
    49   19   77 1   
    50   19   78 1   
    51   21   22 1   
    52   21   79 1   
    53   21   80 1   
    54   22   23 1   
    55   22   81 1   
    56   22   82 1   
    57   23   24 1   
    58   23   83 1   
    59   23   84 1   
    60   24   25 1   
    61   24   85 1   
    62   24   86 1   
    63   25   26 1   
    64   25   87 1   
    65   25   88 1   
    66   26   27 1   
    67   26   89 1   
    68   26   90 1   
    69   27   28 1   
    70   27   91 1   
    71   27   92 1   
    72   28   29 1   
    73   28   93 1   
    74   28   94 1   
    75   29   95 1   
    76   29   96 1   
    77   29   97 1   
    78   31   32 1   
    79   31   33 1   
    80   33   34 1   
    81   33   98 1   
    82   33   99 1   
    83   34   35 1   
    84   34  100 1   
    85   34  101 1   
    86   35   36 1   
    87   35  102 1   
    88   35  103 1   
    89   36   37 1   
    90   36  104 1   
    91   36  105 1   
    92   37   38 1   
    93   37  106 1   
    94   37  107 1   
    95   38   39 1   
    96   38  108 1   
    97   38  109 1   
    98   39   40 1   
    99   39  110 1   
   100   39  111 1   
   101   40   42 1   
   102   40  112 1   
   103   42  113 1   
   104   43   44 1   
   105   43  114 1   
   106   43  115 1   
   107   44   45 1   
   108   44  116 1   
   109   44  117 1   
   110   45   46 1   
   111   45  118 1   
   112   45  119 1   
   113   46   47 1   
   114   46  120 1   
   115   46  121 1   
   116   47   48 1   
   117   47  122 1   
   118   47  123 1   
   119   48   49 1   
   120   48  124 1   
   121   48  125 1   
   122   49   50 1   
   123   49  126 1   
   124   49  127 1   
   125   50  128 1   
   126   50  129 1   
   127   50  130 1   
@<TRIPOS>SUBSTRUCTURE
     1 L9Q         1 TEMP              0 ****  ****    0 ROOT
