@<TRIPOS>MOLECULE
L9Q
  130   129     1     0     0
SMALL
bcc


@<TRIPOS>ATOM
      1 N          -0.8610   -3.2720    1.1110 n3        1 L9Q     -0.917800
      2 P           0.7710   -6.4530    2.4290 p5        1 L9Q      1.421800
      3 C1         -1.2210   -7.1590    0.9040 c3        1 L9Q      0.175400
      4 C2         -1.3750   -6.6990   -0.5550 c3        1 L9Q      0.119100
      5 O2         -2.0060   -5.4080   -0.6080 os        1 L9Q     -0.401900
      6 C3         -0.0570   -6.5680   -1.3200 c3        1 L9Q      0.140400
      7 O3          0.4650   -5.2580   -1.0650 os        1 L9Q     -0.417900
      8 C4          0.8060   -3.9150    2.9260 c3        1 L9Q      0.148400
      9 C5          0.1710   -2.8440    2.0220 c3        1 L9Q      0.134800
     10 C11         1.7520   -5.0240   -1.4650 c         1 L9Q      0.653100
     11 O11         2.2640   -5.7890   -2.2870 o         1 L9Q     -0.569000
     12 C12         2.3200   -3.8040   -0.8110 c3        1 L9Q     -0.148400
     13 C13         3.6660   -3.4380   -1.3910 c3        1 L9Q     -0.072400
     14 C14         4.2630   -2.2570   -0.6560 c3        1 L9Q     -0.079400
     15 C15         5.6120   -1.8800   -1.2320 c3        1 L9Q     -0.077400
     16 C16         6.2130   -0.7020   -0.4960 c3        1 L9Q     -0.079400
     17 C17         7.5620   -0.3250   -1.0710 c3        1 L9Q     -0.078400
     18 C18         8.1640    0.8530   -0.3340 c3        1 L9Q     -0.079400
     19 C19         9.5120    1.2300   -0.9080 c3        1 L9Q     -0.078400
     20 O1P         0.5520   -6.5970    3.8780 o         1 L9Q     -0.821500
     21 C20        10.1140    2.4080   -0.1720 c3        1 L9Q     -0.079400
     22 C21        11.4630    2.7850   -0.7460 c3        1 L9Q     -0.078400
     23 C22        12.0650    3.9620   -0.0090 c3        1 L9Q     -0.079400
     24 C23        13.4140    4.3390   -0.5830 c3        1 L9Q     -0.078400
     25 C24        14.0150    5.5160    0.1540 c3        1 L9Q     -0.079400
     26 C25        15.3640    5.8930   -0.4190 c3        1 L9Q     -0.079400
     27 C26        15.9660    7.0700    0.3180 c3        1 L9Q     -0.079400
     28 C27        17.3150    7.4490   -0.2550 c3        1 L9Q     -0.080400
     29 C28        17.9180    8.6200    0.4760 c3        1 L9Q     -0.092100
     30 O2P         1.4740   -7.3920    1.5340 o         1 L9Q     -0.821500
     31 C31        -3.3570   -5.3500   -0.4590 c         1 L9Q      0.640100
     32 O31        -4.0240   -6.3900   -0.4950 o         1 L9Q     -0.576000
     33 C32        -3.8380   -3.9420   -0.2740 c3        1 L9Q     -0.134400
     34 C33        -5.2020   -3.7390   -0.8940 c3        1 L9Q     -0.076400
     35 C34        -5.7410   -2.3620   -0.5690 c3        1 L9Q     -0.079400
     36 C35        -7.0960   -2.1410   -1.2060 c3        1 L9Q     -0.078400
     37 C36        -7.6390   -0.7670   -0.8760 c3        1 L9Q     -0.079400
     38 C37        -8.9930   -0.5440   -1.5150 c3        1 L9Q     -0.077400
     39 C38        -9.5350    0.8310   -1.1820 c3        1 L9Q     -0.051200
     40 C39       -10.8610    1.0790   -1.7950 c2        1 L9Q     -0.166200
     41 O3P        -0.7170   -6.1720    1.7360 os        1 L9Q     -0.575200
     42 C40       -11.5440    2.2200   -1.6530 c2        1 L9Q     -0.182200
     43 C41       -11.0570    3.3760   -0.8650 c3        1 L9Q     -0.048200
     44 C42       -12.0370    4.5310   -0.8730 c3        1 L9Q     -0.076400
     45 C43       -11.5140    5.6970   -0.0600 c3        1 L9Q     -0.080400
     46 C44       -12.4910    6.8530   -0.0670 c3        1 L9Q     -0.078400
     47 C45       -11.9690    8.0180    0.7460 c3        1 L9Q     -0.079400
     48 C46       -12.9460    9.1740    0.7390 c3        1 L9Q     -0.078400
     49 C47       -12.4240   10.3410    1.5520 c3        1 L9Q     -0.080400
     50 C48       -13.3930   11.4940    1.5490 c3        1 L9Q     -0.092100
     51 O4P         1.3690   -4.9370    2.1610 os        1 L9Q     -0.573200
     52 HN         -0.4590   -3.8240    0.3710 hn        1 L9Q      0.361800
     53 HNA        -1.5160   -3.8690    1.5860 hn        1 L9Q      0.361800
     54 H1         -2.2570   -7.4240    1.2700 h1        1 L9Q      0.042200
     55 H1A        -0.5610   -8.0720    0.9150 h1        1 L9Q      0.042200
     56 H2         -2.0180   -7.4530   -1.0940 h1        1 L9Q      0.057700
     57 H3          0.6780   -7.3390   -0.9600 h1        1 L9Q      0.067200
     58 H3A        -0.2250   -6.6690   -2.4240 h1        1 L9Q      0.067200
     59 H4          1.6270   -3.4230    3.5220 h1        1 L9Q      0.030200
     60 H4A         0.0430   -4.3370    3.6390 h1        1 L9Q      0.030200
     61 H5          0.9920   -2.3660    1.4160 h1        1 L9Q      0.024200
     62 H5A        -0.2690   -2.0550    2.6960 h1        1 L9Q      0.024200
     63 H12         1.5890   -2.9590   -0.9210 hc        1 L9Q      0.101700
     64 H12A        2.3980   -4.0300    0.2940 hc        1 L9Q      0.101700
     65 H13         4.3540   -4.3220   -1.3200 hc        1 L9Q      0.048700
     66 H13A        3.5570   -3.1950   -2.4810 hc        1 L9Q      0.048700
     67 H14         3.5670   -1.3800   -0.7220 hc        1 L9Q      0.042700
     68 H14A        4.3750   -2.5100    0.4310 hc        1 L9Q      0.042700
     69 H15         6.3060   -2.7590   -1.1660 hc        1 L9Q      0.038200
     70 H15A        5.5000   -1.6280   -2.3190 hc        1 L9Q      0.038200
     71 H16         5.5180    0.1760   -0.5600 hc        1 L9Q      0.039700
     72 H16A        6.3250   -0.9560    0.5910 hc        1 L9Q      0.039700
     73 H17         8.2570   -1.2030   -1.0060 hc        1 L9Q      0.037700
     74 H17A        7.4500   -0.0710   -2.1580 hc        1 L9Q      0.037700
     75 H18         7.4680    1.7320   -0.3980 hc        1 L9Q      0.039200
     76 H18A        8.2750    0.5990    0.7530 hc        1 L9Q      0.039200
     77 H19        10.2070    0.3520   -0.8440 hc        1 L9Q      0.038700
     78 H19A        9.4010    1.4840   -1.9960 hc        1 L9Q      0.038700
     79 H20         9.4190    3.2860   -0.2360 hc        1 L9Q      0.039200
     80 H20A       10.2260    2.1540    0.9150 hc        1 L9Q      0.039200
     81 H21        12.1580    1.9060   -0.6810 hc        1 L9Q      0.038700
     82 H21A       11.3510    3.0390   -1.8330 hc        1 L9Q      0.038700
     83 H22        11.3700    4.8410   -0.0730 hc        1 L9Q      0.039200
     84 H22A       12.1760    3.7080    1.0780 hc        1 L9Q      0.039200
     85 H23        14.1080    3.4600   -0.5190 hc        1 L9Q      0.039200
     86 H23A       13.3020    4.5930   -1.6700 hc        1 L9Q      0.039200
     87 H24        13.3200    6.3950    0.0900 hc        1 L9Q      0.039200
     88 H24A       14.1270    5.2620    1.2410 hc        1 L9Q      0.039200
     89 H25        16.0590    5.0150   -0.3550 hc        1 L9Q      0.038700
     90 H25A       15.2530    6.1470   -1.5070 hc        1 L9Q      0.038700
     91 H26        15.2710    7.9490    0.2540 hc        1 L9Q      0.039200
     92 H26A       16.0770    6.8160    1.4050 hc        1 L9Q      0.039200
     93 H27        18.0080    6.5680   -0.1920 hc        1 L9Q      0.037700
     94 H27A       17.2020    7.7010   -1.3430 hc        1 L9Q      0.037700
     95 H28        17.2540    9.5150    0.4030 hc        1 L9Q      0.031367
     96 H28A       18.0620    8.3790    1.5570 hc        1 L9Q      0.031367
     97 H28B       18.9120    8.8820    0.0380 hc        1 L9Q      0.031367
     98 H32        -3.8710   -3.7520    0.8340 hc        1 L9Q      0.088700
     99 H32A       -3.0870   -3.2300   -0.7090 hc        1 L9Q      0.088700
    100 H33        -5.1330   -3.8660   -2.0060 hc        1 L9Q      0.049700
    101 H33A       -5.9060   -4.5270   -0.5150 hc        1 L9Q      0.049700
    102 H34        -5.8230   -2.2440    0.5430 hc        1 L9Q      0.042700
    103 H34A       -5.0210   -1.5810   -0.9320 hc        1 L9Q      0.042700
    104 H35        -7.0120   -2.2560   -2.3190 hc        1 L9Q      0.039200
    105 H35A       -7.8130   -2.9260   -0.8460 hc        1 L9Q      0.039200
    106 H36        -7.7240   -0.6540    0.2370 hc        1 L9Q      0.040200
    107 H36A       -6.9200    0.0170   -1.2340 hc        1 L9Q      0.040200
    108 H37        -8.9080   -0.6560   -2.6270 hc        1 L9Q      0.040200
    109 H37A       -9.7120   -1.3280   -1.1570 hc        1 L9Q      0.040200
    110 H38        -9.6130    0.9440   -0.0660 hc        1 L9Q      0.048200
    111 H38A       -8.8090    1.6160   -1.5340 hc        1 L9Q      0.048200
    112 H39       -11.2770    0.2530   -2.3960 ha        1 L9Q      0.121000
    113 H40       -12.5280    2.3430   -2.1350 ha        1 L9Q      0.118000
    114 H41       -10.8670    3.0510    0.1960 hc        1 L9Q      0.048200
    115 H41A      -10.0680    3.7190   -1.2770 hc        1 L9Q      0.048200
    116 H42       -12.2210    4.8610   -1.9290 hc        1 L9Q      0.039700
    117 H42A      -13.0210    4.1920   -0.4550 hc        1 L9Q      0.039700
    118 H43       -11.3300    5.3660    0.9960 hc        1 L9Q      0.040700
    119 H43A      -10.5290    6.0340   -0.4780 hc        1 L9Q      0.040700
    120 H44       -12.6760    7.1830   -1.1230 hc        1 L9Q      0.038700
    121 H44A      -13.4760    6.5150    0.3510 hc        1 L9Q      0.038700
    122 H45       -11.7840    7.6870    1.8020 hc        1 L9Q      0.040200
    123 H45A      -10.9840    8.3560    0.3280 hc        1 L9Q      0.040200
    124 H46       -13.1310    9.5050   -0.3170 hc        1 L9Q      0.038700
    125 H46A      -13.9310    8.8370    1.1570 hc        1 L9Q      0.038700
    126 H47       -12.2380   10.0070    2.6070 hc        1 L9Q      0.038700
    127 H47A      -11.4380   10.6750    1.1330 hc        1 L9Q      0.038700
    128 H48       -13.5720   11.8570    0.5070 hc        1 L9Q      0.031367
    129 H48A      -14.3740   11.1870    1.9850 hc        1 L9Q      0.031367
    130 H48B      -12.9890   12.3420    2.1520 hc        1 L9Q      0.031367
@<TRIPOS>BOND
     1    1    9 1   
     2    1   52 1   
     3    1   53 1   
     4    2   20 1   
     5    2   30 1   
     6    2   41 1   
     7    2   51 1   
     8    3    4 1   
     9    3   41 1   
    10    3   54 1   
    11    3   55 1   
    12    4    5 1   
    13    4    6 1   
    14    4   56 1   
    15    5   31 1   
    16    6    7 1   
    17    6   57 1   
    18    6   58 1   
    19    7   10 1   
    20    8    9 1   
    21    8   51 1   
    22    8   59 1   
    23    8   60 1   
    24    9   61 1   
    25    9   62 1   
    26   10   11 2   
    27   10   12 1   
    28   12   13 1   
    29   12   63 1   
    30   12   64 1   
    31   13   14 1   
    32   13   65 1   
    33   13   66 1   
    34   14   15 1   
    35   14   67 1   
    36   14   68 1   
    37   15   16 1   
    38   15   69 1   
    39   15   70 1   
    40   16   17 1   
    41   16   71 1   
    42   16   72 1   
    43   17   18 1   
    44   17   73 1   
    45   17   74 1   
    46   18   19 1   
    47   18   75 1   
    48   18   76 1   
    49   19   21 1   
    50   19   77 1   
    51   19   78 1   
    52   21   22 1   
    53   21   79 1   
    54   21   80 1   
    55   22   23 1   
    56   22   81 1   
    57   22   82 1   
    58   23   24 1   
    59   23   83 1   
    60   23   84 1   
    61   24   25 1   
    62   24   85 1   
    63   24   86 1   
    64   25   26 1   
    65   25   87 1   
    66   25   88 1   
    67   26   27 1   
    68   26   89 1   
    69   26   90 1   
    70   27   28 1   
    71   27   91 1   
    72   27   92 1   
    73   28   29 1   
    74   28   93 1   
    75   28   94 1   
    76   29   95 1   
    77   29   96 1   
    78   29   97 1   
    79   31   32 2   
    80   31   33 1   
    81   33   34 1   
    82   33   98 1   
    83   33   99 1   
    84   34   35 1   
    85   34  100 1   
    86   34  101 1   
    87   35   36 1   
    88   35  102 1   
    89   35  103 1   
    90   36   37 1   
    91   36  104 1   
    92   36  105 1   
    93   37   38 1   
    94   37  106 1   
    95   37  107 1   
    96   38   39 1   
    97   38  108 1   
    98   38  109 1   
    99   39   40 1   
   100   39  110 1   
   101   39  111 1   
   102   40   42 2   
   103   40  112 1   
   104   42   43 1   
   105   42  113 1   
   106   43   44 1   
   107   43  114 1   
   108   43  115 1   
   109   44   45 1   
   110   44  116 1   
   111   44  117 1   
   112   45   46 1   
   113   45  118 1   
   114   45  119 1   
   115   46   47 1   
   116   46  120 1   
   117   46  121 1   
   118   47   48 1   
   119   47  122 1   
   120   47  123 1   
   121   48   49 1   
   122   48  124 1   
   123   48  125 1   
   124   49   50 1   
   125   49  126 1   
   126   49  127 1   
   127   50  128 1   
   128   50  129 1   
   129   50  130 1   
@<TRIPOS>SUBSTRUCTURE
     1 L9Q         1 TEMP              0 ****  ****    0 ROOT
