@<TRIPOS>MOLECULE
L9R
  140   137     1     0     0
SMALL
bcc


@<TRIPOS>ATOM
      1 N          -7.1840    5.0430    4.1540 n4        1 L9R      0.051000
      2 P          -7.4570    0.0210    3.7180 p3        1 L9R      2.558000
      3 C1         -6.8280   -2.4610    3.1730 c3        1 L9R      0.011000
      4 C2         -5.6360   -3.3580    2.8130 c3        1 L9R      0.011000
      5 O2         -5.8580   -3.9480    1.5810 os        1 L9R     -0.285000
      6 C3         -4.3430   -2.5040    2.7540 c3        1 L9R     -0.003000
      7 O3         -3.2840   -3.1880    3.4500 os        1 L9R     -0.281000
      8 C4         -7.4570    2.6080    4.0470 c3        1 L9R      0.049000
      9 C5         -6.5350    3.7810    4.4650 c3        1 L9R     -0.146000
     10 C6         -8.4740    5.0870    4.7850 c3        1 L9R     -0.197333
     11 C7         -6.3740    6.1350    4.6440 c3        1 L9R     -0.197333
     12 C8         -7.3360    5.1610    2.7530 c3        1 L9R     -0.197333
     13 C11        -2.0340   -2.4680    3.4650 c2        1 L9R      0.305000
     14 O11        -1.9900   -1.3200    3.0630 o         1 L9R     -0.365000
     15 C12        -0.7840   -3.1020    4.1330 c3        1 L9R     -0.156000
     16 C13         0.4600   -2.8340    3.2600 c3        1 L9R     -0.151000
     17 C14         1.5740   -2.1960    4.1290 c3        1 L9R     -0.169000
     18 C15         2.7830   -1.8010    3.2240 c3        1 L9R     -0.156000
     19 C16         3.8490   -1.0980    4.0750 c3        1 L9R     -0.157000
     20 C17         4.8760   -0.3980    3.1470 c3        1 L9R     -0.158000
     21 C18         5.9190    0.3350    3.9970 c3        1 L9R     -0.157000
     22 C19         6.8000    1.2300    3.0800 c3        1 L9R     -0.158000
     23 O1P        -8.5040    0.2260    2.6570 o         1 L9R     -1.166000
     24 C20         7.6820    2.1160    3.9380 c3        1 L9R     -0.157000
     25 C21         8.4300    3.1330    3.0390 c3        1 L9R     -0.158000
     26 C22         9.3570    4.0220    3.9250 c3        1 L9R     -0.157000
     27 C23         9.9840    5.1410    3.0580 c3        1 L9R     -0.158000
     28 C24        11.0100    5.9390    3.9080 c3        1 L9R     -0.157000
     29 C25        11.6120    7.1080    3.0480 c3        1 L9R     -0.158000
     30 C26        12.7100    7.8130    3.8480 c3        1 L9R     -0.158000
     31 C27        13.3150    8.9360    3.0080 c3        1 L9R     -0.159000
     32 C28        14.4610    9.5880    3.7780 c3        1 L9R     -0.210000
     33 O2P        -8.1220   -0.4430    5.0050 os        1 L9R     -1.120000
     34 C31        -5.9830   -5.3530    1.6370 c2        1 L9R      0.334000
     35 O31        -5.5550   -5.9610    2.5930 o         1 L9R     -0.373000
     36 C32        -6.6720   -6.1110    0.4890 c3        1 L9R     -0.172000
     37 C33        -5.6330   -7.0690   -0.2060 c3        1 L9R     -0.153000
     38 C34        -6.0750   -7.3280   -1.7090 c3        1 L9R     -0.157000
     39 C35        -4.8780   -7.9040   -2.5100 c3        1 L9R     -0.157000
     40 C36        -4.9920   -7.4640   -3.9950 c3        1 L9R     -0.159000
     41 C37        -3.6290   -6.8670   -4.4680 c3        1 L9R     -0.155000
     42 C38        -3.6510   -6.6800   -5.9980 c3        1 L9R     -0.132000
     43 C39        -4.3530   -5.3340   -6.3480 c2        1 L9R     -0.167000
     44 O3P        -6.4020   -1.0990    3.2230 os        1 L9R     -0.741000
     45 C40        -3.6810   -4.3690   -7.1390 c1        1 L9R     -0.174000
     46 C41        -2.2640   -4.6490   -7.6510 c2        1 L9R     -0.131000
     47 C42        -1.4340   -3.3230   -7.6430 c3        1 L9R     -0.154000
     48 C43        -1.3800   -2.7330   -9.0850 c3        1 L9R     -0.159000
     49 C44        -1.2730   -1.2150   -9.0070 c3        1 L9R     -0.158000
     50 C45        -0.3830   -0.7120  -10.1230 c3        1 L9R     -0.158000
     51 C46        -0.5370    0.8290  -10.2510 c3        1 L9R     -0.158000
     52 C47         0.5870    1.3840  -11.1210 c3        1 L9R     -0.159000
     53 C48         0.4250    2.9110  -11.2580 c3        1 L9R     -0.210000
     54 O4P        -6.6890    1.3980    3.9810 os        1 L9R     -0.735000
     55 H1         -7.1830   -2.7260    4.0510 h1        1 L9R      0.093000
     56 H1A        -7.5280   -2.5600    2.4930 h1        1 L9R      0.093000
     57 H2         -5.5350   -4.0600    3.5000 h1        1 L9R      0.127000
     58 H3         -4.0840   -2.3670    1.8200 h1        1 L9R      0.112500
     59 H3A        -4.5050   -1.6420    3.1760 h1        1 L9R      0.112500
     60 H4         -8.1710    2.5050    4.7050 h1        1 L9R      0.094500
     61 H4A        -7.8440    2.7940    3.1750 h1        1 L9R      0.094500
     62 H5         -6.3610    3.7320    5.4280 hx        1 L9R      0.119500
     63 H5A        -5.6820    3.7200    3.9730 hx        1 L9R      0.119500
     64 H6         -8.3970    4.7680    5.7070 hx        1 L9R      0.139556
     65 H6A        -9.1060    4.5090    4.2870 hx        1 L9R      0.139556
     66 H6B        -8.8070    6.0130    4.7870 hx        1 L9R      0.139556
     67 H7         -5.4590    6.0450    4.2980 hx        1 L9R      0.139556
     68 H7A        -6.3560    6.1150    5.6200 hx        1 L9R      0.139556
     69 H7B        -6.7580    6.9910    4.3400 hx        1 L9R      0.139556
     70 H8         -8.1300    4.6680    2.4690 hx        1 L9R      0.139556
     71 H8A        -7.4360    6.1100    2.5130 hx        1 L9R      0.139556
     72 H8B        -6.5440    4.7920    2.3060 hx        1 L9R      0.139556
     73 H12        -0.9170   -4.0680    4.2240 hc        1 L9R      0.114500
     74 H12A       -0.6530   -2.7080    5.0140 hc        1 L9R      0.114500
     75 H13         0.7830   -3.6770    2.8850 hc        1 L9R      0.090500
     76 H13A        0.2240   -2.2230    2.5330 hc        1 L9R      0.090500
     77 H14         1.8700   -2.8410    4.8050 hc        1 L9R      0.091000
     78 H14A        1.2250   -1.3980    4.5720 hc        1 L9R      0.091000
     79 H15         2.4800   -1.1990    2.5200 hc        1 L9R      0.078500
     80 H15A        3.1650   -2.6040    2.8220 hc        1 L9R      0.078500
     81 H16         3.4180   -0.4280    4.6520 hc        1 L9R      0.080000
     82 H16A        4.3100   -1.7580    4.6310 hc        1 L9R      0.080000
     83 H17         5.3210   -1.0660    2.5900 hc        1 L9R      0.079000
     84 H17A        4.4110    0.2470    2.5740 hc        1 L9R      0.079000
     85 H18         5.4660    0.8930    4.6580 hc        1 L9R      0.079000
     86 H18A        6.4880   -0.3240    4.4580 hc        1 L9R      0.079000
     87 H19         7.3630    0.6610    2.5080 hc        1 L9R      0.078500
     88 H19A        6.2300    1.7840    2.5230 hc        1 L9R      0.078500
     89 H20         8.3330    1.5620    4.4150 hc        1 L9R      0.078500
     90 H20A        7.1310    2.5960    4.5810 hc        1 L9R      0.078500
     91 H21         8.9770    2.6460    2.3750 hc        1 L9R      0.079000
     92 H21A        7.7770    3.7020    2.5740 hc        1 L9R      0.079000
     93 H22        10.0640    3.4730    4.3080 hc        1 L9R      0.078500
     94 H22A        8.8360    4.4210    4.6390 hc        1 L9R      0.078500
     95 H23         9.2760    5.7480    2.7420 hc        1 L9R      0.079000
     96 H23A       10.4400    4.7400    2.2850 hc        1 L9R      0.079000
     97 H24        11.7260    5.3450    4.1940 hc        1 L9R      0.078500
     98 H24A       10.5620    6.3100    4.6930 hc        1 L9R      0.078500
     99 H25        10.9050    7.7500    2.8280 hc        1 L9R      0.079000
    100 H25A       11.9940    6.7430    2.2180 hc        1 L9R      0.079000
    101 H26        13.4080    7.1690    4.0810 hc        1 L9R      0.079000
    102 H26A       12.3300    8.1860    4.6610 hc        1 L9R      0.079000
    103 H27        12.6270    9.6070    2.8160 hc        1 L9R      0.078000
    104 H27A       13.6550    8.5670    2.1660 hc        1 L9R      0.078000
    105 H28        14.1270    9.9240    4.6430 hc        1 L9R      0.071667
    106 H28A       15.1690    8.9240    3.9350 hc        1 L9R      0.071667
    107 H28B       14.8220   10.3300    3.2580 hc        1 L9R      0.071667
    108 H32        -7.0180   -5.4590   -0.1770 hc        1 L9R      0.144000
    109 H32A       -7.4120   -6.6370    0.8450 hc        1 L9R      0.144000
    110 H33        -4.7450   -6.6540   -0.1930 hc        1 L9R      0.089500
    111 H33A       -5.6030   -7.9130    0.2720 hc        1 L9R      0.089500
    112 H34        -6.8180   -7.9680   -1.7250 hc        1 L9R      0.082000
    113 H34A       -6.3640   -6.4800   -2.1160 hc        1 L9R      0.082000
    114 H35        -4.8900   -8.8730   -2.4580 hc        1 L9R      0.079000
    115 H35A       -4.0450   -7.5700   -2.1350 hc        1 L9R      0.079000
    116 H36        -5.2200   -8.2440   -4.5530 hc        1 L9R      0.080000
    117 H36A       -5.6940   -6.7850   -4.0810 hc        1 L9R      0.080000
    118 H37        -3.4860   -6.0060   -4.0380 hc        1 L9R      0.079000
    119 H37A       -2.9030   -7.4780   -4.2250 hc        1 L9R      0.079000
    120 H38        -4.1450   -7.4240   -6.4120 hc        1 L9R      0.086000
    121 H38A       -2.7350   -6.6680   -6.3380 hc        1 L9R      0.086000
    122 H39        -5.2670   -5.1530   -6.0190 ha        1 L9R      0.123000
    123 H40        -4.1280   -3.5140   -7.3610 ha        1 L9R      0.122000
    124 H41        -1.8360   -5.2990   -7.0750 ha        1 L9R      0.086000
    125 H41A       -2.3100   -5.0020   -8.5670 ha        1 L9R      0.086000
    126 H42        -0.5210   -3.5110   -7.3320 hc        1 L9R      0.078500
    127 H42A       -1.8590   -2.6750   -7.0400 hc        1 L9R      0.078500
    128 H43        -0.6000   -3.0910   -9.5550 hc        1 L9R      0.081000
    129 H43A       -2.1920   -2.9770   -9.5680 hc        1 L9R      0.081000
    130 H44        -0.8910   -0.9610   -8.1490 hc        1 L9R      0.077500
    131 H44A       -2.1580   -0.8230   -9.0960 hc        1 L9R      0.077500
    132 H45        -0.6450   -1.1370  -10.9650 hc        1 L9R      0.079000
    133 H45A        0.5580   -0.9340   -9.9200 hc        1 L9R      0.079000
    134 H46        -0.4910    1.2390   -9.3540 hc        1 L9R      0.078000
    135 H46A       -1.3940    1.0360  -10.6580 hc        1 L9R      0.078000
    136 H47         0.5470    0.9750  -11.9990 hc        1 L9R      0.078000
    137 H47A        1.4540    1.1820  -10.7050 hc        1 L9R      0.078000
    138 H48         0.5940    3.3370  -10.3880 hc        1 L9R      0.071333
    139 H48A        1.0710    3.2520  -11.9220 hc        1 L9R      0.071333
    140 H48B       -0.4830    3.1170  -11.5510 hc        1 L9R      0.071333
@<TRIPOS>BOND
     1    1    9 1   
     2    1   10 1   
     3    1   11 1   
     4    1   12 1   
     5    2   23 1   
     6    2   44 1   
     7    2   54 1   
     8    3    4 1   
     9    3   44 1   
    10    3   55 1   
    11    3   56 1   
    12    4    5 1   
    13    4    6 1   
    14    4   57 1   
    15    5   34 1   
    16    6    7 1   
    17    6   58 1   
    18    6   59 1   
    19    7   13 1   
    20    8    9 1   
    21    8   54 1   
    22    8   60 1   
    23    8   61 1   
    24    9   62 1   
    25    9   63 1   
    26   10   64 1   
    27   10   65 1   
    28   10   66 1   
    29   11   67 1   
    30   11   68 1   
    31   11   69 1   
    32   12   70 1   
    33   12   71 1   
    34   12   72 1   
    35   13   14 1   
    36   13   15 1   
    37   15   16 1   
    38   15   73 1   
    39   15   74 1   
    40   16   17 1   
    41   16   75 1   
    42   16   76 1   
    43   17   18 1   
    44   17   77 1   
    45   17   78 1   
    46   18   19 1   
    47   18   79 1   
    48   18   80 1   
    49   19   20 1   
    50   19   81 1   
    51   19   82 1   
    52   20   21 1   
    53   20   83 1   
    54   20   84 1   
    55   21   22 1   
    56   21   85 1   
    57   21   86 1   
    58   22   24 1   
    59   22   87 1   
    60   22   88 1   
    61   24   25 1   
    62   24   89 1   
    63   24   90 1   
    64   25   26 1   
    65   25   91 1   
    66   25   92 1   
    67   26   27 1   
    68   26   93 1   
    69   26   94 1   
    70   27   28 1   
    71   27   95 1   
    72   27   96 1   
    73   28   29 1   
    74   28   97 1   
    75   28   98 1   
    76   29   30 1   
    77   29   99 1   
    78   29  100 1   
    79   30   31 1   
    80   30  101 1   
    81   30  102 1   
    82   31   32 1   
    83   31  103 1   
    84   31  104 1   
    85   32  105 1   
    86   32  106 1   
    87   32  107 1   
    88   34   35 1   
    89   34   36 1   
    90   36   37 1   
    91   36  108 1   
    92   36  109 1   
    93   37   38 1   
    94   37  110 1   
    95   37  111 1   
    96   38   39 1   
    97   38  112 1   
    98   38  113 1   
    99   39   40 1   
   100   39  114 1   
   101   39  115 1   
   102   40   41 1   
   103   40  116 1   
   104   40  117 1   
   105   41   42 1   
   106   41  118 1   
   107   41  119 1   
   108   42   43 1   
   109   42  120 1   
   110   42  121 1   
   111   43   45 1   
   112   43  122 1   
   113   45  123 1   
   114   46   47 1   
   115   46  124 1   
   116   46  125 1   
   117   47   48 1   
   118   47  126 1   
   119   47  127 1   
   120   48   49 1   
   121   48  128 1   
   122   48  129 1   
   123   49   50 1   
   124   49  130 1   
   125   49  131 1   
   126   50   51 1   
   127   50  132 1   
   128   50  133 1   
   129   51   52 1   
   130   51  134 1   
   131   51  135 1   
   132   52   53 1   
   133   52  136 1   
   134   52  137 1   
   135   53  138 1   
   136   53  139 1   
   137   53  140 1   
@<TRIPOS>SUBSTRUCTURE
     1 L9R         1 TEMP              0 ****  ****    0 ROOT
