@<TRIPOS>MOLECULE
L9R
  140   139     1     0     0
SMALL
bcc


@<TRIPOS>ATOM
      1 N           2.9120   -2.8990    5.3620 n4        1 L9R     -0.581800
      2 P           3.6320   -3.9170    1.5510 p5        1 L9R      1.439800
      3 C1          1.5350   -3.9470    0.0150 c3        1 L9R      0.175400
      4 C2          0.8610   -5.2180   -0.5240 c3        1 L9R      0.128100
      5 O2         -0.5530   -5.0190   -0.3260 os        1 L9R     -0.430900
      6 C3          1.1510   -5.4550   -2.0030 c3        1 L9R      0.114400
      7 O3          0.8700   -4.2330   -2.7030 os        1 L9R     -0.435900
      8 C4          4.2230   -2.0480    3.2750 c3        1 L9R      0.199400
      9 C5          3.4080   -1.7340    4.5460 c3        1 L9R      0.090800
     10 C6          4.0200   -3.8420    5.6920 c3        1 L9R      0.079100
     11 C7          2.3530   -2.3530    6.6360 c3        1 L9R      0.079100
     12 C8          1.8250   -3.6300    4.6450 c3        1 L9R      0.079100
     13 C11         0.9810   -4.2670   -4.0650 c         1 L9R      0.633100
     14 O11         1.2640   -5.3370   -4.6060 o         1 L9R     -0.545000
     15 C12         0.7040   -2.9380   -4.6970 c3        1 L9R     -0.126400
     16 C13         1.7320   -2.6270   -5.7660 c3        1 L9R     -0.080400
     17 C14         1.3760   -1.3500   -6.4960 c3        1 L9R     -0.077400
     18 C15         2.4110   -1.0220   -7.5520 c3        1 L9R     -0.079400
     19 C16         2.0580    0.2520   -8.2890 c3        1 L9R     -0.078400
     20 C17         3.0940    0.5810   -9.3420 c3        1 L9R     -0.079400
     21 C18         2.7430    1.8550  -10.0800 c3        1 L9R     -0.078400
     22 C19         3.7800    2.1850  -11.1320 c3        1 L9R     -0.079400
     23 O1P         3.9900   -4.6890    2.7650 o         1 L9R     -0.818000
     24 C20         3.4290    3.4590  -11.8690 c3        1 L9R     -0.078400
     25 C21         4.4670    3.7890  -12.9210 c3        1 L9R     -0.079400
     26 C22         4.1170    5.0640  -13.6580 c3        1 L9R     -0.078400
     27 C23         5.1550    5.3930  -14.7090 c3        1 L9R     -0.079400
     28 C24         4.8060    6.6680  -15.4460 c3        1 L9R     -0.078400
     29 C25         5.8440    6.9970  -16.4970 c3        1 L9R     -0.079400
     30 C26         5.4940    8.2720  -17.2350 c3        1 L9R     -0.079400
     31 C27         6.5320    8.6030  -18.2870 c3        1 L9R     -0.080400
     32 C28         6.1880    9.8710  -19.0240 c3        1 L9R     -0.092100
     33 O2P         4.3620   -3.7860    0.2890 o         1 L9R     -0.818000
     34 C31        -1.3490   -6.1240   -0.2280 c         1 L9R      0.632100
     35 O31        -0.8390   -7.2440   -0.3180 o         1 L9R     -0.549000
     36 C32        -2.7920   -5.7700   -0.0360 c3        1 L9R     -0.128400
     37 C33        -3.4740   -6.7540    0.8910 c3        1 L9R     -0.079400
     38 C34        -4.9590   -6.4760    0.9730 c3        1 L9R     -0.078400
     39 C35        -5.6430   -7.4430    1.9160 c3        1 L9R     -0.078400
     40 C36        -7.1290   -7.1700    1.9990 c3        1 L9R     -0.079400
     41 C37        -7.8120   -8.1330    2.9460 c3        1 L9R     -0.077400
     42 C38        -9.2990   -7.8580    3.0290 c3        1 L9R     -0.049200
     43 C39        -9.9920   -8.7840    3.9540 c2        1 L9R     -0.174200
     44 O3P         2.0440   -4.2010    1.2930 os        1 L9R     -0.584200
     45 C40       -11.2970   -8.7120    4.2390 c2        1 L9R     -0.173200
     46 C41       -12.2080   -7.6940    3.6660 c3        1 L9R     -0.049200
     47 C42       -13.6390   -7.8800    4.1250 c3        1 L9R     -0.077400
     48 C43       -14.5480   -6.8290    3.5240 c3        1 L9R     -0.079400
     49 C44       -15.9790   -7.0130    3.9820 c3        1 L9R     -0.079400
     50 C45       -16.8870   -5.9620    3.3810 c3        1 L9R     -0.079400
     51 C46       -18.3180   -6.1460    3.8380 c3        1 L9R     -0.079400
     52 C47       -19.2280   -5.0960    3.2370 c3        1 L9R     -0.080400
     53 C48       -20.6540   -5.2750    3.6900 c3        1 L9R     -0.092100
     54 O4P         3.3930   -2.4030    2.2330 os        1 L9R     -0.569200
     55 H1          2.3610   -3.6350   -0.6850 h1        1 L9R      0.068700
     56 H1A         0.7640   -3.1300    0.0890 h1        1 L9R      0.068700
     57 H2          1.1940   -6.1270    0.0510 h1        1 L9R      0.094700
     58 H3          2.2320   -5.7140   -2.1520 h1        1 L9R      0.071700
     59 H3A         0.5010   -6.2740   -2.4090 h1        1 L9R      0.071700
     60 H4          4.7310   -1.0700    3.0160 h1        1 L9R      0.054700
     61 H4A         5.0010   -2.8350    3.4780 h1        1 L9R      0.054700
     62 H5          2.5020   -1.1410    4.2360 hx        1 L9R      0.079700
     63 H5A         4.0550   -1.1150    5.2280 hx        1 L9R      0.079700
     64 H6          3.6720   -4.5480    6.4890 hx        1 L9R      0.100033
     65 H6A         4.9020   -3.2560    6.0560 hx        1 L9R      0.100033
     66 H6B         4.3030   -4.4410    4.7710 hx        1 L9R      0.100033
     67 H7          3.1710   -1.8640    7.2260 hx        1 L9R      0.100033
     68 H7A         1.9090   -3.1900    7.2370 hx        1 L9R      0.100033
     69 H7B         1.5560   -1.6010    6.4010 hx        1 L9R      0.100033
     70 H8          0.9960   -2.9180    4.4030 hx        1 L9R      0.100033
     71 H8A         1.4520   -4.4610    5.2970 hx        1 L9R      0.100033
     72 H8B         2.2450   -4.0650    3.6840 hx        1 L9R      0.100033
     73 H12         0.7010   -2.1380   -3.9110 hc        1 L9R      0.075200
     74 H12A       -0.3240   -2.9870   -5.1460 hc        1 L9R      0.075200
     75 H13         2.7440   -2.5250   -5.2940 hc        1 L9R      0.059700
     76 H13A        1.7870   -3.4820   -6.4900 hc        1 L9R      0.059700
     77 H14         0.3690   -1.4580   -6.9780 hc        1 L9R      0.039200
     78 H14A        1.3050   -0.5030   -5.7640 hc        1 L9R      0.039200
     79 H15         3.4180   -0.9120   -7.0700 hc        1 L9R      0.043200
     80 H15A        2.4850   -1.8710   -8.2810 hc        1 L9R      0.043200
     81 H16         1.9820    1.1000   -7.5590 hc        1 L9R      0.038700
     82 H16A        1.0520    0.1410   -8.7730 hc        1 L9R      0.038700
     83 H17         3.1710   -0.2670  -10.0720 hc        1 L9R      0.040700
     84 H17A        4.1000    0.6920   -8.8580 hc        1 L9R      0.040700
     85 H18         2.6650    2.7040   -9.3490 hc        1 L9R      0.038700
     86 H18A        1.7370    1.7440  -10.5650 hc        1 L9R      0.038700
     87 H19         3.8570    1.3370  -11.8620 hc        1 L9R      0.039700
     88 H19A        4.7850    2.2950  -10.6470 hc        1 L9R      0.039700
     89 H20         3.3510    4.3070  -11.1390 hc        1 L9R      0.038700
     90 H20A        2.4240    3.3490  -12.3550 hc        1 L9R      0.038700
     91 H21         4.5450    2.9410  -13.6510 hc        1 L9R      0.039700
     92 H21A        5.4720    3.8990  -12.4350 hc        1 L9R      0.039700
     93 H22         3.1120    4.9530  -14.1440 hc        1 L9R      0.039200
     94 H22A        4.0390    5.9120  -12.9270 hc        1 L9R      0.039200
     95 H23         5.2330    4.5450  -15.4400 hc        1 L9R      0.039700
     96 H23A        6.1600    5.5040  -14.2230 hc        1 L9R      0.039700
     97 H24         3.8000    6.5580  -15.9320 hc        1 L9R      0.039200
     98 H24A        4.7280    7.5160  -14.7160 hc        1 L9R      0.039200
     99 H25         5.9210    6.1490  -17.2280 hc        1 L9R      0.039700
    100 H25A        6.8490    7.1070  -16.0120 hc        1 L9R      0.039700
    101 H26         4.4890    8.1620  -17.7210 hc        1 L9R      0.039200
    102 H26A        5.4170    9.1200  -16.5050 hc        1 L9R      0.039200
    103 H27         6.6090    7.7530  -19.0150 hc        1 L9R      0.038700
    104 H27A        7.5370    8.7110  -17.7990 hc        1 L9R      0.038700
    105 H28         5.2010    9.7740  -19.5370 hc        1 L9R      0.032367
    106 H28A        6.1310   10.7340  -18.3170 hc        1 L9R      0.032367
    107 H28B        6.9650   10.0960  -19.7940 hc        1 L9R      0.032367
    108 H32        -2.8740   -4.7260    0.3660 hc        1 L9R      0.075700
    109 H32A       -3.2780   -5.7870   -1.0480 hc        1 L9R      0.075700
    110 H33        -3.2970   -7.7990    0.5210 hc        1 L9R      0.056700
    111 H33A       -3.0180   -6.6840    1.9140 hc        1 L9R      0.056700
    112 H34        -5.4160   -6.5610   -0.0480 hc        1 L9R      0.039700
    113 H34A       -5.1280   -5.4240    1.3250 hc        1 L9R      0.039700
    114 H35        -5.1870   -7.3580    2.9380 hc        1 L9R      0.042200
    115 H35A       -5.4720   -8.4940    1.5640 hc        1 L9R      0.042200
    116 H36        -7.3000   -6.1160    2.3460 hc        1 L9R      0.039200
    117 H36A       -7.5860   -7.2590    0.9780 hc        1 L9R      0.039200
    118 H37        -7.3550   -8.0450    3.9670 hc        1 L9R      0.042200
    119 H37A       -7.6430   -9.1860    2.5980 hc        1 L9R      0.042200
    120 H38        -9.7550   -7.9460    2.0040 hc        1 L9R      0.047200
    121 H38A       -9.4670   -6.7970    3.3640 hc        1 L9R      0.047200
    122 H39        -9.3650   -9.5660    4.4140 ha        1 L9R      0.122000
    123 H40       -11.7550   -9.4330    4.9350 ha        1 L9R      0.122000
    124 H41       -12.1650   -7.7430    2.5430 hc        1 L9R      0.047200
    125 H41A      -11.8510   -6.6680    3.9570 hc        1 L9R      0.047200
    126 H42       -13.6860   -7.8220    5.2450 hc        1 L9R      0.041200
    127 H42A      -13.9990   -8.9010    3.8310 hc        1 L9R      0.041200
    128 H43       -14.1870   -5.8080    3.8170 hc        1 L9R      0.039200
    129 H43A      -14.5010   -6.8870    2.4040 hc        1 L9R      0.039200
    130 H44       -16.0260   -6.9550    5.1010 hc        1 L9R      0.040200
    131 H44A      -16.3390   -8.0340    3.6890 hc        1 L9R      0.040200
    132 H45       -16.8400   -6.0210    2.2610 hc        1 L9R      0.039200
    133 H45A      -16.5270   -4.9410    3.6730 hc        1 L9R      0.039200
    134 H46       -18.6790   -7.1670    3.5460 hc        1 L9R      0.039700
    135 H46A      -18.3660   -6.0870    4.9580 hc        1 L9R      0.039700
    136 H47       -18.8650   -4.0750    3.5300 hc        1 L9R      0.038200
    137 H47A      -19.1780   -5.1550    2.1180 hc        1 L9R      0.038200
    138 H48       -20.7280   -5.1940    4.8020 hc        1 L9R      0.032700
    139 H48A      -21.0420   -6.2770    3.3860 hc        1 L9R      0.032700
    140 H48B      -21.3070   -4.4910    3.2360 hc        1 L9R      0.032700
@<TRIPOS>BOND
     1    1    9 1   
     2    1   10 1   
     3    1   11 1   
     4    1   12 1   
     5    2   23 1   
     6    2   33 1   
     7    2   44 1   
     8    2   54 1   
     9    3    4 1   
    10    3   44 1   
    11    3   55 1   
    12    3   56 1   
    13    4    5 1   
    14    4    6 1   
    15    4   57 1   
    16    5   34 1   
    17    6    7 1   
    18    6   58 1   
    19    6   59 1   
    20    7   13 1   
    21    8    9 1   
    22    8   54 1   
    23    8   60 1   
    24    8   61 1   
    25    9   62 1   
    26    9   63 1   
    27   10   64 1   
    28   10   65 1   
    29   10   66 1   
    30   11   67 1   
    31   11   68 1   
    32   11   69 1   
    33   12   70 1   
    34   12   71 1   
    35   12   72 1   
    36   13   14 2   
    37   13   15 1   
    38   15   16 1   
    39   15   73 1   
    40   15   74 1   
    41   16   17 1   
    42   16   75 1   
    43   16   76 1   
    44   17   18 1   
    45   17   77 1   
    46   17   78 1   
    47   18   19 1   
    48   18   79 1   
    49   18   80 1   
    50   19   20 1   
    51   19   81 1   
    52   19   82 1   
    53   20   21 1   
    54   20   83 1   
    55   20   84 1   
    56   21   22 1   
    57   21   85 1   
    58   21   86 1   
    59   22   24 1   
    60   22   87 1   
    61   22   88 1   
    62   24   25 1   
    63   24   89 1   
    64   24   90 1   
    65   25   26 1   
    66   25   91 1   
    67   25   92 1   
    68   26   27 1   
    69   26   93 1   
    70   26   94 1   
    71   27   28 1   
    72   27   95 1   
    73   27   96 1   
    74   28   29 1   
    75   28   97 1   
    76   28   98 1   
    77   29   30 1   
    78   29   99 1   
    79   29  100 1   
    80   30   31 1   
    81   30  101 1   
    82   30  102 1   
    83   31   32 1   
    84   31  103 1   
    85   31  104 1   
    86   32  105 1   
    87   32  106 1   
    88   32  107 1   
    89   34   35 2   
    90   34   36 1   
    91   36   37 1   
    92   36  108 1   
    93   36  109 1   
    94   37   38 1   
    95   37  110 1   
    96   37  111 1   
    97   38   39 1   
    98   38  112 1   
    99   38  113 1   
   100   39   40 1   
   101   39  114 1   
   102   39  115 1   
   103   40   41 1   
   104   40  116 1   
   105   40  117 1   
   106   41   42 1   
   107   41  118 1   
   108   41  119 1   
   109   42   43 1   
   110   42  120 1   
   111   42  121 1   
   112   43   45 2   
   113   43  122 1   
   114   45   46 1   
   115   45  123 1   
   116   46   47 1   
   117   46  124 1   
   118   46  125 1   
   119   47   48 1   
   120   47  126 1   
   121   47  127 1   
   122   48   49 1   
   123   48  128 1   
   124   48  129 1   
   125   49   50 1   
   126   49  130 1   
   127   49  131 1   
   128   50   51 1   
   129   50  132 1   
   130   50  133 1   
   131   51   52 1   
   132   51  134 1   
   133   51  135 1   
   134   52   53 1   
   135   52  136 1   
   136   52  137 1   
   137   53  138 1   
   138   53  139 1   
   139   53  140 1   
@<TRIPOS>SUBSTRUCTURE
     1 L9R         1 TEMP              0 ****  ****    0 ROOT
