@<TRIPOS>MOLECULE
L9R
  140   139     1     0     0
SMALL
bcc


@<TRIPOS>ATOM
      1 N           2.7710   -2.5820    5.2040 n4        1 L9R     -0.581800
      2 P           3.5090   -3.7140    1.4290 p5        1 L9R      1.439800
      3 C1          1.4090   -3.8570   -0.0980 c3        1 L9R      0.175400
      4 C2          0.7670   -5.1650   -0.5880 c3        1 L9R      0.128100
      5 O2         -0.6510   -4.9940   -0.3970 os        1 L9R     -0.430900
      6 C3          1.0640   -5.4500   -2.0570 c3        1 L9R      0.114400
      7 O3          0.7580   -4.2610   -2.8020 os        1 L9R     -0.435900
      8 C4          4.0520   -1.7690    3.0820 c3        1 L9R      0.199400
      9 C5          3.2320   -1.4330    4.3450 c3        1 L9R      0.090800
     10 C6          3.9070   -3.4810    5.5620 c3        1 L9R      0.079100
     11 C7          2.2010   -2.0070    6.4600 c3        1 L9R      0.079100
     12 C8          1.7030   -3.3690    4.5180 c3        1 L9R      0.079100
     13 C11         0.8960   -4.3360   -4.1600 c         1 L9R      0.633100
     14 O11         1.2190   -5.4150   -4.6600 o         1 L9R     -0.545000
     15 C12         0.5960   -3.0370   -4.8420 c3        1 L9R     -0.126400
     16 C13         1.6790   -2.6960   -5.8440 c3        1 L9R     -0.080400
     17 C14         1.3150   -1.4500   -6.6240 c3        1 L9R     -0.077400
     18 C15         2.4040   -1.0910   -7.6120 c3        1 L9R     -0.079400
     19 C16         2.0440    0.1530   -8.3960 c3        1 L9R     -0.078400
     20 C17         3.1360    0.5160   -9.3800 c3        1 L9R     -0.079400
     21 C18         2.7780    1.7610  -10.1640 c3        1 L9R     -0.078400
     22 C19         3.8720    2.1260  -11.1440 c3        1 L9R     -0.079400
     23 O1P         3.8920   -4.4320    2.6670 o         1 L9R     -0.818000
     24 C20         3.5150    3.3710  -11.9270 c3        1 L9R     -0.078400
     25 C21         4.6100    3.7370  -12.9060 c3        1 L9R     -0.079400
     26 C22         4.2550    4.9820  -13.6890 c3        1 L9R     -0.078400
     27 C23         5.3510    5.3490  -14.6650 c3        1 L9R     -0.079400
     28 C24         4.9960    6.5950  -15.4490 c3        1 L9R     -0.078400
     29 C25         6.0930    6.9630  -16.4240 c3        1 L9R     -0.079400
     30 C26         5.7370    8.2070  -17.2090 c3        1 L9R     -0.079400
     31 C27         6.8350    8.5760  -18.1840 c3        1 L9R     -0.080400
     32 C28         6.4840    9.8150  -18.9680 c3        1 L9R     -0.092100
     33 O2P         4.2310   -3.6070    0.1600 o         1 L9R     -0.818000
     34 C31        -1.4180   -6.1140   -0.2560 c         1 L9R      0.632100
     35 O31        -0.8810   -7.2230   -0.3050 o         1 L9R     -0.549000
     36 C32        -2.8700   -5.7900   -0.0740 c3        1 L9R     -0.128400
     37 C33        -3.5220   -6.7470    0.9010 c3        1 L9R     -0.078400
     38 C34        -5.0130   -6.5030    0.9800 c3        1 L9R     -0.078400
     39 C35        -5.6660   -7.4440    1.9700 c3        1 L9R     -0.078400
     40 C36        -7.1580   -7.2020    2.0540 c3        1 L9R     -0.079400
     41 C37        -7.8100   -8.1400    3.0480 c3        1 L9R     -0.077400
     42 C38        -9.3020   -7.8950    3.1330 c3        1 L9R     -0.049200
     43 C39        -9.9650   -8.7960    4.1050 c2        1 L9R     -0.174200
     44 O3P         1.9290   -4.0520    1.1870 os        1 L9R     -0.584200
     45 C40       -11.2660   -8.7330    4.4090 c2        1 L9R     -0.173200
     46 C41       -12.2030   -7.7520    3.8140 c3        1 L9R     -0.049200
     47 C42       -13.6240   -7.9440    4.3030 c3        1 L9R     -0.077400
     48 C43       -14.5590   -6.9300    3.6800 c3        1 L9R     -0.079400
     49 C44       -15.9790   -7.1200    4.1680 c3        1 L9R     -0.079400
     50 C45       -16.9140   -6.1060    3.5450 c3        1 L9R     -0.079400
     51 C46       -18.3340   -6.2960    4.0330 c3        1 L9R     -0.079400
     52 C47       -19.2710   -5.2820    3.4110 c3        1 L9R     -0.080400
     53 C48       -20.6860   -5.4670    3.8930 c3        1 L9R     -0.092100
     54 O4P         3.2300   -2.1840    2.0570 os        1 L9R     -0.569200
     55 H1          2.2240   -3.5480   -0.8110 h1        1 L9R      0.068700
     56 H1A         0.6160   -3.0590   -0.0490 h1        1 L9R      0.068700
     57 H2          1.1230   -6.0420    0.0210 h1        1 L9R      0.094700
     58 H3          0.4320   -6.2960   -2.4330 h1        1 L9R      0.071200
     59 H3A         2.1500   -5.6920   -2.1960 h1        1 L9R      0.071200
     60 H4          4.5310   -0.7880    2.7870 h1        1 L9R      0.054700
     61 H4A         4.8520   -2.5270    3.3100 h1        1 L9R      0.054700
     62 H5          3.8640   -0.7720    5.0020 hx        1 L9R      0.079700
     63 H5A         2.3080   -0.8770    4.0180 hx        1 L9R      0.079700
     64 H6          3.5810   -4.1680    6.3860 hx        1 L9R      0.100033
     65 H6A         4.7730   -2.8580    5.9020 hx        1 L9R      0.100033
     66 H6B         4.2040   -4.1040    4.6620 hx        1 L9R      0.100033
     67 H7          1.7830   -2.8340    7.0910 hx        1 L9R      0.100033
     68 H7A         3.0070   -1.4740    7.0290 hx        1 L9R      0.100033
     69 H7B         1.3830   -1.2860    6.2010 hx        1 L9R      0.100033
     70 H8          2.1330   -3.8250    3.5710 hx        1 L9R      0.100033
     71 H8A         0.8540   -2.6880    4.2540 hx        1 L9R      0.100033
     72 H8B         1.3570   -4.1860    5.2000 hx        1 L9R      0.100033
     73 H12         0.4970   -2.2210   -4.0780 hc        1 L9R      0.075200
     74 H12A       -0.3940   -3.1490   -5.3590 hc        1 L9R      0.075200
     75 H13         2.6510   -2.5360   -5.3070 hc        1 L9R      0.059700
     76 H13A        1.8230   -3.5600   -6.5460 hc        1 L9R      0.059700
     77 H14         1.1510   -0.5960   -5.9160 hc        1 L9R      0.039200
     78 H14A        0.3500   -1.6160   -7.1720 hc        1 L9R      0.039200
     79 H15         2.5690   -1.9470   -8.3180 hc        1 L9R      0.043700
     80 H15A        3.3680   -0.9240   -7.0640 hc        1 L9R      0.043700
     81 H16         1.8750    1.0080   -7.6890 hc        1 L9R      0.038700
     82 H16A        1.0810   -0.0150   -8.9480 hc        1 L9R      0.038700
     83 H17         3.3040   -0.3380  -10.0870 hc        1 L9R      0.040700
     84 H17A        4.0980    0.6830   -8.8290 hc        1 L9R      0.040700
     85 H18         2.6070    2.6150   -9.4560 hc        1 L9R      0.038700
     86 H18A        1.8170    1.5930  -10.7170 hc        1 L9R      0.038700
     87 H19         4.0420    1.2720  -11.8520 hc        1 L9R      0.039700
     88 H19A        4.8330    2.2920  -10.5910 hc        1 L9R      0.039700
     89 H20         2.5550    3.2040  -12.4830 hc        1 L9R      0.038700
     90 H20A        3.3430    4.2240  -11.2190 hc        1 L9R      0.038700
     91 H21         5.5710    3.9030  -12.3500 hc        1 L9R      0.039700
     92 H21A        4.7820    2.8840  -13.6140 hc        1 L9R      0.039700
     93 H22         3.2950    4.8160  -14.2460 hc        1 L9R      0.039200
     94 H22A        4.0810    5.8350  -12.9800 hc        1 L9R      0.039200
     95 H23         6.3110    5.5170  -14.1080 hc        1 L9R      0.039700
     96 H23A        5.5250    4.4970  -15.3730 hc        1 L9R      0.039700
     97 H24         4.8200    7.4470  -14.7410 hc        1 L9R      0.039200
     98 H24A        4.0370    6.4270  -16.0070 hc        1 L9R      0.039200
     99 H25         6.2690    6.1090  -17.1320 hc        1 L9R      0.039700
    100 H25A        7.0520    7.1310  -15.8660 hc        1 L9R      0.039700
    101 H26         4.7790    8.0380  -17.7680 hc        1 L9R      0.039200
    102 H26A        5.5610    9.0600  -16.5020 hc        1 L9R      0.039200
    103 H27         7.0110    7.7210  -18.8890 hc        1 L9R      0.038700
    104 H27A        7.7920    8.7440  -17.6230 hc        1 L9R      0.038700
    105 H28         6.3290   10.6840  -18.2840 hc        1 L9R      0.032367
    106 H28A        7.3060   10.0690  -19.6800 hc        1 L9R      0.032367
    107 H28B        5.5460    9.6590  -19.5530 hc        1 L9R      0.032367
    108 H32        -3.3590   -5.8670   -1.0830 hc        1 L9R      0.075700
    109 H32A       -2.9790   -4.7310    0.2790 hc        1 L9R      0.075700
    110 H33        -3.3210   -7.8030    0.5760 hc        1 L9R      0.056700
    111 H33A       -3.0620   -6.6210    1.9160 hc        1 L9R      0.056700
    112 H34        -5.2060   -5.4410    1.2860 hc        1 L9R      0.040200
    113 H34A       -5.4730   -6.6450   -0.0330 hc        1 L9R      0.040200
    114 H35        -5.4730   -8.5050    1.6630 hc        1 L9R      0.042200
    115 H35A       -5.2050   -7.3030    2.9830 hc        1 L9R      0.042200
    116 H36        -7.6200   -7.3470    1.0420 hc        1 L9R      0.039200
    117 H36A       -7.3510   -6.1390    2.3570 hc        1 L9R      0.039200
    118 H37        -7.6200   -9.2030    2.7430 hc        1 L9R      0.042200
    119 H37A       -7.3470   -7.9970    4.0600 hc        1 L9R      0.042200
    120 H38        -9.4920   -6.8250    3.4250 hc        1 L9R      0.047200
    121 H38A       -9.7650   -8.0380    2.1180 hc        1 L9R      0.047200
    122 H39        -9.3190   -9.5510    4.5820 ha        1 L9R      0.122000
    123 H40       -11.7010   -9.4350    5.1390 ha        1 L9R      0.122000
    124 H41       -11.8590   -6.7100    4.0630 hc        1 L9R      0.047200
    125 H41A      -12.1760   -7.8400    2.6930 hc        1 L9R      0.047200
    126 H42       -13.9710   -8.9810    4.0510 hc        1 L9R      0.041200
    127 H42A      -13.6540   -7.8480    5.4200 hc        1 L9R      0.041200
    128 H43       -14.2100   -5.8930    3.9310 hc        1 L9R      0.039200
    129 H43A      -14.5290   -7.0270    2.5620 hc        1 L9R      0.039200
    130 H44       -16.0090   -7.0230    5.2850 hc        1 L9R      0.040200
    131 H44A      -16.3270   -8.1560    3.9160 hc        1 L9R      0.040200
    132 H45       -16.5660   -5.0690    3.7960 hc        1 L9R      0.039200
    133 H45A      -16.8840   -6.2030    2.4280 hc        1 L9R      0.039200
    134 H46       -18.6830   -7.3320    3.7810 hc        1 L9R      0.039700
    135 H46A      -18.3650   -6.1990    5.1500 hc        1 L9R      0.039700
    136 H47       -19.2380   -5.3790    2.2930 hc        1 L9R      0.038200
    137 H47A      -18.9200   -4.2460    3.6620 hc        1 L9R      0.038200
    138 H48       -21.3590   -4.7100    3.4230 hc        1 L9R      0.032700
    139 H48A      -21.0620   -6.4850    3.6300 hc        1 L9R      0.032700
    140 H48B      -20.7440   -5.3500    5.0020 hc        1 L9R      0.032700
@<TRIPOS>BOND
     1    1    9 1   
     2    1   10 1   
     3    1   11 1   
     4    1   12 1   
     5    2   23 1   
     6    2   33 1   
     7    2   44 1   
     8    2   54 1   
     9    3    4 1   
    10    3   44 1   
    11    3   55 1   
    12    3   56 1   
    13    4    5 1   
    14    4    6 1   
    15    4   57 1   
    16    5   34 1   
    17    6    7 1   
    18    6   58 1   
    19    6   59 1   
    20    7   13 1   
    21    8    9 1   
    22    8   54 1   
    23    8   60 1   
    24    8   61 1   
    25    9   62 1   
    26    9   63 1   
    27   10   64 1   
    28   10   65 1   
    29   10   66 1   
    30   11   67 1   
    31   11   68 1   
    32   11   69 1   
    33   12   70 1   
    34   12   71 1   
    35   12   72 1   
    36   13   14 2   
    37   13   15 1   
    38   15   16 1   
    39   15   73 1   
    40   15   74 1   
    41   16   17 1   
    42   16   75 1   
    43   16   76 1   
    44   17   18 1   
    45   17   77 1   
    46   17   78 1   
    47   18   19 1   
    48   18   79 1   
    49   18   80 1   
    50   19   20 1   
    51   19   81 1   
    52   19   82 1   
    53   20   21 1   
    54   20   83 1   
    55   20   84 1   
    56   21   22 1   
    57   21   85 1   
    58   21   86 1   
    59   22   24 1   
    60   22   87 1   
    61   22   88 1   
    62   24   25 1   
    63   24   89 1   
    64   24   90 1   
    65   25   26 1   
    66   25   91 1   
    67   25   92 1   
    68   26   27 1   
    69   26   93 1   
    70   26   94 1   
    71   27   28 1   
    72   27   95 1   
    73   27   96 1   
    74   28   29 1   
    75   28   97 1   
    76   28   98 1   
    77   29   30 1   
    78   29   99 1   
    79   29  100 1   
    80   30   31 1   
    81   30  101 1   
    82   30  102 1   
    83   31   32 1   
    84   31  103 1   
    85   31  104 1   
    86   32  105 1   
    87   32  106 1   
    88   32  107 1   
    89   34   35 2   
    90   34   36 1   
    91   36   37 1   
    92   36  108 1   
    93   36  109 1   
    94   37   38 1   
    95   37  110 1   
    96   37  111 1   
    97   38   39 1   
    98   38  112 1   
    99   38  113 1   
   100   39   40 1   
   101   39  114 1   
   102   39  115 1   
   103   40   41 1   
   104   40  116 1   
   105   40  117 1   
   106   41   42 1   
   107   41  118 1   
   108   41  119 1   
   109   42   43 1   
   110   42  120 1   
   111   42  121 1   
   112   43   45 2   
   113   43  122 1   
   114   45   46 1   
   115   45  123 1   
   116   46   47 1   
   117   46  124 1   
   118   46  125 1   
   119   47   48 1   
   120   47  126 1   
   121   47  127 1   
   122   48   49 1   
   123   48  128 1   
   124   48  129 1   
   125   49   50 1   
   126   49  130 1   
   127   49  131 1   
   128   50   51 1   
   129   50  132 1   
   130   50  133 1   
   131   51   52 1   
   132   51  134 1   
   133   51  135 1   
   134   52   53 1   
   135   52  136 1   
   136   52  137 1   
   137   53  138 1   
   138   53  139 1   
   139   53  140 1   
@<TRIPOS>SUBSTRUCTURE
     1 L9R         1 TEMP              0 ****  ****    0 ROOT
