@<TRIPOS>MOLECULE
L9R
  140   139     1     0     0
SMALL
bcc


@<TRIPOS>ATOM
      1 N           2.2080    5.7130    6.6860 n4        1 L9R     -0.581800
      2 P          -0.2010    5.7560    3.4810 p5        1 L9R      1.439800
      3 C1          0.1020    3.7470    1.8600 c3        1 L9R      0.175400
      4 C2          0.7600    3.8300    0.4730 c3        1 L9R      0.128100
      5 O2          1.6530    2.7020    0.4010 os        1 L9R     -0.430900
      6 C3         -0.2550    3.7640   -0.6630 c3        1 L9R      0.114400
      7 O3         -1.1030    2.6300   -0.4240 os        1 L9R     -0.435900
      8 C4         -0.3260    5.6010    6.0830 c3        1 L9R      0.199400
      9 C5          0.8380    5.1680    6.9960 c3        1 L9R      0.090800
     10 C6          2.1860    7.2000    6.5660 c3        1 L9R      0.079100
     11 C7          3.1110    5.3380    7.8160 c3        1 L9R      0.079100
     12 C8          2.7510    5.1150    5.4300 c3        1 L9R      0.079100
     13 C11        -2.0200    2.3340   -1.3930 c         1 L9R      0.633100
     14 O11        -2.0360    3.0190   -2.4180 o         1 L9R     -0.545000
     15 C12        -2.8740    1.1570   -1.0350 c3        1 L9R     -0.126400
     16 C13        -4.3220    1.4110   -1.4020 c3        1 L9R     -0.080400
     17 C14        -5.1590    0.1720   -1.1690 c3        1 L9R     -0.077400
     18 C15        -6.6110    0.4240   -1.5160 c3        1 L9R     -0.079400
     19 C16        -7.4520   -0.8140   -1.2900 c3        1 L9R     -0.078400
     20 C17        -8.9040   -0.5610   -1.6360 c3        1 L9R     -0.079400
     21 C18        -9.7460   -1.7990   -1.4100 c3        1 L9R     -0.078400
     22 C19       -11.1970   -1.5460   -1.7560 c3        1 L9R     -0.079400
     23 O1P         0.7220    6.8310    3.9200 o         1 L9R     -0.818000
     24 C20       -12.0400   -2.7840   -1.5300 c3        1 L9R     -0.078400
     25 C21       -13.4910   -2.5310   -1.8760 c3        1 L9R     -0.079400
     26 C22       -14.3340   -3.7680   -1.6510 c3        1 L9R     -0.078400
     27 C23       -15.7850   -3.5150   -1.9960 c3        1 L9R     -0.079400
     28 C24       -16.6280   -4.7530   -1.7710 c3        1 L9R     -0.078400
     29 C25       -18.0790   -4.5000   -2.1170 c3        1 L9R     -0.079400
     30 C26       -18.9220   -5.7370   -1.8920 c3        1 L9R     -0.079400
     31 C27       -20.3740   -5.4850   -2.2370 c3        1 L9R     -0.080400
     32 C28       -21.2170   -6.7140   -2.0140 c3        1 L9R     -0.092100
     33 O2P        -1.5160    5.8670    2.8480 o         1 L9R     -0.818000
     34 C31         2.7160    2.7790   -0.4520 c         1 L9R      0.632100
     35 O31         2.8730    3.7970   -1.1290 o         1 L9R     -0.549000
     36 C32         3.5500    1.5340   -0.4350 c3        1 L9R     -0.128400
     37 C33         5.0190    1.8610   -0.6010 c3        1 L9R     -0.079400
     38 C34         5.8420    0.5970   -0.7240 c3        1 L9R     -0.078400
     39 C35         7.3140    0.9170   -0.8680 c3        1 L9R     -0.078400
     40 C36         8.1400   -0.3450   -0.9950 c3        1 L9R     -0.079400
     41 C37         9.6130   -0.0240   -1.1340 c3        1 L9R     -0.077400
     42 C38        10.4380   -1.2880   -1.2600 c3        1 L9R     -0.049200
     43 C39        11.8860   -1.0040   -1.3920 c2        1 L9R     -0.174200
     44 O3P         0.7320    4.6490    2.7240 os        1 L9R     -0.584200
     45 C40        12.8250   -1.9530   -1.4750 c2        1 L9R     -0.173200
     46 C41        12.5320   -3.4050   -1.4420 c3        1 L9R     -0.049200
     47 C42        13.7820   -4.2470   -1.5940 c3        1 L9R     -0.077400
     48 C43        13.4530   -5.7240   -1.5580 c3        1 L9R     -0.079400
     49 C44        14.7000   -6.5680   -1.7080 c3        1 L9R     -0.079400
     50 C45        14.3720   -8.0450   -1.6730 c3        1 L9R     -0.079400
     51 C46        15.6200   -8.8890   -1.8230 c3        1 L9R     -0.079400
     52 C47        15.2930  -10.3670   -1.7880 c3        1 L9R     -0.080400
     53 C48        16.5320  -11.2110   -1.9370 c3        1 L9R     -0.092100
     54 O4P        -0.3250    4.8830    4.9070 os        1 L9R     -0.569200
     55 H1         -0.9950    3.9860    1.7700 h1        1 L9R      0.068700
     56 H1A         0.2380    2.7050    2.2640 h1        1 L9R      0.068700
     57 H2          1.3520    4.7830    0.3640 h1        1 L9R      0.094700
     58 H3         -0.8890    4.6890   -0.6750 h1        1 L9R      0.071700
     59 H3A         0.2620    3.6410   -1.6510 h1        1 L9R      0.071700
     60 H4         -1.2580    5.3360    6.6680 h1        1 L9R      0.054700
     61 H4A        -0.3020    6.7110    5.8960 h1        1 L9R      0.054700
     62 H5          0.9140    4.0450    6.9480 hx        1 L9R      0.079700
     63 H5A         0.5930    5.4900    8.0470 hx        1 L9R      0.079700
     64 H6          1.6100    7.6280    7.4260 hx        1 L9R      0.100033
     65 H6A         3.2390    7.5820    6.5820 hx        1 L9R      0.100033
     66 H6B         1.7020    7.5010    5.5850 hx        1 L9R      0.100033
     67 H7          3.0930    4.2250    7.9530 hx        1 L9R      0.100033
     68 H7A         4.1570    5.6680    7.5830 hx        1 L9R      0.100033
     69 H7B         2.7640    5.8390    8.7570 hx        1 L9R      0.100033
     70 H8          2.0810    5.4110    4.5620 hx        1 L9R      0.100033
     71 H8A         3.7840    5.5100    5.2540 hx        1 L9R      0.100033
     72 H8B         2.7670    4.0000    5.5280 hx        1 L9R      0.100033
     73 H12        -2.4780    0.2710   -1.5990 hc        1 L9R      0.075200
     74 H12A       -2.7790    0.9410    0.0610 hc        1 L9R      0.075200
     75 H13        -4.7210    2.2600   -0.7880 hc        1 L9R      0.059700
     76 H13A       -4.3850    1.7210   -2.4790 hc        1 L9R      0.059700
     77 H14        -4.7650   -0.6730   -1.7930 hc        1 L9R      0.039200
     78 H14A       -5.0780   -0.1420   -0.0950 hc        1 L9R      0.039200
     79 H15        -7.0060    1.2680   -0.8900 hc        1 L9R      0.043200
     80 H15A       -6.6910    0.7430   -2.5890 hc        1 L9R      0.043200
     81 H16        -7.0570   -1.6570   -1.9160 hc        1 L9R      0.038700
     82 H16A       -7.3710   -1.1330   -0.2170 hc        1 L9R      0.038700
     83 H17        -9.2990    0.2820   -1.0090 hc        1 L9R      0.040700
     84 H17A       -8.9850   -0.2420   -2.7080 hc        1 L9R      0.040700
     85 H18        -9.3510   -2.6420   -2.0370 hc        1 L9R      0.038700
     86 H18A       -9.6650   -2.1190   -0.3380 hc        1 L9R      0.038700
     87 H19       -11.5920   -0.7030   -1.1290 hc        1 L9R      0.039700
     88 H19A      -11.2780   -1.2260   -2.8280 hc        1 L9R      0.039700
     89 H20       -11.6450   -3.6270   -2.1570 hc        1 L9R      0.038700
     90 H20A      -11.9590   -3.1030   -0.4580 hc        1 L9R      0.038700
     91 H21       -13.8860   -1.6880   -1.2500 hc        1 L9R      0.039700
     92 H21A      -13.5720   -2.2110   -2.9490 hc        1 L9R      0.039700
     93 H22       -13.9390   -4.6110   -2.2770 hc        1 L9R      0.039200
     94 H22A      -14.2530   -4.0880   -0.5780 hc        1 L9R      0.039200
     95 H23       -16.1800   -2.6730   -1.3700 hc        1 L9R      0.039700
     96 H23A      -15.8660   -3.1960   -3.0690 hc        1 L9R      0.039700
     97 H24       -16.2330   -5.5960   -2.3980 hc        1 L9R      0.039200
     98 H24A      -16.5470   -5.0730   -0.6990 hc        1 L9R      0.039200
     99 H25       -18.4740   -3.6570   -1.4900 hc        1 L9R      0.039700
    100 H25A      -18.1600   -4.1800   -3.1890 hc        1 L9R      0.039700
    101 H26       -18.5280   -6.5800   -2.5180 hc        1 L9R      0.039200
    102 H26A      -18.8410   -6.0570   -0.8190 hc        1 L9R      0.039200
    103 H27       -20.7660   -4.6410   -1.6100 hc        1 L9R      0.038700
    104 H27A      -20.4530   -5.1640   -3.3090 hc        1 L9R      0.038700
    105 H28       -21.1710   -7.0360   -0.9460 hc        1 L9R      0.032367
    106 H28A      -22.2830   -6.5070   -2.2750 hc        1 L9R      0.032367
    107 H28B      -20.8570   -7.5600   -2.6490 hc        1 L9R      0.032367
    108 H32         3.3750    0.9750    0.5210 hc        1 L9R      0.075700
    109 H32A        3.1970    0.8840   -1.2810 hc        1 L9R      0.075700
    110 H33         5.1580    2.5020   -1.5120 hc        1 L9R      0.056700
    111 H33A        5.3720    2.4590    0.2800 hc        1 L9R      0.056700
    112 H34         5.6830   -0.0480    0.1800 hc        1 L9R      0.039700
    113 H34A        5.4970    0.0070   -1.6150 hc        1 L9R      0.039700
    114 H35         7.4710    1.5630   -1.7720 hc        1 L9R      0.042200
    115 H35A        7.6600    1.5050    0.0230 hc        1 L9R      0.042200
    116 H36         7.9790   -0.9930   -0.0930 hc        1 L9R      0.039200
    117 H36A        7.7970   -0.9310   -1.8880 hc        1 L9R      0.039200
    118 H37         9.7740    0.6220   -2.0360 hc        1 L9R      0.042200
    119 H37A        9.9570    0.5610   -0.2410 hc        1 L9R      0.042200
    120 H38        10.2650   -1.9420   -0.3610 hc        1 L9R      0.047200
    121 H38A       10.0910   -1.8750   -2.1550 hc        1 L9R      0.047200
    122 H39        12.1680    0.0620   -1.4230 ha        1 L9R      0.122000
    123 H40        13.8870   -1.6770   -1.5750 ha        1 L9R      0.122000
    124 H41        12.0210   -3.6600   -0.4730 hc        1 L9R      0.047200
    125 H41A       11.8060   -3.6580   -2.2640 hc        1 L9R      0.047200
    126 H42        14.2880   -3.9980   -2.5630 hc        1 L9R      0.041200
    127 H42A       14.5030   -4.0020   -0.7700 hc        1 L9R      0.041200
    128 H43        12.9450   -5.9730   -0.5890 hc        1 L9R      0.039200
    129 H43A       12.7320   -5.9690   -2.3810 hc        1 L9R      0.039200
    130 H44        15.2080   -6.3190   -2.6770 hc        1 L9R      0.039700
    131 H44A       15.4220   -6.3230   -0.8840 hc        1 L9R      0.039700
    132 H45        13.8640   -8.2940   -0.7040 hc        1 L9R      0.039200
    133 H45A       13.6510   -8.2900   -2.4960 hc        1 L9R      0.039200
    134 H46        16.1280   -8.6400   -2.7920 hc        1 L9R      0.039700
    135 H46A       16.3410   -8.6450   -0.9990 hc        1 L9R      0.039700
    136 H47        14.7830  -10.6140   -0.8190 hc        1 L9R      0.038200
    137 H47A       14.5700  -10.6090   -2.6110 hc        1 L9R      0.038200
    138 H48        17.2540  -11.0020   -1.1110 hc        1 L9R      0.032700
    139 H48A       16.2680  -12.2960   -1.9080 hc        1 L9R      0.032700
    140 H48B       17.0400  -10.9970   -2.9080 hc        1 L9R      0.032700
@<TRIPOS>BOND
     1    1    9 1   
     2    1   10 1   
     3    1   11 1   
     4    1   12 1   
     5    2   23 1   
     6    2   33 1   
     7    2   44 1   
     8    2   54 1   
     9    3    4 1   
    10    3   44 1   
    11    3   55 1   
    12    3   56 1   
    13    4    5 1   
    14    4    6 1   
    15    4   57 1   
    16    5   34 1   
    17    6    7 1   
    18    6   58 1   
    19    6   59 1   
    20    7   13 1   
    21    8    9 1   
    22    8   54 1   
    23    8   60 1   
    24    8   61 1   
    25    9   62 1   
    26    9   63 1   
    27   10   64 1   
    28   10   65 1   
    29   10   66 1   
    30   11   67 1   
    31   11   68 1   
    32   11   69 1   
    33   12   70 1   
    34   12   71 1   
    35   12   72 1   
    36   13   14 2   
    37   13   15 1   
    38   15   16 1   
    39   15   73 1   
    40   15   74 1   
    41   16   17 1   
    42   16   75 1   
    43   16   76 1   
    44   17   18 1   
    45   17   77 1   
    46   17   78 1   
    47   18   19 1   
    48   18   79 1   
    49   18   80 1   
    50   19   20 1   
    51   19   81 1   
    52   19   82 1   
    53   20   21 1   
    54   20   83 1   
    55   20   84 1   
    56   21   22 1   
    57   21   85 1   
    58   21   86 1   
    59   22   24 1   
    60   22   87 1   
    61   22   88 1   
    62   24   25 1   
    63   24   89 1   
    64   24   90 1   
    65   25   26 1   
    66   25   91 1   
    67   25   92 1   
    68   26   27 1   
    69   26   93 1   
    70   26   94 1   
    71   27   28 1   
    72   27   95 1   
    73   27   96 1   
    74   28   29 1   
    75   28   97 1   
    76   28   98 1   
    77   29   30 1   
    78   29   99 1   
    79   29  100 1   
    80   30   31 1   
    81   30  101 1   
    82   30  102 1   
    83   31   32 1   
    84   31  103 1   
    85   31  104 1   
    86   32  105 1   
    87   32  106 1   
    88   32  107 1   
    89   34   35 2   
    90   34   36 1   
    91   36   37 1   
    92   36  108 1   
    93   36  109 1   
    94   37   38 1   
    95   37  110 1   
    96   37  111 1   
    97   38   39 1   
    98   38  112 1   
    99   38  113 1   
   100   39   40 1   
   101   39  114 1   
   102   39  115 1   
   103   40   41 1   
   104   40  116 1   
   105   40  117 1   
   106   41   42 1   
   107   41  118 1   
   108   41  119 1   
   109   42   43 1   
   110   42  120 1   
   111   42  121 1   
   112   43   45 2   
   113   43  122 1   
   114   45   46 1   
   115   45  123 1   
   116   46   47 1   
   117   46  124 1   
   118   46  125 1   
   119   47   48 1   
   120   47  126 1   
   121   47  127 1   
   122   48   49 1   
   123   48  128 1   
   124   48  129 1   
   125   49   50 1   
   126   49  130 1   
   127   49  131 1   
   128   50   51 1   
   129   50  132 1   
   130   50  133 1   
   131   51   52 1   
   132   51  134 1   
   133   51  135 1   
   134   52   53 1   
   135   52  136 1   
   136   52  137 1   
   137   53  138 1   
   138   53  139 1   
   139   53  140 1   
@<TRIPOS>SUBSTRUCTURE
     1 L9R         1 TEMP              0 ****  ****    0 ROOT
