@<TRIPOS>MOLECULE
L9R
  140   139     1     0     0
SMALL
bcc


@<TRIPOS>ATOM
      1 N           4.8080   -1.3810    1.9150 n4        1 L9R     -0.581800
      2 P           3.0070   -2.8860   -1.3360 p5        1 L9R      1.448800
      3 C1          0.5840   -3.7400   -0.9310 c3        1 L9R      0.172400
      4 C2          0.1250   -5.1910   -0.7040 c3        1 L9R      0.126100
      5 O2         -1.3070   -5.1090   -0.5680 os        1 L9R     -0.432900
      6 C3          0.4900   -6.1400   -1.8410 c3        1 L9R      0.117400
      7 O3          0.0980   -5.5280   -3.0750 os        1 L9R     -0.437900
      8 C4          3.9900   -0.6370   -0.4480 c3        1 L9R      0.199400
      9 C5          4.2120   -0.3070    1.0420 c3        1 L9R      0.090800
     10 C6          6.0620   -1.9290    1.3210 c3        1 L9R      0.078767
     11 C7          5.1340   -0.7610    3.2350 c3        1 L9R      0.078767
     12 C8          3.8330   -2.4890    2.1420 c3        1 L9R      0.078767
     13 C11         0.7620   -5.9200   -4.2070 c         1 L9R      0.645100
     14 O11         1.5100   -6.8980   -4.1360 o         1 L9R     -0.551000
     15 C12         0.4360   -5.0650   -5.3920 c3        1 L9R     -0.118400
     16 C13         1.5670   -4.0880   -5.6490 c3        1 L9R     -0.101400
     17 C14         1.2280   -3.1770   -6.8090 c3        1 L9R     -0.068400
     18 C15         2.3550   -2.2010   -7.0730 c3        1 L9R     -0.081400
     19 C16         2.0140   -1.2630   -8.2100 c3        1 L9R     -0.078400
     20 C17         3.1430   -0.2920   -8.4780 c3        1 L9R     -0.078400
     21 C18         2.8030    0.6500   -9.6130 c3        1 L9R     -0.079400
     22 C19         3.9330    1.6200   -9.8820 c3        1 L9R     -0.078400
     23 O1P         4.3110   -3.2970   -0.7660 o         1 L9R     -0.822000
     24 C20         3.5920    2.5630  -11.0160 c3        1 L9R     -0.079400
     25 C21         4.7230    3.5310  -11.2850 c3        1 L9R     -0.078400
     26 C22         4.3810    4.4740  -12.4190 c3        1 L9R     -0.079400
     27 C23         5.5130    5.4430  -12.6890 c3        1 L9R     -0.078400
     28 C24         5.1710    6.3860  -13.8220 c3        1 L9R     -0.079400
     29 C25         6.3030    7.3540  -14.0920 c3        1 L9R     -0.079400
     30 C26         5.9610    8.2970  -15.2260 c3        1 L9R     -0.079400
     31 C27         7.0920    9.2660  -15.4970 c3        1 L9R     -0.080400
     32 C28         6.7560   10.2070  -16.6250 c3        1 L9R     -0.092100
     33 O2P         2.5960   -2.8190   -2.7410 o         1 L9R     -0.822000
     34 C31        -1.9410   -6.0930    0.1340 c         1 L9R      0.634100
     35 O31        -1.2710   -6.9850    0.6580 o         1 L9R     -0.552000
     36 C32        -3.4290   -5.9160    0.1380 c3        1 L9R     -0.128400
     37 C33        -4.0280   -6.3640    1.4540 c3        1 L9R     -0.078400
     38 C34        -5.5400   -6.3170    1.4010 c3        1 L9R     -0.079400
     39 C35        -6.1450   -6.7450    2.7200 c3        1 L9R     -0.078400
     40 C36        -7.6570   -6.7030    2.6690 c3        1 L9R     -0.079400
     41 C37        -8.2620   -7.1300    3.9900 c3        1 L9R     -0.077400
     42 C38        -9.7750   -7.0870    3.9370 c3        1 L9R     -0.049200
     43 C39       -10.3950   -7.4980    5.2180 c2        1 L9R     -0.174200
     44 O3P         1.8730   -3.5980   -0.4020 os        1 L9R     -0.584200
     45 C40       -11.7150   -7.5190    5.4320 c2        1 L9R     -0.174200
     46 C41       -12.7190   -7.1310    4.4130 c3        1 L9R     -0.049200
     47 C42       -14.1390   -7.2770    4.9210 c3        1 L9R     -0.077400
     48 C43       -15.1420   -6.8750    3.8610 c3        1 L9R     -0.079400
     49 C44       -16.5620   -7.0200    4.3660 c3        1 L9R     -0.078400
     50 C45       -17.5650   -6.6190    3.3070 c3        1 L9R     -0.079400
     51 C46       -18.9850   -6.7630    3.8120 c3        1 L9R     -0.079400
     52 C47       -19.9900   -6.3620    2.7530 c3        1 L9R     -0.080400
     53 C48       -21.4050   -6.5040    3.2510 c3        1 L9R     -0.092100
     54 O4P         2.8410   -1.3780   -0.6240 os        1 L9R     -0.570200
     55 H1          0.5750   -3.4890   -2.0290 h1        1 L9R      0.065200
     56 H1A        -0.1150   -3.0550   -0.3730 h1        1 L9R      0.065200
     57 H2          0.5740   -5.5960    0.2470 h1        1 L9R      0.087700
     58 H3         -0.0660   -7.1080   -1.7400 h1        1 L9R      0.067700
     59 H3A         1.5950   -6.3320   -1.8380 h1        1 L9R      0.067700
     60 H4          3.8490    0.3700   -0.9430 h1        1 L9R      0.055200
     61 H4A         4.8900   -1.1510   -0.8870 h1        1 L9R      0.055200
     62 H5          4.9060    0.5780    1.1010 hx        1 L9R      0.080200
     63 H5A         3.2120   -0.0390    1.4880 hx        1 L9R      0.080200
     64 H6          6.7070   -1.0800    0.9800 hx        1 L9R      0.100033
     65 H6A         6.5990   -2.5320    2.0990 hx        1 L9R      0.100033
     66 H6B         5.8110   -2.6050    0.4450 hx        1 L9R      0.100033
     67 H7          4.2110   -0.2940    3.6660 hx        1 L9R      0.100033
     68 H7A         5.9240    0.0220    3.0970 hx        1 L9R      0.100033
     69 H7B         5.5120   -1.5530    3.9340 hx        1 L9R      0.100033
     70 H8          2.8970   -2.0710    2.5950 hx        1 L9R      0.100033
     71 H8A         4.2940   -3.2480    2.8230 hx        1 L9R      0.100033
     72 H8B         3.5890   -2.9750    1.1460 hx        1 L9R      0.100033
     73 H12        -0.5190   -4.5080   -5.2010 hc        1 L9R      0.067200
     74 H12A        0.2870   -5.7380   -6.2760 hc        1 L9R      0.067200
     75 H13         1.7630   -3.4760   -4.7210 hc        1 L9R      0.086700
     76 H13A        2.5070   -4.6570   -5.8740 hc        1 L9R      0.086700
     77 H14         0.2870   -2.6110   -6.5820 hc        1 L9R      0.031200
     78 H14A        1.0340   -3.7880   -7.7310 hc        1 L9R      0.031200
     79 H15         3.2920   -2.7670   -7.3190 hc        1 L9R      0.049200
     80 H15A        2.5610   -1.6110   -6.1410 hc        1 L9R      0.049200
     81 H16         1.8000   -1.8560   -9.1380 hc        1 L9R      0.035700
     82 H16A        1.0800   -0.6930   -7.9610 hc        1 L9R      0.035700
     83 H17         3.3580    0.3000   -7.5490 hc        1 L9R      0.039700
     84 H17A        4.0770   -0.8610   -8.7300 hc        1 L9R      0.039700
     85 H18         1.8700    1.2210   -9.3610 hc        1 L9R      0.038700
     86 H18A        2.5860    0.0580  -10.5410 hc        1 L9R      0.038700
     87 H19         4.8660    1.0490  -10.1350 hc        1 L9R      0.038700
     88 H19A        4.1500    2.2110   -8.9540 hc        1 L9R      0.038700
     89 H20         2.6600    3.1340  -10.7630 hc        1 L9R      0.039200
     90 H20A        3.3750    1.9710  -11.9440 hc        1 L9R      0.039200
     91 H21         4.9410    4.1230  -10.3570 hc        1 L9R      0.039200
     92 H21A        5.6550    2.9600  -11.5390 hc        1 L9R      0.039200
     93 H22         3.4500    5.0450  -12.1650 hc        1 L9R      0.039200
     94 H22A        4.1640    3.8830  -13.3470 hc        1 L9R      0.039200
     95 H23         5.7310    6.0340  -11.7610 hc        1 L9R      0.039200
     96 H23A        6.4440    4.8720  -12.9430 hc        1 L9R      0.039200
     97 H24         4.2390    6.9570  -13.5680 hc        1 L9R      0.039700
     98 H24A        4.9530    5.7940  -14.7510 hc        1 L9R      0.039700
     99 H25         7.2340    6.7830  -14.3460 hc        1 L9R      0.039200
    100 H25A        6.5210    7.9460  -13.1640 hc        1 L9R      0.039200
    101 H26         5.0290    8.8690  -14.9720 hc        1 L9R      0.039700
    102 H26A        5.7420    7.7060  -16.1540 hc        1 L9R      0.039700
    103 H27         8.0230    8.6930  -15.7490 hc        1 L9R      0.038200
    104 H27A        7.3100    9.8550  -14.5670 hc        1 L9R      0.038200
    105 H28         5.8450   10.8060  -16.3810 hc        1 L9R      0.032367
    106 H28A        6.5590    9.6400  -17.5670 hc        1 L9R      0.032367
    107 H28B        7.6020   10.9120  -16.8080 hc        1 L9R      0.032367
    108 H32        -3.8390   -6.5300   -0.7080 hc        1 L9R      0.078700
    109 H32A       -3.6810   -4.8420   -0.0660 hc        1 L9R      0.078700
    110 H33        -3.6830   -7.4070    1.6850 hc        1 L9R      0.056200
    111 H33A       -3.6570   -5.7030    2.2810 hc        1 L9R      0.056200
    112 H34        -5.8770   -5.2760    1.1520 hc        1 L9R      0.040700
    113 H34A       -5.9090   -6.9890    0.5820 hc        1 L9R      0.040700
    114 H35        -5.8050   -7.7850    2.9700 hc        1 L9R      0.042200
    115 H35A       -5.7770   -6.0720    3.5390 hc        1 L9R      0.042200
    116 H36        -7.9970   -5.6640    2.4180 hc        1 L9R      0.040200
    117 H36A       -8.0240   -7.3780    1.8520 hc        1 L9R      0.040200
    118 H37        -7.9230   -8.1700    4.2410 hc        1 L9R      0.041700
    119 H37A       -7.8950   -6.4550    4.8070 hc        1 L9R      0.041700
    120 H38       -10.1420   -7.7610    3.1130 hc        1 L9R      0.047200
    121 H38A      -10.1130   -6.0470    3.6750 hc        1 L9R      0.047200
    122 H39        -9.6970   -7.7990    6.0170 ha        1 L9R      0.122000
    123 H40       -12.1150   -7.8370    6.4080 ha        1 L9R      0.122000
    124 H41       -12.5400   -6.0660    4.0990 hc        1 L9R      0.047700
    125 H41A      -12.5820   -7.7650    3.4930 hc        1 L9R      0.047700
    126 H42       -14.3210   -8.3400    5.2280 hc        1 L9R      0.041200
    127 H42A      -14.2800   -6.6400    5.8330 hc        1 L9R      0.041200
    128 H43       -15.0010   -7.5130    2.9490 hc        1 L9R      0.039700
    129 H43A      -14.9590   -5.8120    3.5530 hc        1 L9R      0.039700
    130 H44       -16.7030   -6.3830    5.2790 hc        1 L9R      0.039700
    131 H44A      -16.7450   -8.0830    4.6740 hc        1 L9R      0.039700
    132 H45       -17.4240   -7.2560    2.3940 hc        1 L9R      0.039700
    133 H45A      -17.3820   -5.5550    2.9990 hc        1 L9R      0.039700
    134 H46       -19.1270   -6.1260    4.7240 hc        1 L9R      0.039700
    135 H46A      -19.1680   -7.8260    4.1190 hc        1 L9R      0.039700
    136 H47       -19.8040   -5.2990    2.4450 hc        1 L9R      0.038700
    137 H47A      -19.8460   -6.9990    1.8400 hc        1 L9R      0.038700
    138 H48       -21.6170   -7.5620    3.5390 hc        1 L9R      0.032700
    139 H48A      -21.5750   -5.8580    4.1460 hc        1 L9R      0.032700
    140 H48B      -22.1290   -6.2030    2.4560 hc        1 L9R      0.032700
@<TRIPOS>BOND
     1    1    9 1   
     2    1   10 1   
     3    1   11 1   
     4    1   12 1   
     5    2   23 1   
     6    2   33 1   
     7    2   44 1   
     8    2   54 1   
     9    3    4 1   
    10    3   44 1   
    11    3   55 1   
    12    3   56 1   
    13    4    5 1   
    14    4    6 1   
    15    4   57 1   
    16    5   34 1   
    17    6    7 1   
    18    6   58 1   
    19    6   59 1   
    20    7   13 1   
    21    8    9 1   
    22    8   54 1   
    23    8   60 1   
    24    8   61 1   
    25    9   62 1   
    26    9   63 1   
    27   10   64 1   
    28   10   65 1   
    29   10   66 1   
    30   11   67 1   
    31   11   68 1   
    32   11   69 1   
    33   12   70 1   
    34   12   71 1   
    35   12   72 1   
    36   13   14 2   
    37   13   15 1   
    38   15   16 1   
    39   15   73 1   
    40   15   74 1   
    41   16   17 1   
    42   16   75 1   
    43   16   76 1   
    44   17   18 1   
    45   17   77 1   
    46   17   78 1   
    47   18   19 1   
    48   18   79 1   
    49   18   80 1   
    50   19   20 1   
    51   19   81 1   
    52   19   82 1   
    53   20   21 1   
    54   20   83 1   
    55   20   84 1   
    56   21   22 1   
    57   21   85 1   
    58   21   86 1   
    59   22   24 1   
    60   22   87 1   
    61   22   88 1   
    62   24   25 1   
    63   24   89 1   
    64   24   90 1   
    65   25   26 1   
    66   25   91 1   
    67   25   92 1   
    68   26   27 1   
    69   26   93 1   
    70   26   94 1   
    71   27   28 1   
    72   27   95 1   
    73   27   96 1   
    74   28   29 1   
    75   28   97 1   
    76   28   98 1   
    77   29   30 1   
    78   29   99 1   
    79   29  100 1   
    80   30   31 1   
    81   30  101 1   
    82   30  102 1   
    83   31   32 1   
    84   31  103 1   
    85   31  104 1   
    86   32  105 1   
    87   32  106 1   
    88   32  107 1   
    89   34   35 2   
    90   34   36 1   
    91   36   37 1   
    92   36  108 1   
    93   36  109 1   
    94   37   38 1   
    95   37  110 1   
    96   37  111 1   
    97   38   39 1   
    98   38  112 1   
    99   38  113 1   
   100   39   40 1   
   101   39  114 1   
   102   39  115 1   
   103   40   41 1   
   104   40  116 1   
   105   40  117 1   
   106   41   42 1   
   107   41  118 1   
   108   41  119 1   
   109   42   43 1   
   110   42  120 1   
   111   42  121 1   
   112   43   45 2   
   113   43  122 1   
   114   45   46 1   
   115   45  123 1   
   116   46   47 1   
   117   46  124 1   
   118   46  125 1   
   119   47   48 1   
   120   47  126 1   
   121   47  127 1   
   122   48   49 1   
   123   48  128 1   
   124   48  129 1   
   125   49   50 1   
   126   49  130 1   
   127   49  131 1   
   128   50   51 1   
   129   50  132 1   
   130   50  133 1   
   131   51   52 1   
   132   51  134 1   
   133   51  135 1   
   134   52   53 1   
   135   52  136 1   
   136   52  137 1   
   137   53  138 1   
   138   53  139 1   
   139   53  140 1   
@<TRIPOS>SUBSTRUCTURE
     1 L9R         1 TEMP              0 ****  ****    0 ROOT
