@<TRIPOS>MOLECULE
L9X
   51    51     1     0     0
SMALL
bcc


@<TRIPOS>ATOM
      1 C1         -2.4570   -3.8670   -0.6650 c         1 L9X      0.892600
      2 N1         -4.6570   -2.6370   -0.9900 n3        1 L9X     -0.892800
      3 C2          0.1220    3.4550   -0.7560 c         1 L9X      0.619100
      4 N2         -1.0010    1.2670   -0.3980 n         1 L9X     -0.554900
      5 N1'         3.1590   -2.6790    0.4370 n         1 L9X     -0.519400
      6 O11        -1.2010   -3.8140   -0.5200 o         1 L9X     -0.849800
      7 O12        -3.1350   -4.9280   -0.5710 o         1 L9X     -0.849800
      8 C2'         4.3930   -3.3050    0.0550 c3        1 L9X      0.107000
      9 C3'         2.2220   -3.2390    1.3420 c         1 L9X      0.721500
     10 O31         1.7400    6.6340    1.2090 o         1 L9X     -0.841300
     11 O32         1.7840    7.9780   -0.5800 o         1 L9X     -0.841300
     12 C4'         0.9660   -2.3840    1.3490 c3        1 L9X     -0.165400
     13 C5'         1.2990   -1.1700    0.4760 c3        1 L9X     -0.072600
     14 C6'         2.6610   -1.4920   -0.1410 c         1 L9X      0.713500
     15 CA1        -3.2040   -2.5380   -1.0160 c3        1 L9X      0.021500
     16 CA2        -0.0890    2.2220    0.1740 c3        1 L9X      0.031700
     17 CA3         0.7650    5.8310   -0.8760 c3        1 L9X     -0.045000
     18 CB1        -2.6540   -1.4310   -0.1190 c3        1 L9X     -0.063400
     19 CB2         1.3080    1.6350    0.4110 c3        1 L9X     -0.032300
     20 CD1        -2.2520    1.0060    0.1410 c         1 L9X      0.662100
     21 OE1        -2.6460    1.5640    1.1850 o         1 L9X     -0.629100
     22 CG1        -3.0890   -0.0500   -0.5620 c3        1 L9X     -0.141400
     23 SG2         1.3580    0.2590    1.5180 ss        1 L9X     -0.265200
     24 HN1        -4.9020   -3.5400   -1.3640 hn        1 L9X      0.332800
     25 HN2        -0.8360    1.0310   -1.3500 hn        1 L9X      0.320500
     26 HN3         0.5870    4.6750    0.8290 hn        1 L9X      0.331500
     27 H1'         3.5820   -5.0670   -0.9570 hc        1 L9X      0.041700
     28 H1'A        3.9650   -3.6780   -2.0550 hc        1 L9X      0.041700
     29 H1'B        5.3100   -4.6670   -1.3440 hc        1 L9X      0.041700
     30 H2'         4.7620   -3.8940    0.9440 h1        1 L9X      0.053700
     31 H2'A        5.1350   -2.4870   -0.1750 h1        1 L9X      0.053700
     32 H4'         0.1100   -2.9770    0.9010 hc        1 L9X      0.138200
     33 H4'A        0.6970   -2.0960    2.3950 hc        1 L9X      0.138200
     34 H5'         0.5540   -1.0470   -0.3500 h1        1 L9X      0.132700
     35 HA2        -0.5190    2.5580    1.1670 h1        1 L9X      0.104700
     36 HA3        -0.1660    6.2980   -1.3020 h1        1 L9X      0.038200
     37 HA3A        1.4360    5.5640   -1.7390 h1        1 L9X      0.038200
     38 HB1        -2.9700   -1.6000    0.9440 hc        1 L9X      0.053700
     39 HB1A       -1.5330   -1.5160   -0.1480 hc        1 L9X      0.053700
     40 HB2         1.7870    1.3600   -0.5620 h1        1 L9X      0.095700
     41 HB2A        1.9360    2.4230    0.9000 h1        1 L9X      0.095700
     42 HG1        -3.0020    0.0460   -1.6750 hc        1 L9X      0.062700
     43 HG1A       -4.1620    0.1230   -0.2880 hc        1 L9X      0.062700
     44 H23        -4.9640   -2.6330   -0.0330 hn        1 L9X      0.332800
     45 H24        -2.9250   -2.3000   -2.0850 h1        1 L9X      0.043700
     46 O2          0.0170    3.3260   -1.9990 o         1 L9X     -0.662100
     47 O2'         3.2590   -0.8390   -1.0040 o         1 L9X     -0.609500
     48 C1'         4.3000   -4.2350   -1.1480 c3        1 L9X     -0.117100
     49 N3          0.4010    4.6430   -0.1520 n         1 L9X     -0.517900
     50 O1'         2.4550   -4.2470    2.0180 o         1 L9X     -0.614500
     51 C3          1.4890    6.8960   -0.0020 c         1 L9X      0.908600
@<TRIPOS>BOND
     1    1    6 1   
     2    1    7 1   
     3    1   15 1   
     4    2   15 1   
     5    2   24 1   
     6    2   44 1   
     7    3   16 1   
     8    3   46 2   
     9    3   49 1   
    10    4   16 1   
    11    4   20 1   
    12    4   25 1   
    13    5    8 1   
    14    5    9 1   
    15    5   14 1   
    16    8   30 1   
    17    8   31 1   
    18    8   48 1   
    19    9   12 1   
    20    9   50 2   
    21   10   51 1   
    22   11   51 1   
    23   12   13 1   
    24   12   32 1   
    25   12   33 1   
    26   13   14 1   
    27   13   23 1   
    28   13   34 1   
    29   14   47 2   
    30   15   18 1   
    31   15   45 1   
    32   16   19 1   
    33   16   35 1   
    34   17   36 1   
    35   17   37 1   
    36   17   49 1   
    37   17   51 1   
    38   18   22 1   
    39   18   38 1   
    40   18   39 1   
    41   19   23 1   
    42   19   40 1   
    43   19   41 1   
    44   20   21 2   
    45   20   22 1   
    46   22   42 1   
    47   22   43 1   
    48   26   49 1   
    49   27   48 1   
    50   28   48 1   
    51   29   48 1   
@<TRIPOS>SUBSTRUCTURE
     1 L9X         1 TEMP              0 ****  ****    0 ROOT
