@<TRIPOS>MOLECULE
L9X
   54    49     1     0     0
SMALL
bcc


@<TRIPOS>ATOM
      1 C1          3.0250    0.0480    1.5730 c2        1 L9X      0.345000
      2 N1          1.3310    1.1240    0.1240 n3        1 L9X     -0.171000
      3 C2          5.3870    1.4030    5.5180 c2        1 L9X      0.365000
      4 N2          4.3320   -0.5520    4.4190 n4        1 L9X     -0.084000
      5 N1'         9.2550   -3.3970    5.1850 n         1 L9X     -0.427000
      6 O11         4.1930   -0.4010    1.6170 o         1 L9X     -0.517000
      7 O12         2.2670    0.1890    2.5700 o         1 L9X     -0.517000
      8 C2'         9.6190   -4.7220    7.5260 c1        1 L9X     -0.069000
      9 C3'         9.0680   -4.2950    4.1450 c2        1 L9X      0.315000
     10 O31         6.1320    3.0340    9.5060 o         1 L9X     -0.283000
     11 O32         7.5800    1.4180    9.7940 oh        1 L9X     -0.253000
     12 C4'         8.6770   -3.8210    2.7520 c3        1 L9X     -0.228000
     13 C5'         7.3600   -3.1600    2.6450 c2        1 L9X     -0.149000
     14 C6'         9.2040   -2.0270    5.0360 c2        1 L9X      0.261000
     15 CA1         2.4700    0.4820    0.1860 c2        1 L9X      0.131000
     16 CA2         5.3080   -0.0840    5.4060 c2        1 L9X     -0.216000
     17 CB1         3.3100    0.1280   -0.9880 c3        1 L9X     -0.191000
     18 CB2         6.0780   -0.9440    6.1030 c2        1 L9X     -0.003000
     19 CD1         3.0990   -1.1800    5.0020 c2        1 L9X      0.221000
     20 OE1         3.1630   -1.7840    6.0560 o         1 L9X     -0.180000
     21 CG1         2.8020    0.5840   -2.3280 c3        1 L9X     -0.242000
     22 SG2         6.2920   -2.9830    3.7380 s         1 L9X     -0.051000
     23 HN1         1.8090    0.1300   -2.5670 hc        1 L9X      0.099333
     24 HN2         4.7890   -1.2460    3.7750 hn        1 L9X      0.297000
     25 HN3         8.5540    0.8170    7.3800 ha        1 L9X      0.004000
     26 H1'        10.5100   -6.5850    8.2260 hc        1 L9X      0.144000
     27 H1'A       11.4740   -5.5490    7.0690 hc        1 L9X      0.144000
     28 H1'B       10.0390   -6.4380    6.4540 hc        1 L9X      0.144000
     29 H2'         9.1100   -4.5460    8.4820 ha        1 L9X      0.080000
     30 H2'A        9.3980   -3.8250    6.1700 hn        1 L9X      0.333000
     31 H4'         8.6690   -4.7340    2.0830 hc        1 L9X      0.155000
     32 H4'A        9.4800   -3.1400    2.3490 hc        1 L9X      0.155000
     33 H5'         9.2920   -1.6340    3.9940 h5        1 L9X      0.100000
     34 HA2         6.8520   -0.6020    6.8200 ha        1 L9X      0.191000
     35 HA3         9.1590    0.5340    7.4980 ha        1 L9X      0.004000
     36 HA3A        7.8640    0.5870    9.3780 ho        1 L9X      0.245000
     37 HB1         3.4330   -0.9950   -0.9690 hc        1 L9X      0.166000
     38 HB1A        3.5220    0.2660   -3.1230 hc        1 L9X      0.099333
     39 HB2         7.1970   -2.7810    1.6110 h4        1 L9X      0.144000
     40 HB2A        5.9960   -2.0430    5.9930 ha        1 L9X      0.191000
     41 HG1         2.2130   -1.0130    4.3360 hx        1 L9X      0.250000
     42 HG1A        2.7130    1.6970   -2.3750 hc        1 L9X      0.099333
     43 H23         0.9300    1.4330   -0.7400 hn        1 L9X      0.276500
     44 H24         4.3390    0.5490   -0.7840 hc        1 L9X      0.166000
     45 O2'         9.0740   -1.2620    6.0080 o         1 L9X     -0.374000
     46 C1'        10.4360   -5.8820    7.3590 c3        1 L9X     -0.315000
     47 N3          5.8720    2.0140    6.7100 n         1 L9X     -0.191000
     48 C3          6.6300    2.0130    9.0290 c2        1 L9X      0.259000
     49 H13         0.8250    1.3160    0.9760 hn        1 L9X      0.276500
     50 H22         4.0290    0.2440    3.8160 hn        1 L9X      0.297000
     51 H32         5.8840    3.0250    6.6660 hn        1 L9X      0.237000
     52 O2          5.0230    2.1470    4.5950 o         1 L9X     -0.287000
     53 O1'         9.2240   -5.5130    4.3500 o         1 L9X     -0.338000
     54 CA3         6.2110    1.3200    7.7740 c1        1 L9X     -0.108000
@<TRIPOS>BOND
     1    1    6 1   
     2    1    7 1   
     3    1   15 1   
     4    2   15 1   
     5    2   43 1   
     6    2   49 1   
     7    3   16 1   
     8    3   47 1   
     9    3   52 1   
    10    4   16 1   
    11    4   19 1   
    12    4   24 1   
    13    4   50 1   
    14    5    9 1   
    15    5   14 1   
    16    5   30 1   
    17    8   29 1   
    18    8   46 1   
    19    9   12 1   
    20    9   53 1   
    21   10   48 1   
    22   11   36 1   
    23   11   48 1   
    24   12   13 1   
    25   12   31 1   
    26   12   32 1   
    27   13   22 1   
    28   13   39 1   
    29   14   33 1   
    30   14   45 1   
    31   15   17 1   
    32   16   18 1   
    33   17   21 1   
    34   17   37 1   
    35   17   44 1   
    36   18   34 1   
    37   18   40 1   
    38   19   20 1   
    39   19   41 1   
    40   21   23 1   
    41   21   38 1   
    42   21   42 1   
    43   25   35 1   
    44   26   46 1   
    45   27   46 1   
    46   28   46 1   
    47   47   51 1   
    48   47   54 1   
    49   48   54 1   
@<TRIPOS>SUBSTRUCTURE
     1 L9X         1 TEMP              0 ****  ****    0 ROOT
