@<TRIPOS>MOLECULE
L9X
   54    47     1     0     0
SMALL
bcc


@<TRIPOS>ATOM
      1 C1          3.4190   -1.3440    0.9250 c2        1 L9X      0.365000
      2 N1          1.9420   -0.1150   -0.6500 n3        1 L9X     -0.181000
      3 C2          5.5810    2.1020    4.2680 c2        1 L9X      0.250000
      4 N2          5.6970   -0.3370    4.0030 n4        1 L9X      0.023000
      5 N1'         8.6440   -4.4860    4.8920 n         1 L9X     -0.389000
      6 O11         4.3950   -1.2140    1.7030 o         1 L9X     -0.509500
      7 O12         2.7560   -2.3830    0.7220 o         1 L9X     -0.509500
      8 C2'        11.3570   -3.1840    7.4730 c1        1 L9X     -0.228000
      9 C3'         8.8510   -5.8520    4.6160 c2        1 L9X      0.401000
     10 O31         7.1280    1.2630   12.4790 o         1 L9X     -0.221500
     11 O32         6.6790    1.1050   10.1480 o         1 L9X     -0.221500
     12 C4'         8.1480   -6.4750    3.4880 c2        1 L9X     -0.544000
     13 C5'         7.8550   -5.9910    2.3000 c1        1 L9X      0.299000
     14 C6'         7.6160   -3.7130    4.3970 c2        1 L9X      0.281000
     15 CA1         2.9900   -0.0580    0.1330 c2        1 L9X      0.112000
     16 CA2         6.1040    0.8520    4.7070 c2        1 L9X     -0.648000
     17 CB1         3.8270    1.1510    0.3380 c3        1 L9X     -0.202000
     18 CB2         7.1950    0.7800    5.6850 c3        1 L9X     -0.069000
     19 CD1         4.6570   -1.1930    4.6380 c2        1 L9X      0.214000
     20 OE1         4.1460   -0.8810    5.7060 o         1 L9X     -0.281000
     21 CG1         3.4220    2.3770   -0.4330 c3        1 L9X     -0.235000
     22 SG2         4.5010   -4.1960    3.1710 sh        1 L9X     -0.239000
     23 HN1         2.3920    2.7100   -0.1590 hc        1 L9X      0.094333
     24 HN2         6.5130   -0.9360    3.8150 hn        1 L9X      0.271000
     25 HN3         4.7550    0.8630    6.7590 hn        1 L9X      0.287000
     26 H1'         9.5760   -1.4640    5.4380 ha        1 L9X      0.001000
     27 H1'A        9.8710   -1.7770    5.9620 ha        1 L9X      0.001000
     28 H1'B       10.8940   -5.3310    6.9280 ha        1 L9X      0.229500
     29 H2'        11.6000   -2.1850    7.7340 ha        1 L9X      0.229500
     30 H2'A        9.2590   -4.0810    5.5780 hn        1 L9X      0.261000
     31 H4'         7.9120   -7.5530    3.6710 ha        1 L9X      0.241000
     32 H4'A        3.3960   -4.9160    3.3450 hs        1 L9X      0.133000
     33 H5'         6.8980   -4.2040    3.6880 h5        1 L9X      0.181000
     34 HA2         7.9110    1.6420    5.5370 hc        1 L9X      0.146000
     35 HA3         7.5160    0.9070    7.9070 h4        1 L9X      0.186000
     36 HA3A        5.2030    0.9810    8.4250 hn        1 L9X      0.287000
     37 HB1         4.8870    0.8530    0.0850 hc        1 L9X      0.174500
     38 HB1A        3.4660    2.2020   -1.5360 hc        1 L9X      0.094333
     39 HB2         4.1360   -3.6390    1.9870 hs        1 L9X      0.133000
     40 HB2A        7.8030   -0.1720    5.6020 hc        1 L9X      0.146000
     41 HG1         4.4240   -2.1210    4.0240 hx        1 L9X      0.247000
     42 HG1A        4.1250    3.2120   -0.1880 hc        1 L9X      0.094333
     43 H23         1.6180    0.6680   -1.1820 hn        1 L9X      0.270500
     44 H24         3.8360    1.3690    1.4520 hc        1 L9X      0.174500
     45 O2'         7.5080   -2.5210    4.7510 o         1 L9X     -0.431000
     46 C1'        11.1040   -4.3170    7.1840 c1        1 L9X     -0.228000
     47 N3          5.4840    0.9240    7.4630 n3        1 L9X     -0.156000
     48 C3          6.9040    1.1850   11.3220 c1        1 L9X      0.445000
     49 H13         1.4380   -0.9850   -0.7310 hn        1 L9X      0.270500
     50 H22         5.2990   -0.0300    3.0890 hn        1 L9X      0.271000
     51 H32         5.9780    2.9980    4.7950 h4        1 L9X      0.080000
     52 O2          4.7280    2.2230    3.3610 o         1 L9X     -0.433000
     53 O1'         9.6420   -6.4780    5.3360 o         1 L9X     -0.299000
     54 CA3         6.7350    0.8690    7.1100 c2        1 L9X      0.130000
@<TRIPOS>BOND
     1    1    6 1   
     2    1    7 1   
     3    1   15 1   
     4    2   15 1   
     5    2   43 1   
     6    2   49 1   
     7    3   16 1   
     8    3   51 1   
     9    3   52 1   
    10    4   16 1   
    11    4   19 1   
    12    4   24 1   
    13    4   50 1   
    14    5    9 1   
    15    5   14 1   
    16    5   30 1   
    17    8   29 1   
    18    8   46 1   
    19    9   12 1   
    20    9   53 1   
    21   10   48 1   
    22   11   48 1   
    23   12   13 1   
    24   12   31 1   
    25   14   33 1   
    26   14   45 1   
    27   15   17 1   
    28   16   18 1   
    29   17   21 1   
    30   17   37 1   
    31   17   44 1   
    32   18   34 1   
    33   18   40 1   
    34   18   54 1   
    35   19   20 1   
    36   19   41 1   
    37   21   23 1   
    38   21   38 1   
    39   21   42 1   
    40   22   32 1   
    41   22   39 1   
    42   25   47 1   
    43   26   27 1   
    44   28   46 1   
    45   35   54 1   
    46   36   47 1   
    47   47   54 1   
@<TRIPOS>SUBSTRUCTURE
     1 L9X         1 TEMP              0 ****  ****    0 ROOT
