@<TRIPOS>MOLECULE
L9X
   54    49     1     0     0
SMALL
bcc


@<TRIPOS>ATOM
      1 C1          4.3690   -0.3730    1.9170 c2        1 L9X      0.348000
      2 N1          1.9890   -0.6640    1.2790 n8        1 L9X     -0.178000
      3 C2          4.0850    5.1590    8.4540 c2        1 L9X      0.274000
      4 N2          6.8880   -1.0270    3.9520 ny        1 L9X     -0.102000
      5 N1'         6.7290   -4.9710    4.8010 ny        1 L9X     -0.215000
      6 O11         5.4940   -0.0150    1.5020 o         1 L9X     -0.502000
      7 O12         4.1120   -0.8210    3.0650 o         1 L9X     -0.502000
      8 C2'         7.9180   -4.0890    7.7530 c1        1 L9X     -0.232500
      9 C3'         6.8420   -6.4600    4.7530 c2        1 L9X      0.290000
     10 O31         5.6530    1.5910    6.1020 o         1 L9X     -0.380000
     11 O32         7.2060    3.0430    5.6600 oh        1 L9X     -0.292000
     12 C4'         8.1120   -6.8100    4.0760 c2        1 L9X     -0.190000
     13 C5'         8.7730   -5.7100    3.6690 c2        1 L9X     -0.103000
     14 C6'         8.0550   -4.4230    4.0150 c3        1 L9X      0.282000
     15 CA1         3.1790   -0.2570    0.9140 c2        1 L9X      0.127000
     16 CA2         7.8590   -0.1280    4.5590 c2        1 L9X     -0.193000
     17 CB1         3.5090    0.3190   -0.4150 c3        1 L9X     -0.193000
     18 CB2         9.1360   -0.4540    4.7730 c2        1 L9X     -0.144000
     19 CD1         5.7310   -1.2620    4.8750 c2        1 L9X      0.297000
     20 OE1         5.4770   -2.4160    5.1910 o         1 L9X     -0.275000
     21 CG1         2.3720    0.4290   -1.3920 c3        1 L9X     -0.240000
     22 SG2         7.2370   -3.8320    2.3610 sh        1 L9X     -0.340000
     23 HN1         1.9400   -0.5730   -1.6320 hc        1 L9X      0.096667
     24 HN2         7.3280   -1.9350    3.6720 hn        1 L9X      0.287000
     25 HN3         5.1870    3.4250    8.8270 hn        1 L9X      0.212000
     26 H1'        10.4410   -2.5900    6.2130 ha        1 L9X      0.002000
     27 H1'A       10.6210   -3.2080    6.0010 ha        1 L9X      0.002000
     28 H1'B        6.5030   -4.9360    9.2960 ha        1 L9X      0.233500
     29 H2'         8.6010   -3.6840    7.0400 ha        1 L9X      0.233500
     30 H2'A        6.7490   -4.6200    5.7630 hn        1 L9X      0.253000
     31 H4'         8.3910   -7.8620    3.9630 ha        1 L9X      0.198000
     32 H4'A        8.3190   -3.8470    1.5930 hs        1 L9X      0.110000
     33 H5'         5.8770   -4.6410    4.3510 hn        1 L9X      0.253000
     34 HA2         7.4200    0.8600    4.8250 hx        1 L9X      0.204000
     35 HA3         9.8220    0.2800    5.2230 ha        1 L9X      0.161000
     36 HA3A        7.4000    3.9910    5.7210 ho        1 L9X      0.250000
     37 HB1         3.9710    1.3330   -0.2200 hc        1 L9X      0.169500
     38 HB1A        2.7490    0.8740   -2.3480 hc        1 L9X      0.096667
     39 HB2         9.7390   -5.6570    3.1570 ha        1 L9X      0.188000
     40 HB2A        9.5750   -1.4390    4.5400 ha        1 L9X      0.161000
     41 HG1         5.2040   -0.3270    5.1770 hx        1 L9X      0.245000
     42 HG1A        1.5600    1.0910   -1.0050 hc        1 L9X      0.096667
     43 H23         1.1910   -0.6180    0.6770 hn        1 L9X      0.272500
     44 H24         4.3460   -0.3120   -0.8390 hc        1 L9X      0.169500
     45 O2'         8.6000   -3.4910    4.6770 o         1 L9X     -0.492000
     46 C1'         7.1650   -4.5370    8.5670 c1        1 L9X     -0.232500
     47 N3          4.9110    4.0370    8.0750 ns        1 L9X     -0.199000
     48 C3          6.0170    2.7640    6.2690 c2        1 L9X      0.301000
     49 H13         1.8630   -1.0420    2.2050 hn        1 L9X      0.272500
     50 H22         6.5180   -0.5760    3.0880 hn        1 L9X      0.287000
     51 H32         3.7920    5.8110    7.6010 h5        1 L9X      0.199000
     52 O2          3.7860    5.2930    9.6340 o         1 L9X     -0.240000
     53 O1'         5.9630   -7.1750    5.2160 o         1 L9X     -0.208000
     54 CA3         5.2280    3.8700    6.8240 c1        1 L9X     -0.118000
@<TRIPOS>BOND
     1    1    6 1   
     2    1    7 1   
     3    1   15 1   
     4    2   15 1   
     5    2   43 1   
     6    2   49 1   
     7    3   47 1   
     8    3   51 1   
     9    3   52 1   
    10    4   16 1   
    11    4   19 1   
    12    4   24 1   
    13    4   50 1   
    14    5    9 1   
    15    5   14 1   
    16    5   30 1   
    17    5   33 1   
    18    8   29 1   
    19    8   46 1   
    20    9   12 1   
    21    9   53 1   
    22   10   48 1   
    23   11   36 1   
    24   11   48 1   
    25   12   13 1   
    26   12   31 1   
    27   13   14 1   
    28   13   39 1   
    29   14   22 1   
    30   14   45 1   
    31   15   17 1   
    32   16   18 1   
    33   16   34 1   
    34   17   21 1   
    35   17   37 1   
    36   17   44 1   
    37   18   35 1   
    38   18   40 1   
    39   19   20 1   
    40   19   41 1   
    41   21   23 1   
    42   21   38 1   
    43   21   42 1   
    44   22   32 1   
    45   25   47 1   
    46   26   27 1   
    47   28   46 1   
    48   47   54 1   
    49   48   54 1   
@<TRIPOS>SUBSTRUCTURE
     1 L9X         1 TEMP              0 ****  ****    0 ROOT
