@<TRIPOS>MOLECULE
LA1
   76    80     1     0     0
SMALL
bcc


@<TRIPOS>ATOM
      1 O70         4.5780    2.5300    0.6760 o         1 LA1     -0.623100
      2 C69         3.6680    2.3430   -0.1580 c         1 LA1      0.633100
      3 N71         3.4550    3.1730   -1.2250 n         1 LA1     -0.560900
      4 C73         4.2370    4.3440   -1.4640 c3        1 LA1      0.076300
      5 C30         2.7540    1.1000    0.0060 c3        1 LA1      0.046700
      6 C49         2.8350    0.2330   -1.2600 c3        1 LA1     -0.054100
      7 C52         2.4680   -1.1830   -0.9860 ca        1 LA1     -0.082300
      8 C59         3.3040   -1.9990   -0.2540 ca        1 LA1     -0.120000
      9 C58         2.9660   -3.3560   -0.0090 ca        1 LA1     -0.035000
     10 C61         3.8160   -4.2110    0.7470 ca        1 LA1     -0.118000
     11 C63         3.4650   -5.5200    0.9710 ca        1 LA1     -0.126000
     12 C65         2.2530   -6.0350    0.4510 ca        1 LA1     -0.127000
     13 C67         1.4150   -5.2320   -0.2820 ca        1 LA1     -0.115000
     14 C57         1.7530   -3.8730   -0.5300 ca        1 LA1     -0.035000
     15 C55         0.9090   -3.0170   -1.2880 ca        1 LA1     -0.112000
     16 C53         1.2560   -1.7080   -1.5100 ca        1 LA1     -0.121000
     17 N2          1.4210    1.4520    0.4790 n         1 LA1     -0.449800
     18 C3          1.2590    1.3510    1.9140 c3        1 LA1      0.097000
     19 C6          0.4150    2.4380    2.5620 c3        1 LA1     -0.173400
     20 C9         -1.0520    2.0920    2.4690 c         1 LA1      0.698500
     21 O10        -1.7580    2.0690    3.4970 o         1 LA1     -0.634500
     22 N11        -1.5730    1.7070    1.2360 n         1 LA1     -0.466800
     23 C12        -1.0440    2.1160   -0.0430 c3        1 LA1      0.052700
     24 C14        -1.4600    3.5290   -0.5150 c3        1 LA1     -0.096400
     25 C17        -0.7040    4.7050    0.0820 c3        1 LA1     -0.066700
     26 C23        -0.5730    5.8100   -0.9510 c3        1 LA1     -0.095100
     27 C19        -1.3880    5.2500    1.3190 c3        1 LA1     -0.095100
     28 C1          0.4510    1.9270   -0.3790 c         1 LA1      0.706500
     29 O32         0.7430    2.1800   -1.5740 o         1 LA1     -0.684500
     30 C27        -2.9490    1.2300    1.1920 c3        1 LA1      0.126300
     31 C33        -3.0840   -0.1820    0.7090 ca        1 LA1     -0.220600
     32 C39        -3.4930   -0.4850   -0.5680 ca        1 LA1     -0.075000
     33 C38        -3.6590   -1.8490   -0.9450 ca        1 LA1     -0.150300
     34 C41        -4.0870   -2.2220   -2.2440 ca        1 LA1     -0.111000
     35 C43        -4.2410   -3.5470   -2.5710 ca        1 LA1     -0.127000
     36 C45        -3.9740   -4.5530   -1.6130 ca        1 LA1     -0.123000
     37 C47        -3.5560   -4.2300   -0.3460 ca        1 LA1     -0.166300
     38 C37        -3.3840   -2.8590    0.0280 ca        1 LA1      0.397600
     39 N36        -2.9630   -2.5400    1.3080 nb        1 LA1     -0.653000
     40 C34        -2.8240   -1.2660    1.6150 ca        1 LA1      0.431200
     41 H71         2.6840    2.9940   -1.8310 hn        1 LA1      0.341500
     42 H731        3.6000    5.2650   -1.3670 h1        1 LA1      0.044033
     43 H732        5.0820    4.4070   -0.7270 h1        1 LA1      0.044033
     44 H733        4.6600    4.3110   -2.5050 h1        1 LA1      0.044033
     45 H30         3.2490    0.4900    0.8300 h1        1 LA1      0.093700
     46 H491        2.1980    0.6500   -2.0840 hc        1 LA1      0.078200
     47 H492        3.9030    0.2710   -1.6130 hc        1 LA1      0.078200
     48 H59         4.2520   -1.6110    0.1500 ha        1 LA1      0.134000
     49 H61         4.7560   -3.8020    1.1470 ha        1 LA1      0.133000
     50 H63         4.1200   -6.1830    1.5550 ha        1 LA1      0.132000
     51 H65         1.9940   -7.0870    0.6460 ha        1 LA1      0.132000
     52 H67         0.4700   -5.6220   -0.6880 ha        1 LA1      0.133000
     53 H55        -0.0310   -3.4250   -1.6910 ha        1 LA1      0.136000
     54 H53         0.6020   -1.0470   -2.0980 ha        1 LA1      0.136000
     55 H31         0.8210    0.3390    2.1580 h1        1 LA1      0.069200
     56 H32         2.2830    1.4050    2.3920 h1        1 LA1      0.069200
     57 H61A        0.6800    2.4910    3.6530 hc        1 LA1      0.092700
     58 H62         0.6040    3.4500    2.1190 hc        1 LA1      0.092700
     59 H12        -1.5290    1.3970   -0.7920 h1        1 LA1      0.088700
     60 H141       -1.2990    3.5290   -1.6290 hc        1 LA1      0.063700
     61 H142       -2.5590    3.6640   -0.3340 hc        1 LA1      0.063700
     62 H17         0.3370    4.3670    0.3520 hc        1 LA1      0.046700
     63 H231       -1.5800    6.1410   -1.3000 hc        1 LA1      0.038533
     64 H232       -0.0450    6.6880   -0.5080 hc        1 LA1      0.038533
     65 H233        0.0100    5.4520   -1.8340 hc        1 LA1      0.038533
     66 H191       -0.7750    6.0700    1.7660 hc        1 LA1      0.038533
     67 H192       -2.3920    5.6640    1.0590 hc        1 LA1      0.038533
     68 H193       -1.5260    4.4540    2.0890 hc        1 LA1      0.038533
     69 H271       -3.3930    1.2940    2.2310 h1        1 LA1      0.073200
     70 H272       -3.5560    1.9070    0.5220 h1        1 LA1      0.073200
     71 H39        -3.7060    0.3020   -1.3070 ha        1 LA1      0.136000
     72 H41        -4.2940   -1.4310   -2.9810 ha        1 LA1      0.134000
     73 H43        -4.5740   -3.8410   -3.5780 ha        1 LA1      0.136000
     74 H45        -4.1080   -5.6080   -1.9000 ha        1 LA1      0.137000
     75 H47        -3.3500   -5.0150    0.3980 ha        1 LA1      0.152000
     76 H34        -2.4880   -1.0380    2.6450 h4        1 LA1      0.034100
@<TRIPOS>BOND
     1    1    2 2   
     2    2    3 1   
     3    2    5 1   
     4    3    4 1   
     5    3   41 1   
     6    4   42 1   
     7    4   43 1   
     8    4   44 1   
     9    5    6 1   
    10    5   17 1   
    11    5   45 1   
    12    6    7 1   
    13    6   46 1   
    14    6   47 1   
    15    7    8 ar  
    16    7   16 ar  
    17    8    9 ar  
    18    8   48 1   
    19    9   10 ar  
    20    9   14 ar  
    21   10   11 ar  
    22   10   49 1   
    23   11   12 ar  
    24   11   50 1   
    25   12   13 ar  
    26   12   51 1   
    27   13   14 ar  
    28   13   52 1   
    29   14   15 ar  
    30   15   16 ar  
    31   15   53 1   
    32   16   54 1   
    33   17   18 1   
    34   17   28 1   
    35   18   19 1   
    36   18   55 1   
    37   18   56 1   
    38   19   20 1   
    39   19   57 1   
    40   19   58 1   
    41   20   21 2   
    42   20   22 1   
    43   22   23 1   
    44   22   30 1   
    45   23   24 1   
    46   23   28 1   
    47   23   59 1   
    48   24   25 1   
    49   24   60 1   
    50   24   61 1   
    51   25   26 1   
    52   25   27 1   
    53   25   62 1   
    54   26   63 1   
    55   26   64 1   
    56   26   65 1   
    57   27   66 1   
    58   27   67 1   
    59   27   68 1   
    60   28   29 2   
    61   30   31 1   
    62   30   69 1   
    63   30   70 1   
    64   31   32 ar  
    65   31   40 ar  
    66   32   33 ar  
    67   32   71 1   
    68   33   34 ar  
    69   33   38 ar  
    70   34   35 ar  
    71   34   72 1   
    72   35   36 ar  
    73   35   73 1   
    74   36   37 ar  
    75   36   74 1   
    76   37   38 ar  
    77   37   75 1   
    78   38   39 ar  
    79   39   40 ar  
    80   40   76 1   
@<TRIPOS>SUBSTRUCTURE
     1 LA1         1 TEMP              0 ****  ****    0 ROOT
