@<TRIPOS>MOLECULE
LA1
   76    71     1     0     0
SMALL
bcc


@<TRIPOS>ATOM
      1 O70        -1.0950   -0.9600   -2.8490 o         1 LA1     -0.369000
      2 C69         0.0930   -0.7660   -2.6880 c1        1 LA1      0.275000
      3 N71         0.9890   -0.7750   -3.8330 n2        1 LA1     -0.376000
      4 C73         0.5460   -1.3270   -5.0880 c3        1 LA1     -0.082000
      5 C30         0.6090   -0.3600   -1.3360 c3        1 LA1      0.007000
      6 C49         2.0250   -0.9060   -1.1440 c3        1 LA1     -0.112000
      7 C52         2.0310   -2.4590   -1.4020 c2        1 LA1     -0.086000
      8 C59         3.2740   -2.9540   -0.9810 c1        1 LA1     -0.117000
      9 C58         3.5260   -4.3560   -0.9980 c1        1 LA1     -0.042500
     10 C61         4.7740   -4.8590   -0.5590 c1        1 LA1     -0.118500
     11 C63         5.0130   -6.2380   -0.5630 c1        1 LA1     -0.120333
     12 C65         4.0240   -7.1150   -0.9970 c1        1 LA1     -0.120333
     13 C67         2.7910   -6.6190   -1.4300 c1        1 LA1     -0.118500
     14 C57         2.5470   -5.2240   -1.4280 c1        1 LA1     -0.042500
     15 C55         1.2870   -4.7210   -1.8540 c1        1 LA1     -0.127000
     16 C53         1.0400   -3.3400   -1.8370 c2        1 LA1     -0.118000
     17 N2         -0.2560   -0.8920   -0.3070 n         1 LA1     -0.316000
     18 C3          0.0810   -1.7630    0.4970 c3        1 LA1     -0.029000
     19 C6         -0.1850   -1.1560    2.1070 c3        1 LA1     -0.200000
     20 C9         -1.4150   -0.5660    2.0310 c2        1 LA1      0.309000
     21 O10        -2.3360   -1.3360    1.9410 o         1 LA1     -0.362000
     22 N11        -1.2970    0.7570    0.8410 n         1 LA1     -0.309000
     23 C12        -2.1330    0.5880    0.0140 c3        1 LA1      0.022000
     24 C14        -1.8310    1.6540   -1.4010 c3        1 LA1     -0.152000
     25 C17        -3.1230    2.4660   -1.7230 c3        1 LA1     -0.112000
     26 C23        -2.7380    3.8290   -2.3310 c3        1 LA1     -0.209500
     27 C19        -3.9840    1.6800   -2.7260 c3        1 LA1     -0.209500
     28 C1         -2.0120   -0.6100   -0.2260 c2        1 LA1      0.266000
     29 O32        -2.6880   -1.3350    0.4620 o         1 LA1     -0.364000
     30 C27        -0.6610    2.0240    1.1030 c3        1 LA1      0.008000
     31 C33        -1.1620    2.5830    2.4560 c2        1 LA1     -0.141000
     32 C39        -0.0620    3.1190    3.0480 c2        1 LA1     -0.078000
     33 C38        -0.2060    3.9880    4.1240 c1        1 LA1     -0.086000
     34 C41         0.9310    4.5280    4.7520 c1        1 LA1     -0.120333
     35 C43         0.7850    5.3800    5.8430 c1        1 LA1     -0.120333
     36 C45        -0.4880    5.7000    6.3120 c1        1 LA1     -0.120333
     37 C47        -1.6120    5.1680    5.6920 c1        1 LA1     -0.120333
     38 C37        -1.4660    4.3050    4.5890 c1        1 LA1      0.002000
     39 N36        -2.5830    3.7590    3.9860 n1        1 LA1     -0.132000
     40 C34        -2.4420    2.9070    2.9310 c1        1 LA1     -0.036000
     41 H71         1.8020   -0.3680   -3.7770 hn        1 LA1      0.238000
     42 H731        0.5850   -2.3080   -5.0460 h1        1 LA1      0.084333
     43 H732        1.1320   -1.0060   -5.8140 h1        1 LA1      0.084333
     44 H733       -0.3750   -1.0440   -5.2630 h1        1 LA1      0.084333
     45 H30         0.6260    0.6140   -1.2740 h1        1 LA1      0.135000
     46 H491        2.3220   -0.7270   -0.2310 hc        1 LA1      0.107000
     47 H492        2.6340   -0.4680   -1.7770 hc        1 LA1      0.107000
     48 H59         3.9620   -2.3390   -0.6630 ha        1 LA1      0.145000
     49 H61         5.4650   -4.2470   -0.2560 ha        1 LA1      0.140500
     50 H63         5.8790   -6.5870   -0.2580 ha        1 LA1      0.136667
     51 H65         4.1920   -8.0830   -0.9990 ha        1 LA1      0.136667
     52 H67         2.1000   -7.2330   -1.7340 ha        1 LA1      0.140500
     53 H55         0.5920   -5.3390   -2.1590 ha        1 LA1      0.134000
     54 H53         0.1570   -2.9980   -2.0910 ha        1 LA1      0.165000
     55 H31        -0.4610   -2.5730    0.3560 h1        1 LA1      0.105500
     56 H32         1.0260   -1.9750    0.3770 h1        1 LA1      0.105500
     57 H61A        0.5350   -0.6170    2.5100 hc        1 LA1      0.129000
     58 H62        -0.2210   -1.9170    2.7340 hc        1 LA1      0.129000
     59 H12        -3.0550    0.8240    0.2500 h1        1 LA1      0.117000
     60 H141       -1.1070    2.2670   -1.1970 hc        1 LA1      0.105500
     61 H142       -1.5870    1.1070   -2.1770 hc        1 LA1      0.105500
     62 H17        -3.6330    2.6090   -0.8980 hc        1 LA1      0.103000
     63 H231       -1.8400    3.7700   -2.7230 hc        1 LA1      0.075167
     64 H232       -3.3880    4.0730   -3.0310 hc        1 LA1      0.075167
     65 H233       -2.7430    4.5160   -1.6260 hc        1 LA1      0.075167
     66 H191       -3.7680    0.7240   -2.6640 hc        1 LA1      0.075167
     67 H192       -3.8020    2.0000   -3.6360 hc        1 LA1      0.075167
     68 H193       -4.9370    1.8140   -2.5150 hc        1 LA1      0.075167
     69 H271        0.3090    1.9010    1.1400 h1        1 LA1      0.111000
     70 H272       -0.8820    2.6530    0.3900 h1        1 LA1      0.111000
     71 H39         0.8260    2.9150    2.7020 ha        1 LA1      0.137000
     72 H41         1.8230    4.3040    4.4230 ha        1 LA1      0.136667
     73 H43         1.5700    5.7520    6.2770 ha        1 LA1      0.136667
     74 H45        -0.5890    6.2960    7.0760 ha        1 LA1      0.136667
     75 H47        -2.5090    5.3940    6.0230 ha        1 LA1      0.136667
     76 H34        -3.2320    2.4980    2.5250 ha        1 LA1      0.183000
@<TRIPOS>BOND
     1    1    2 1   
     2    2    5 1   
     3    3    4 1   
     4    3   41 1   
     5    4   42 1   
     6    4   43 1   
     7    4   44 1   
     8    5    6 1   
     9    5   17 1   
    10    5   45 1   
    11    6    7 1   
    12    6   46 1   
    13    6   47 1   
    14    7    8 1   
    15    7   16 1   
    16    8   48 1   
    17    9   10 1   
    18    9   14 1   
    19   10   49 1   
    20   11   12 1   
    21   11   50 1   
    22   12   51 1   
    23   13   14 1   
    24   13   52 1   
    25   15   16 1   
    26   15   53 1   
    27   16   54 1   
    28   17   18 1   
    29   17   28 1   
    30   18   19 1   
    31   18   55 1   
    32   18   56 1   
    33   19   20 1   
    34   19   57 1   
    35   19   58 1   
    36   20   21 1   
    37   20   22 1   
    38   22   23 1   
    39   22   30 1   
    40   23   24 1   
    41   23   28 1   
    42   23   59 1   
    43   24   25 1   
    44   24   60 1   
    45   24   61 1   
    46   25   26 1   
    47   25   27 1   
    48   25   62 1   
    49   26   63 1   
    50   26   64 1   
    51   26   65 1   
    52   27   66 1   
    53   27   67 1   
    54   27   68 1   
    55   28   29 1   
    56   30   31 1   
    57   30   69 1   
    58   30   70 1   
    59   31   32 1   
    60   31   40 1   
    61   32   33 1   
    62   32   71 1   
    63   33   38 1   
    64   34   35 1   
    65   34   72 1   
    66   35   73 1   
    67   36   37 1   
    68   36   74 1   
    69   37   75 1   
    70   38   39 1   
    71   40   76 1   
@<TRIPOS>SUBSTRUCTURE
     1 LA1         1 TEMP              0 ****  ****    0 ROOT
