@<TRIPOS>MOLECULE
LA1
   77    81     1     0     0
SMALL
bcc


@<TRIPOS>ATOM
      1 O70         1.6230    1.6270   -0.1920 o         1 LA1     -0.414100
      2 C69         2.0140    0.5030    0.0770 c         1 LA1      0.516100
      3 N71         2.3500   -0.3940   -1.0870 n4        1 LA1     -0.670800
      4 C73         1.2100   -0.5460   -2.0190 c3        1 LA1      0.084100
      5 C30         2.2250   -0.0510    1.5070 c3        1 LA1      0.064700
      6 C49         3.5870   -0.7690    1.5970 c3        1 LA1     -0.053100
      7 C52         4.1230   -0.6840    2.9840 ca        1 LA1     -0.124300
      8 C59         4.7030    0.4800    3.4410 ca        1 LA1     -0.107000
      9 C58         5.2310    0.5600    4.7550 ca        1 LA1     -0.040000
     10 C61         5.8340    1.7520    5.2450 ca        1 LA1     -0.124000
     11 C63         6.3380    1.8000    6.5220 ca        1 LA1     -0.109000
     12 C65         6.2650    0.6650    7.3660 ca        1 LA1     -0.110000
     13 C67         5.6890   -0.4980    6.9170 ca        1 LA1     -0.116000
     14 C57         5.1590   -0.5780    5.6000 ca        1 LA1     -0.029000
     15 C55         4.5630   -1.7690    5.1050 ca        1 LA1     -0.091000
     16 C53         4.0580   -1.8220    3.8300 ca        1 LA1     -0.132000
     17 N2          1.0670   -0.7850    1.9670 n         1 LA1     -0.459800
     18 C3          0.3370   -0.1580    3.0570 c3        1 LA1      0.096000
     19 C6         -1.1630   -0.4060    3.0600 c3        1 LA1     -0.176400
     20 C9         -1.5060   -1.7280    3.7040 c         1 LA1      0.686500
     21 O10        -2.4250   -1.8000    4.5370 o         1 LA1     -0.585500
     22 N11        -0.6900   -2.8370    3.4270 n         1 LA1     -0.470800
     23 C12        -0.1490   -3.0970    2.1180 c3        1 LA1      0.057700
     24 C14        -1.1420   -3.5360    1.0190 c3        1 LA1     -0.103400
     25 C17        -1.9130   -2.4390    0.3010 c3        1 LA1     -0.063700
     26 C23        -2.0520   -2.7800   -1.1720 c3        1 LA1     -0.100600
     27 C19        -3.2880   -2.2320    0.9020 c3        1 LA1     -0.100600
     28 C1          0.8190   -2.0700    1.5030 c         1 LA1      0.723500
     29 O32         1.4430   -2.4550    0.4810 o         1 LA1     -0.724500
     30 C27        -0.9130   -4.0280    4.2460 c3        1 LA1      0.125300
     31 C33         0.3200   -4.8270    4.5210 ca        1 LA1     -0.242600
     32 C39         0.3520   -6.1880    4.3230 ca        1 LA1     -0.061000
     33 C38         1.5240   -6.9210    4.6640 ca        1 LA1     -0.150300
     34 C41         1.6070   -8.3260    4.4920 ca        1 LA1     -0.110000
     35 C43         2.7540   -9.0000    4.8350 ca        1 LA1     -0.116000
     36 C45         3.8630   -8.2990    5.3640 ca        1 LA1     -0.108000
     37 C47         3.8190   -6.9390    5.5450 ca        1 LA1     -0.169300
     38 C37         2.6400   -6.2050    5.2000 ca        1 LA1      0.396600
     39 N36         2.5960   -4.8350    5.3920 nb        1 LA1     -0.662000
     40 C34         1.4860   -4.1980    5.0720 ca        1 LA1      0.416200
     41 H71         3.1510    0.0000   -1.5900 hn        1 LA1      0.474300
     42 H731        0.8230    0.4680   -2.3090 hx        1 LA1      0.110367
     43 H732        1.5520   -1.1000   -2.9330 hx        1 LA1      0.110367
     44 H733        0.3990   -1.1370   -1.5080 hx        1 LA1      0.110367
     45 H30         2.3230    0.8970    2.1370 h1        1 LA1      0.130700
     46 H491        4.3020   -0.2550    0.8990 hc        1 LA1      0.069200
     47 H492        3.5020   -1.8440    1.2840 hc        1 LA1      0.069200
     48 H59         4.7770    1.3670    2.7930 ha        1 LA1      0.125000
     49 H61         5.8900    2.6290    4.5830 ha        1 LA1      0.135000
     50 H63         6.8070    2.7200    6.9040 ha        1 LA1      0.146000
     51 H65         6.6780    0.7300    8.3850 ha        1 LA1      0.147000
     52 H67         5.6290   -1.3870    7.5650 ha        1 LA1      0.146000
     53 H55         4.5110   -2.6540    5.7620 ha        1 LA1      0.163000
     54 H53         3.6050   -2.7520    3.4540 ha        1 LA1      0.138000
     55 H31         0.4870    0.9610    2.9830 h1        1 LA1      0.075700
     56 H32         0.7810   -0.4990    4.0380 h1        1 LA1      0.075700
     57 H61A       -1.6140   -0.3540    2.0360 hc        1 LA1      0.100200
     58 H62        -1.6470    0.4010    3.6790 hc        1 LA1      0.100200
     59 H12         0.5460   -3.9980    2.2630 h1        1 LA1      0.114700
     60 H141       -0.5240   -4.0980    0.2640 hc        1 LA1      0.074700
     61 H142       -1.8650   -4.2680    1.4670 hc        1 LA1      0.074700
     62 H17        -1.3310   -1.4760    0.3720 hc        1 LA1      0.016700
     63 H231       -1.0480   -2.8570   -1.6550 hc        1 LA1      0.044700
     64 H232       -2.6430   -1.9910   -1.6960 hc        1 LA1      0.044700
     65 H233       -2.5790   -3.7560   -1.2990 hc        1 LA1      0.044700
     66 H191       -3.9260   -3.1340    0.7350 hc        1 LA1      0.044700
     67 H192       -3.7890   -1.3560    0.4240 hc        1 LA1      0.044700
     68 H193       -3.2240   -2.0490    2.0020 hc        1 LA1      0.044700
     69 H271       -1.6870   -4.6860    3.7510 h1        1 LA1      0.078200
     70 H272       -1.3410   -3.6890    5.2380 h1        1 LA1      0.078200
     71 H39        -0.5150   -6.7320    3.9140 ha        1 LA1      0.144000
     72 H41         0.7360   -8.8620    4.0840 ha        1 LA1      0.141000
     73 H43         2.8220  -10.0920    4.7060 ha        1 LA1      0.146000
     74 H45         4.7690   -8.8640    5.6340 ha        1 LA1      0.146000
     75 H47         4.6830   -6.3980    5.9630 ha        1 LA1      0.154000
     76 H34         1.4790   -3.1070    5.2570 h4        1 LA1      0.023100
     77 H712        2.6080   -1.3290   -0.7150 hn        1 LA1      0.474300
@<TRIPOS>BOND
     1    1    2 2   
     2    2    3 1   
     3    2    5 1   
     4    3    4 1   
     5    3   41 1   
     6    3   77 1   
     7    4   42 1   
     8    4   43 1   
     9    4   44 1   
    10    5    6 1   
    11    5   17 1   
    12    5   45 1   
    13    6    7 1   
    14    6   46 1   
    15    6   47 1   
    16    7    8 ar  
    17    7   16 ar  
    18    8    9 ar  
    19    8   48 1   
    20    9   10 ar  
    21    9   14 ar  
    22   10   11 ar  
    23   10   49 1   
    24   11   12 ar  
    25   11   50 1   
    26   12   13 ar  
    27   12   51 1   
    28   13   14 ar  
    29   13   52 1   
    30   14   15 ar  
    31   15   16 ar  
    32   15   53 1   
    33   16   54 1   
    34   17   18 1   
    35   17   28 1   
    36   18   19 1   
    37   18   55 1   
    38   18   56 1   
    39   19   20 1   
    40   19   57 1   
    41   19   58 1   
    42   20   21 2   
    43   20   22 1   
    44   22   23 1   
    45   22   30 1   
    46   23   24 1   
    47   23   28 1   
    48   23   59 1   
    49   24   25 1   
    50   24   60 1   
    51   24   61 1   
    52   25   26 1   
    53   25   27 1   
    54   25   62 1   
    55   26   63 1   
    56   26   64 1   
    57   26   65 1   
    58   27   66 1   
    59   27   67 1   
    60   27   68 1   
    61   28   29 2   
    62   30   31 1   
    63   30   69 1   
    64   30   70 1   
    65   31   32 ar  
    66   31   40 ar  
    67   32   33 ar  
    68   32   71 1   
    69   33   34 ar  
    70   33   38 ar  
    71   34   35 ar  
    72   34   72 1   
    73   35   36 ar  
    74   35   73 1   
    75   36   37 ar  
    76   36   74 1   
    77   37   38 ar  
    78   37   75 1   
    79   38   39 ar  
    80   39   40 ar  
    81   40   76 1   
@<TRIPOS>SUBSTRUCTURE
     1 LA1         1 TEMP              0 ****  ****    0 ROOT
