@<TRIPOS>MOLECULE
LA1
   77    81     1     0     0
SMALL
bcc


@<TRIPOS>ATOM
      1 O70         1.5580    1.6150   -0.2130 o         1 LA1     -0.414100
      2 C69         1.9620    0.4970    0.0590 c         1 LA1      0.516100
      3 N71         2.2990   -0.4030   -1.1030 n4        1 LA1     -0.670800
      4 C73         1.1530   -0.5720   -2.0250 c3        1 LA1      0.084100
      5 C30         2.1880   -0.0480    1.4900 c3        1 LA1      0.064700
      6 C49         3.5590   -0.7500    1.5750 c3        1 LA1     -0.053100
      7 C52         4.1030   -0.6530    2.9570 ca        1 LA1     -0.124300
      8 C59         4.6730    0.5210    3.4040 ca        1 LA1     -0.107000
      9 C58         5.2090    0.6130    4.7150 ca        1 LA1     -0.040000
     10 C61         5.8010    1.8140    5.1950 ca        1 LA1     -0.124000
     11 C63         6.3140    1.8740    6.4680 ca        1 LA1     -0.109000
     12 C65         6.2600    0.7420    7.3170 ca        1 LA1     -0.110000
     13 C67         5.6950   -0.4300    6.8780 ca        1 LA1     -0.116000
     14 C57         5.1570   -0.5220    5.5660 ca        1 LA1     -0.029000
     15 C55         4.5710   -1.7230    5.0800 ca        1 LA1     -0.091000
     16 C53         4.0570   -1.7870    3.8080 ca        1 LA1     -0.132000
     17 N2          1.0410   -0.7940    1.9610 n         1 LA1     -0.459800
     18 C3          0.3100   -0.1680    3.0510 c3        1 LA1      0.096000
     19 C6         -1.1850   -0.4340    3.0660 c3        1 LA1     -0.176400
     20 C9         -1.5090   -1.7570    3.7190 c         1 LA1      0.686500
     21 O10        -2.4210   -1.8350    4.5580 o         1 LA1     -0.585500
     22 N11        -0.6820   -2.8570    3.4430 n         1 LA1     -0.470800
     23 C12        -0.1460   -3.1190    2.1320 c3        1 LA1      0.057700
     24 C14        -1.1400   -3.5760    1.0420 c3        1 LA1     -0.103400
     25 C17        -1.9290   -2.4920    0.3230 c3        1 LA1     -0.063700
     26 C23        -2.0730   -2.8440   -1.1470 c3        1 LA1     -0.100600
     27 C19        -3.3030   -2.2980    0.9310 c3        1 LA1     -0.100600
     28 C1          0.8060   -2.0830    1.5050 c         1 LA1      0.723500
     29 O32         1.4280   -2.4670    0.4810 o         1 LA1     -0.724500
     30 C27        -0.8860   -4.0460    4.2700 c3        1 LA1      0.125300
     31 C33         0.3580   -4.8310    4.5400 ca        1 LA1     -0.242600
     32 C39         0.4020   -6.1930    4.3490 ca        1 LA1     -0.061000
     33 C38         1.5840   -6.9120    4.6860 ca        1 LA1     -0.150300
     34 C41         1.6810   -8.3170    4.5200 ca        1 LA1     -0.110000
     35 C43         2.8370   -8.9770    4.8570 ca        1 LA1     -0.116000
     36 C45         3.9430   -8.2620    5.3730 ca        1 LA1     -0.108000
     37 C47         3.8860   -6.9010    5.5470 ca        1 LA1     -0.169300
     38 C37         2.6970   -6.1810    5.2070 ca        1 LA1      0.396600
     39 N36         2.6410   -4.8110    5.3920 nb        1 LA1     -0.662000
     40 C34         1.5220   -4.1870    5.0780 ca        1 LA1      0.416200
     41 H71         3.0920   -0.0020   -1.6150 hn        1 LA1      0.474300
     42 H731        0.3530   -1.1700   -1.5040 hx        1 LA1      0.110367
     43 H732        0.7520    0.4360   -2.3170 hx        1 LA1      0.110367
     44 H733        1.4950   -1.1280   -2.9400 hx        1 LA1      0.110367
     45 H30         2.2800    0.9030    2.1150 h1        1 LA1      0.130700
     46 H491        3.4850   -1.8280    1.2670 hc        1 LA1      0.069200
     47 H492        4.2640   -0.2320    0.8690 hc        1 LA1      0.069200
     48 H59         4.7320    1.4050    2.7520 ha        1 LA1      0.125000
     49 H61         5.8430    2.6880    4.5290 ha        1 LA1      0.135000
     50 H63         6.7750    2.8010    6.8430 ha        1 LA1      0.146000
     51 H65         6.6790    0.8160    8.3330 ha        1 LA1      0.147000
     52 H67         5.6500   -1.3160    7.5310 ha        1 LA1      0.146000
     53 H55         4.5350   -2.6050    5.7410 ha        1 LA1      0.163000
     54 H53         3.6130   -2.7250    3.4400 ha        1 LA1      0.138000
     55 H31         0.4470    0.9510    2.9700 h1        1 LA1      0.075700
     56 H32         0.7650   -0.4990    4.0320 h1        1 LA1      0.075700
     57 H61A       -1.6760    0.3700    3.6830 hc        1 LA1      0.100200
     58 H62        -1.6440   -0.3940    2.0430 hc        1 LA1      0.100200
     59 H12         0.5610   -4.0100    2.2780 h1        1 LA1      0.114700
     60 H141       -1.8520   -4.3140    1.5000 hc        1 LA1      0.074700
     61 H142       -0.5210   -4.1350    0.2860 hc        1 LA1      0.074700
     62 H17        -1.3580   -1.5220    0.3850 hc        1 LA1      0.016700
     63 H231       -2.6770   -2.0640   -1.6720 hc        1 LA1      0.044700
     64 H232       -1.0710   -2.9120   -1.6370 hc        1 LA1      0.044700
     65 H233       -2.5890   -3.8270   -1.2660 hc        1 LA1      0.044700
     66 H191       -3.2340   -2.1080    2.0290 hc        1 LA1      0.044700
     67 H192       -3.9310   -3.2080    0.7730 hc        1 LA1      0.044700
     68 H193       -3.8170   -1.4300    0.4510 hc        1 LA1      0.044700
     69 H271       -1.3090   -3.7060    5.2640 h1        1 LA1      0.078200
     70 H272       -1.6560   -4.7150    3.7850 h1        1 LA1      0.078200
     71 H39        -0.4620   -6.7480    3.9500 ha        1 LA1      0.144000
     72 H41         0.8120   -8.8640    4.1230 ha        1 LA1      0.141000
     73 H43         2.9150  -10.0690    4.7350 ha        1 LA1      0.146000
     74 H45         4.8570   -8.8160    5.6400 ha        1 LA1      0.146000
     75 H47         4.7480   -6.3490    5.9550 ha        1 LA1      0.154000
     76 H34         1.5050   -3.0950    5.2560 h4        1 LA1      0.023100
     77 H712        2.5710   -1.3320   -0.7290 hn        1 LA1      0.474300
@<TRIPOS>BOND
     1    1    2 2   
     2    2    3 1   
     3    2    5 1   
     4    3    4 1   
     5    3   41 1   
     6    3   77 1   
     7    4   42 1   
     8    4   43 1   
     9    4   44 1   
    10    5    6 1   
    11    5   17 1   
    12    5   45 1   
    13    6    7 1   
    14    6   46 1   
    15    6   47 1   
    16    7    8 ar  
    17    7   16 ar  
    18    8    9 ar  
    19    8   48 1   
    20    9   10 ar  
    21    9   14 ar  
    22   10   11 ar  
    23   10   49 1   
    24   11   12 ar  
    25   11   50 1   
    26   12   13 ar  
    27   12   51 1   
    28   13   14 ar  
    29   13   52 1   
    30   14   15 ar  
    31   15   16 ar  
    32   15   53 1   
    33   16   54 1   
    34   17   18 1   
    35   17   28 1   
    36   18   19 1   
    37   18   55 1   
    38   18   56 1   
    39   19   20 1   
    40   19   57 1   
    41   19   58 1   
    42   20   21 2   
    43   20   22 1   
    44   22   23 1   
    45   22   30 1   
    46   23   24 1   
    47   23   28 1   
    48   23   59 1   
    49   24   25 1   
    50   24   60 1   
    51   24   61 1   
    52   25   26 1   
    53   25   27 1   
    54   25   62 1   
    55   26   63 1   
    56   26   64 1   
    57   26   65 1   
    58   27   66 1   
    59   27   67 1   
    60   27   68 1   
    61   28   29 2   
    62   30   31 1   
    63   30   69 1   
    64   30   70 1   
    65   31   32 ar  
    66   31   40 ar  
    67   32   33 ar  
    68   32   71 1   
    69   33   34 ar  
    70   33   38 ar  
    71   34   35 ar  
    72   34   72 1   
    73   35   36 ar  
    74   35   73 1   
    75   36   37 ar  
    76   36   74 1   
    77   37   38 ar  
    78   37   75 1   
    79   38   39 ar  
    80   39   40 ar  
    81   40   76 1   
@<TRIPOS>SUBSTRUCTURE
     1 LA1         1 TEMP              0 ****  ****    0 ROOT
