@<TRIPOS>MOLECULE
LA1
   77    81     1     0     0
SMALL
bcc


@<TRIPOS>ATOM
      1 O70         1.6180    1.5880   -0.2440 o         1 LA1     -0.414100
      2 C69         2.0060    0.4660    0.0370 c         1 LA1      0.516100
      3 N71         2.3290   -0.4490   -1.1190 ny        1 LA1     -0.670800
      4 C73         1.1790   -0.6080   -2.0390 c3        1 LA1      0.084100
      5 C30         2.2240   -0.0710    1.4720 c3        1 LA1      0.064700
      6 C49         3.5850   -0.7930    1.5610 c3        1 LA1     -0.053100
      7 C52         4.1320   -0.6920    2.9420 ca        1 LA1     -0.124300
      8 C59         4.7200    0.4770    3.3790 ca        1 LA1     -0.107000
      9 C58         5.2590    0.5720    4.6880 ca        1 LA1     -0.040000
     10 C61         5.8700    1.7670    5.1580 ca        1 LA1     -0.124000
     11 C63         6.3850    1.8310    6.4290 ca        1 LA1     -0.109000
     12 C65         6.3140    0.7070    7.2890 ca        1 LA1     -0.110000
     13 C67         5.7300   -0.4600    6.8600 ca        1 LA1     -0.116000
     14 C57         5.1890   -0.5550    5.5490 ca        1 LA1     -0.029000
     15 C55         4.5850   -1.7500    5.0740 ca        1 LA1     -0.091000
     16 C53         4.0690   -1.8180    3.8040 ca        1 LA1     -0.132000
     17 N2          1.0670   -0.7960    1.9490 n         1 LA1     -0.459800
     18 C3          0.3460   -0.1510    3.0340 c3        1 LA1      0.096000
     19 C6         -1.1530   -0.3950    3.0510 c3        1 LA1     -0.176400
     20 C9         -1.4970   -1.7070    3.7160 c         1 LA1      0.686500
     21 O10        -2.4100   -1.7650    4.5560 o         1 LA1     -0.585500
     22 N11        -0.6860   -2.8220    3.4480 n         1 LA1     -0.470800
     23 C12        -0.1540   -3.1010    2.1390 c3        1 LA1      0.057700
     24 C14        -1.1560   -3.5530    1.0530 c3        1 LA1     -0.103400
     25 C17        -1.9280   -2.4630    0.3250 c3        1 LA1     -0.063700
     26 C23        -2.0780   -2.8240   -1.1420 c3        1 LA1     -0.100600
     27 C19        -3.2990   -2.2430    0.9320 c3        1 LA1     -0.100600
     28 C1          0.8120   -2.0850    1.5040 c         1 LA1      0.723500
     29 O32         1.4280   -2.4860    0.4820 o         1 LA1     -0.724500
     30 C27        -0.9070   -4.0010    4.2850 c3        1 LA1      0.125300
     31 C33         0.3250   -4.8010    4.5620 ca        1 LA1     -0.242600
     32 C39         0.3510   -6.1650    4.3820 ca        1 LA1     -0.061000
     33 C38         1.5220   -6.8970    4.7250 ca        1 LA1     -0.150300
     34 C41         1.6000   -8.3040    4.5710 ca        1 LA1     -0.110000
     35 C43         2.7460   -8.9780    4.9150 ca        1 LA1     -0.116000
     36 C45         3.8620   -8.2740    5.4260 ca        1 LA1     -0.108000
     37 C47         3.8240   -6.9110    5.5890 ca        1 LA1     -0.169300
     38 C37         2.6450   -6.1770    5.2420 ca        1 LA1      0.396600
     39 N36         2.6080   -4.8050    5.4150 nb        1 LA1     -0.662000
     40 C34         1.4980   -4.1680    5.0950 ca        1 LA1      0.416200
     41 H71         3.1270   -0.0630   -1.6340 hn        1 LA1      0.474300
     42 H731        1.5120   -1.1760   -2.9490 hx        1 LA1      0.110367
     43 H732        0.7930    0.4030   -2.3390 hx        1 LA1      0.110367
     44 H733        0.3710   -1.1900   -1.5130 hx        1 LA1      0.110367
     45 H30         2.3300    0.8840    2.0890 h1        1 LA1      0.130700
     46 H491        3.4940   -1.8720    1.2620 hc        1 LA1      0.069200
     47 H492        4.2970   -0.2910    0.8510 hc        1 LA1      0.069200
     48 H59         4.7920    1.3550    2.7190 ha        1 LA1      0.125000
     49 H61         5.9250    2.6350    4.4840 ha        1 LA1      0.135000
     50 H63         6.8610    2.7540    6.7960 ha        1 LA1      0.146000
     51 H65         6.7350    0.7840    8.3030 ha        1 LA1      0.147000
     52 H67         5.6720   -1.3400    7.5200 ha        1 LA1      0.146000
     53 H55         4.5350   -2.6260    5.7430 ha        1 LA1      0.163000
     54 H53         3.6100   -2.7510    3.4440 ha        1 LA1      0.138000
     55 H31         0.7960   -0.4800    4.0180 h1        1 LA1      0.075700
     56 H32         0.4990    0.9660    2.9450 h1        1 LA1      0.075700
     57 H61A       -1.6320    0.4220    3.6630 hc        1 LA1      0.100200
     58 H62        -1.6110   -0.3560    2.0290 hc        1 LA1      0.100200
     59 H12         0.5390   -4.0020    2.2920 h1        1 LA1      0.114700
     60 H141       -1.8790   -4.2760    1.5160 hc        1 LA1      0.074700
     61 H142       -0.5450   -4.1270    0.3020 hc        1 LA1      0.074700
     62 H17        -1.3430   -1.5010    0.3790 hc        1 LA1      0.016700
     63 H231       -2.6710   -2.0400   -1.6730 hc        1 LA1      0.044700
     64 H232       -2.6100   -3.8000   -1.2520 hc        1 LA1      0.044700
     65 H233       -1.0780   -2.9110   -1.6310 hc        1 LA1      0.044700
     66 H191       -3.9410   -3.1460    0.7820 hc        1 LA1      0.044700
     67 H192       -3.2280   -2.0450    2.0290 hc        1 LA1      0.044700
     68 H193       -3.8010   -1.3720    0.4460 hc        1 LA1      0.044700
     69 H271       -1.3260   -3.6470    5.2750 h1        1 LA1      0.078200
     70 H272       -1.6870   -4.6630    3.8040 h1        1 LA1      0.078200
     71 H39        -0.5210   -6.7100    3.9870 ha        1 LA1      0.144000
     72 H41         0.7240   -8.8430    4.1770 ha        1 LA1      0.141000
     73 H43         2.8100  -10.0710    4.8010 ha        1 LA1      0.146000
     74 H45         4.7680   -8.8390    5.6970 ha        1 LA1      0.146000
     75 H47         4.6930   -6.3680    5.9920 ha        1 LA1      0.154000
     76 H34         1.4960   -3.0750    5.2650 h4        1 LA1      0.023100
     77 H712        2.5870   -1.3790   -0.7370 hn        1 LA1      0.474300
@<TRIPOS>BOND
     1    1    2 2   
     2    2    3 1   
     3    2    5 1   
     4    3    4 1   
     5    3   41 1   
     6    3   77 1   
     7    4   42 1   
     8    4   43 1   
     9    4   44 1   
    10    5    6 1   
    11    5   17 1   
    12    5   45 1   
    13    6    7 1   
    14    6   46 1   
    15    6   47 1   
    16    7    8 ar  
    17    7   16 ar  
    18    8    9 ar  
    19    8   48 1   
    20    9   10 ar  
    21    9   14 ar  
    22   10   11 ar  
    23   10   49 1   
    24   11   12 ar  
    25   11   50 1   
    26   12   13 ar  
    27   12   51 1   
    28   13   14 ar  
    29   13   52 1   
    30   14   15 ar  
    31   15   16 ar  
    32   15   53 1   
    33   16   54 1   
    34   17   18 1   
    35   17   28 1   
    36   18   19 1   
    37   18   55 1   
    38   18   56 1   
    39   19   20 1   
    40   19   57 1   
    41   19   58 1   
    42   20   21 2   
    43   20   22 1   
    44   22   23 1   
    45   22   30 1   
    46   23   24 1   
    47   23   28 1   
    48   23   59 1   
    49   24   25 1   
    50   24   60 1   
    51   24   61 1   
    52   25   26 1   
    53   25   27 1   
    54   25   62 1   
    55   26   63 1   
    56   26   64 1   
    57   26   65 1   
    58   27   66 1   
    59   27   67 1   
    60   27   68 1   
    61   28   29 2   
    62   30   31 1   
    63   30   69 1   
    64   30   70 1   
    65   31   32 ar  
    66   31   40 ar  
    67   32   33 ar  
    68   32   71 1   
    69   33   34 ar  
    70   33   38 ar  
    71   34   35 ar  
    72   34   72 1   
    73   35   36 ar  
    74   35   73 1   
    75   36   37 ar  
    76   36   74 1   
    77   37   38 ar  
    78   37   75 1   
    79   38   39 ar  
    80   39   40 ar  
    81   40   76 1   
@<TRIPOS>SUBSTRUCTURE
     1 LA1         1 TEMP              0 ****  ****    0 ROOT
