@<TRIPOS>MOLECULE
LA2
   48    47     1     0     0
SMALL
bcc


@<TRIPOS>ATOM
      1 CB          6.3750   -0.0570    0.6300 c3        1 LA2     -0.064400
      2 C           8.8080    0.2080    1.1590 c         1 LA2      0.887600
      3 O           9.7010   -0.5330    1.6620 o         1 LA2     -0.844300
      4 N           7.9530   -1.8780   -0.0190 n3        1 LA2     -0.891800
      5 CA          7.7810   -0.4430    0.1720 c3        1 LA2      0.018500
      6 O1          0.3920   -1.3290   -1.2710 o         1 LA2     -0.619100
      7 C1          0.4600   -0.1580   -0.8420 c         1 LA2      0.650100
      8 NZ          1.6490    0.5360   -0.8060 n         1 LA2     -0.562900
      9 CE          2.9270   -0.0770   -1.0710 c3        1 LA2      0.080000
     10 CD          3.9730    0.1880    0.0110 c3        1 LA2     -0.101400
     11 CG          5.3220   -0.3510   -0.4170 c3        1 LA2     -0.073400
     12 C2         -0.7800    0.5940   -0.3820 c3        1 LA2     -0.153400
     13 C3         -2.0050   -0.2900   -0.4550 c3        1 LA2     -0.071400
     14 C4         -3.2400    0.4580   -0.0010 c3        1 LA2     -0.086400
     15 C5         -4.4620   -0.4350   -0.0610 c3        1 LA2     -0.077400
     16 C6         -5.7310    0.3040    0.3100 c3        1 LA2      0.036400
     17 S6         -6.1640    1.5650   -0.8800 sh        1 LA2     -0.400900
     18 C7         -6.8670   -0.6750    0.5330 c3        1 LA2     -0.070400
     19 C8         -8.0850    0.0060    1.1020 c3        1 LA2      0.003700
     20 S8         -9.3830   -1.2000    1.1610 sh        1 LA2     -0.385900
     21 HB          6.1190   -0.5910    1.5820 hc        1 LA2      0.046700
     22 HBA         6.3950    1.0430    0.8580 hc        1 LA2      0.046700
     23 OXT         8.6980    1.4450    1.3820 o         1 LA2     -0.844300
     24 HN          8.9440   -2.0510   -0.0830 hn        1 LA2      0.330800
     25 HNA         7.6410   -2.3490    0.8130 hn        1 LA2      0.330800
     26 HA          7.9670    0.0350   -0.8340 h1        1 LA2      0.040700
     27 HNZ         1.6670    1.4190   -0.3540 hn        1 LA2      0.300500
     28 HE          2.7840   -1.1890   -1.1920 h1        1 LA2      0.058700
     29 HEA         3.3070    0.3300   -2.0530 h1        1 LA2      0.058700
     30 HD          4.0610    1.2900    0.2060 hc        1 LA2      0.038200
     31 HDA         3.6620   -0.2970    0.9720 hc        1 LA2      0.038200
     32 HG          5.6230    0.1170   -1.3910 hc        1 LA2      0.040700
     33 HGA         5.2500   -1.4570   -0.5890 hc        1 LA2      0.040700
     34 H2         -0.6290    0.9490    0.6720 hc        1 LA2      0.059200
     35 H2A        -0.9230    1.4990   -1.0300 hc        1 LA2      0.059200
     36 H3         -2.1370   -0.6540   -1.5080 hc        1 LA2      0.058700
     37 H3A        -1.8460   -1.1990    0.1840 hc        1 LA2      0.058700
     38 H4         -3.0960    0.8260    1.0490 hc        1 LA2      0.048200
     39 H4A        -3.4040    1.3590   -0.6500 hc        1 LA2      0.048200
     40 H5         -4.5650   -0.8690   -1.0910 hc        1 LA2      0.050200
     41 H5A        -4.3200   -1.2980    0.6450 hc        1 LA2      0.050200
     42 H6         -5.5590    0.8990    1.2480 h1        1 LA2      0.088700
     43 HS6        -6.1610    0.8420   -1.9870 hs        1 LA2      0.209800
     44 H7         -7.1280   -1.1750   -0.4390 hc        1 LA2      0.062700
     45 H7A        -6.5250   -1.4800    1.2390 hc        1 LA2      0.062700
     46 H8         -7.8740    0.3950    2.1270 h1        1 LA2      0.071700
     47 H8A        -8.3770    0.8720    0.4560 h1        1 LA2      0.071700
     48 HS8       -10.3660   -0.4230    1.5790 hs        1 LA2      0.200800
@<TRIPOS>BOND
     1    1    5 1   
     2    1   11 1   
     3    1   21 1   
     4    1   22 1   
     5    2    3 1   
     6    2    5 1   
     7    2   23 1   
     8    4    5 1   
     9    4   24 1   
    10    4   25 1   
    11    5   26 1   
    12    6    7 2   
    13    7    8 1   
    14    7   12 1   
    15    8    9 1   
    16    8   27 1   
    17    9   10 1   
    18    9   28 1   
    19    9   29 1   
    20   10   11 1   
    21   10   30 1   
    22   10   31 1   
    23   11   32 1   
    24   11   33 1   
    25   12   13 1   
    26   12   34 1   
    27   12   35 1   
    28   13   14 1   
    29   13   36 1   
    30   13   37 1   
    31   14   15 1   
    32   14   38 1   
    33   14   39 1   
    34   15   16 1   
    35   15   40 1   
    36   15   41 1   
    37   16   17 1   
    38   16   18 1   
    39   16   42 1   
    40   17   43 1   
    41   18   19 1   
    42   18   44 1   
    43   18   45 1   
    44   19   20 1   
    45   19   46 1   
    46   19   47 1   
    47   20   48 1   
@<TRIPOS>SUBSTRUCTURE
     1 LA2         1 TEMP              0 ****  ****    0 ROOT
