@<TRIPOS>MOLECULE
LA3
   61    65     1     0     0
SMALL
bcc


@<TRIPOS>ATOM
      1 C1         -2.3550    0.5080   -1.7470 ca        1 LA3     -0.118500
      2 C2         -0.9590    2.0330    0.1230 ca        1 LA3     -0.123500
      3 C3         -2.9630    0.8340   -0.5270 cp        1 LA3     -0.041000
      4 C4         -1.0610    0.9400   -2.0290 ca        1 LA3     -0.123500
      5 C5         -0.3530    1.7050   -1.0970 ca        1 LA3     -0.083300
      6 C6         -2.2510    1.6020    0.4060 ca        1 LA3     -0.118500
      7 C7         -4.3220    0.3810   -0.2310 cp        1 LA3     -0.033000
      8 C8          1.0180    2.1980   -1.3990 c3        1 LA3     -0.034100
      9 C9         -6.8790   -0.5270    0.3080 ca        1 LA3      0.056100
     10 C10        -5.2160    1.2680    0.4150 ca        1 LA3     -0.103000
     11 C11        -4.7220   -0.9130   -0.5850 ca        1 LA3     -0.123000
     12 C12        -6.0150   -1.3980   -0.3220 ca        1 LA3     -0.114000
     13 C13        -6.4820    0.7870    0.6700 ca        1 LA3      0.054100
     14 O14        -7.5500    1.4370    1.2830 os        1 LA3     -0.333900
     15 O15        -8.2020   -0.7290    0.6870 os        1 LA3     -0.334900
     16 C16        -8.6500    0.4990    1.3060 c3        1 LA3      0.321200
     17 C17         2.0730    1.5840   -0.4810 c3        1 LA3     -0.119700
     18 C18         2.6010    0.2820   -1.0870 c         1 LA3      0.654100
     19 C19         3.2590    2.5230   -0.3070 c3        1 LA3     -0.154400
     20 C20         2.9150    3.6940    0.5860 c         1 LA3      0.592100
     21 O21         1.9300    3.7130    1.3420 o         1 LA3     -0.565100
     22 N22         3.7240    4.8660    0.4400 n         1 LA3     -0.352400
     23 O23         3.6880    5.7030    1.4800 oh        1 LA3     -0.436100
     24 O24         2.9390    0.2190   -2.2860 o         1 LA3     -0.613100
     25 N25         2.7770   -0.7880   -0.2260 n         1 LA3     -0.528900
     26 C26         3.1040   -2.1010   -0.7170 c3        1 LA3      0.144000
     27 C27         4.2880   -2.7310   -0.0190 ca        1 LA3     -0.100300
     28 C28         1.9710   -3.1910   -0.5910 c3        1 LA3      0.119100
     29 O29         0.9360   -2.7140    0.2520 oh        1 LA3     -0.599800
     30 C30         2.6260   -4.4590   -0.0010 c3        1 LA3     -0.072100
     31 C31         6.2450   -4.2650    1.2190 ca        1 LA3     -0.124000
     32 C32         5.5290   -2.1660    0.2310 ca        1 LA3     -0.097000
     33 C33         4.0170   -4.0650    0.3520 ca        1 LA3     -0.079300
     34 C34         4.9910   -4.8360    0.9680 ca        1 LA3     -0.119000
     35 C35         6.5100   -2.9470    0.8560 ca        1 LA3     -0.134000
     36 H1         -2.9070   -0.0860   -2.4910 ha        1 LA3      0.135500
     37 H2         -0.4020    2.6390    0.8580 ha        1 LA3      0.145500
     38 H4         -0.5960    0.6790   -2.9920 ha        1 LA3      0.145500
     39 H6         -2.7160    1.8600    1.3690 ha        1 LA3      0.135500
     40 H8          1.2880    1.9900   -2.4700 hc        1 LA3      0.069200
     41 H8A         1.0310    3.3140   -1.2550 hc        1 LA3      0.069200
     42 H10        -4.9120    2.2870    0.6890 ha        1 LA3      0.160000
     43 H11        -4.0020   -1.5810   -1.0810 ha        1 LA3      0.141000
     44 H12        -6.3150   -2.4150   -0.6030 ha        1 LA3      0.154000
     45 H16        -8.9150    0.2860    2.3700 h2        1 LA3      0.071700
     46 H16A       -9.4890    0.9190    0.6990 h2        1 LA3      0.071700
     47 H17         1.6070    1.4050    0.5300 hc        1 LA3      0.091700
     48 H19         4.1110    1.9720    0.1740 hc        1 LA3      0.084200
     49 H19A        3.6020    2.8760   -1.3170 hc        1 LA3      0.084200
     50 HN22        4.6970    4.6500    0.2530 hn        1 LA3      0.298500
     51 HO23        2.8100    6.1340    1.4440 ho        1 LA3      0.436000
     52 HN25        2.3010   -0.7690    0.6500 hn        1 LA3      0.323500
     53 H26         3.3540   -2.0130   -1.8200 h1        1 LA3      0.101700
     54 H28         1.5520   -3.3980   -1.6120 h1        1 LA3      0.046700
     55 HO29        0.2610   -3.4020    0.2770 ho        1 LA3      0.410000
     56 H30         2.0660   -4.8080    0.9030 hc        1 LA3      0.062700
     57 H30A        2.6240   -5.2860   -0.7550 hc        1 LA3      0.062700
     58 H31         7.0250   -4.8660    1.7080 ha        1 LA3      0.132000
     59 H32         5.7420   -1.1270   -0.0570 ha        1 LA3      0.139000
     60 H34         4.7850   -5.8760    1.2580 ha        1 LA3      0.134000
     61 H35         7.5000   -2.5110    1.0590 ha        1 LA3      0.132000
@<TRIPOS>BOND
     1    1    3 ar  
     2    1    4 ar  
     3    1   36 1   
     4    2    5 ar  
     5    2    6 ar  
     6    2   37 1   
     7    3    6 ar  
     8    3    7 1   
     9    4    5 ar  
    10    4   38 1   
    11    5    8 1   
    12    6   39 1   
    13    7   10 ar  
    14    7   11 ar  
    15    8   17 1   
    16    8   40 1   
    17    8   41 1   
    18    9   12 ar  
    19    9   13 ar  
    20    9   15 1   
    21   10   13 ar  
    22   10   42 1   
    23   11   12 ar  
    24   11   43 1   
    25   12   44 1   
    26   13   14 1   
    27   14   16 1   
    28   15   16 1   
    29   16   45 1   
    30   16   46 1   
    31   17   18 1   
    32   17   19 1   
    33   17   47 1   
    34   18   24 2   
    35   18   25 1   
    36   19   20 1   
    37   19   48 1   
    38   19   49 1   
    39   20   21 2   
    40   20   22 1   
    41   22   23 1   
    42   22   50 1   
    43   23   51 1   
    44   25   26 1   
    45   25   52 1   
    46   26   27 1   
    47   26   28 1   
    48   26   53 1   
    49   27   32 ar  
    50   27   33 ar  
    51   28   29 1   
    52   28   30 1   
    53   28   54 1   
    54   29   55 1   
    55   30   33 1   
    56   30   56 1   
    57   30   57 1   
    58   31   34 ar  
    59   31   35 ar  
    60   31   58 1   
    61   32   35 ar  
    62   32   59 1   
    63   33   34 ar  
    64   34   60 1   
    65   35   61 1   
@<TRIPOS>SUBSTRUCTURE
     1 LA3         1 TEMP              0 ****  ****    0 ROOT
