@<TRIPOS>MOLECULE
LA3
   63    67     1     0     0
SMALL
bcc


@<TRIPOS>ATOM
      1 C1          0.1080    0.4830    0.2030 ca        1 LA3     -0.117500
      2 C2          0.9210    0.9180    2.8340 ca        1 LA3     -0.135500
      3 C3          1.3820    1.0210    0.4500 cp        1 LA3      0.039000
      4 C4         -0.7480    0.1720    1.2550 ca        1 LA3     -0.135500
      5 C5         -0.3510    0.3880    2.5820 ca        1 LA3     -0.202300
      6 C6          1.7740    1.2380    1.7830 ca        1 LA3     -0.117500
      7 C7          2.2870    1.3340   -0.6500 cp        1 LA3     -0.097000
      8 C8         -1.2330   -0.0490    3.6950 c3        1 LA3     -0.041100
      9 C9          3.9610    1.9350   -2.7700 ca        1 LA3      0.098100
     10 C10         3.6750    1.0990   -0.4830 ca        1 LA3     -0.097000
     11 C11         1.7820    1.8510   -1.8490 ca        1 LA3     -0.103000
     12 C12         2.6110    2.1670   -2.9380 ca        1 LA3     -0.119000
     13 C13         4.4820    1.4060   -1.5540 ca        1 LA3      0.064100
     14 O14         5.8590    1.2740   -1.6650 os        1 LA3     -0.323900
     15 O15         4.9980    2.1430   -3.6600 os        1 LA3     -0.314900
     16 C16         6.2190    1.7230   -2.9970 c3        1 LA3      0.320200
     17 C17        -1.5180    1.0480    4.7180 c3        1 LA3     -0.138700
     18 C18        -2.4010    2.1550    4.1650 c         1 LA3      0.543100
     19 C19        -2.1940    0.4610    5.9590 c3        1 LA3     -0.146400
     20 C20        -1.1910   -0.1680    6.8700 c         1 LA3      0.586100
     21 O21         0.0210   -0.2050    6.8350 o         1 LA3     -0.372100
     22 N22        -1.7810   -0.9010    8.1140 n4        1 LA3     -0.470300
     23 O23        -2.9400   -0.2900    8.4430 oh        1 LA3     -0.365300
     24 O24        -3.3450    2.6580    4.7610 o         1 LA3     -0.415100
     25 N25        -2.0440    2.6660    2.8100 n4        1 LA3     -0.651800
     26 C26        -2.7850    3.9140    2.3860 c3        1 LA3      0.189800
     27 C27        -1.9170    4.7640    1.5090 ca        1 LA3     -0.198300
     28 C28        -4.0690    3.6350    1.5180 c3        1 LA3      0.140100
     29 O29        -4.3160    2.2410    1.4820 oh        1 LA3     -0.646800
     30 C30        -3.7930    4.2170    0.1170 c3        1 LA3     -0.082100
     31 C31        -0.6560    6.3460   -0.3850 ca        1 LA3     -0.070000
     32 C32        -0.7200    5.3850    1.8430 ca        1 LA3     -0.097000
     33 C33        -2.4950    4.9360    0.2330 ca        1 LA3     -0.047300
     34 C34        -1.8680    5.7280   -0.7180 ca        1 LA3     -0.102000
     35 C35        -0.0890    6.1790    0.8790 ca        1 LA3     -0.116000
     36 H1         -0.2050    0.2790   -0.8350 ha        1 LA3      0.166500
     37 H2          1.2720    1.0510    3.8690 ha        1 LA3      0.138500
     38 H4         -1.7260   -0.2880    1.0370 ha        1 LA3      0.138500
     39 H6          2.7740    1.6520    1.9960 ha        1 LA3      0.166500
     40 H8         -2.2040   -0.4510    3.2940 hc        1 LA3      0.078700
     41 H8A        -0.7220   -0.8940    4.2370 hc        1 LA3      0.078700
     42 H10         4.0830    0.6730    0.4430 ha        1 LA3      0.159000
     43 H11         0.7000    2.0260   -1.9540 ha        1 LA3      0.132000
     44 H12         2.2030    2.5710   -3.8750 ha        1 LA3      0.171000
     45 H16         6.8950    2.6080   -2.9040 h2        1 LA3      0.092700
     46 H16A        6.6510    0.8600   -3.5610 h2        1 LA3      0.092700
     47 H17        -0.5390    1.5330    5.0160 hc        1 LA3      0.122700
     48 H19        -2.9700   -0.2980    5.6570 hc        1 LA3      0.142200
     49 H19A       -2.7370    1.2670    6.5420 hc        1 LA3      0.142200
     50 HN22       -1.0880   -0.8560    8.8890 hn        1 LA3      0.479300
     51 HO23       -3.2730   -0.6560    9.2980 ho        1 LA3      0.494000
     52 HN25       -1.0270    2.8390    2.7690 hn        1 LA3      0.485800
     53 H26        -3.0860    4.4630    3.3260 hx        1 LA3      0.126700
     54 H28        -4.9360    4.1580    2.0090 h1        1 LA3      0.091700
     55 HO29       -5.0630    2.0970    0.8840 ho        1 LA3      0.459000
     56 H30        -4.6160    4.9180   -0.1820 hc        1 LA3      0.094200
     57 H30A       -3.7370    3.4020   -0.6510 hc        1 LA3      0.094200
     58 H31        -0.1480    6.9820   -1.1310 ha        1 LA3      0.168000
     59 H32        -0.2790    5.2810    2.8450 ha        1 LA3      0.131000
     60 H34        -2.3160    5.8780   -1.7130 ha        1 LA3      0.167000
     61 H35         0.8590    6.6850    1.1260 ha        1 LA3      0.164000
     62 H222       -1.9490   -1.8960    7.8700 hn        1 LA3      0.479300
     63 H252       -2.2530    1.9120    2.1250 hn        1 LA3      0.485800
@<TRIPOS>BOND
     1    1    3 ar  
     2    1    4 ar  
     3    1   36 1   
     4    2    5 ar  
     5    2    6 ar  
     6    2   37 1   
     7    3    6 ar  
     8    3    7 1   
     9    4    5 ar  
    10    4   38 1   
    11    5    8 1   
    12    6   39 1   
    13    7   10 ar  
    14    7   11 ar  
    15    8   17 1   
    16    8   40 1   
    17    8   41 1   
    18    9   12 ar  
    19    9   13 ar  
    20    9   15 1   
    21   10   13 ar  
    22   10   42 1   
    23   11   12 ar  
    24   11   43 1   
    25   12   44 1   
    26   13   14 1   
    27   14   16 1   
    28   15   16 1   
    29   16   45 1   
    30   16   46 1   
    31   17   18 1   
    32   17   19 1   
    33   17   47 1   
    34   18   24 2   
    35   18   25 1   
    36   19   20 1   
    37   19   48 1   
    38   19   49 1   
    39   20   21 2   
    40   20   22 1   
    41   22   23 1   
    42   22   50 1   
    43   22   62 1   
    44   23   51 1   
    45   25   26 1   
    46   25   52 1   
    47   25   63 1   
    48   26   27 1   
    49   26   28 1   
    50   26   53 1   
    51   27   32 ar  
    52   27   33 ar  
    53   28   29 1   
    54   28   30 1   
    55   28   54 1   
    56   29   55 1   
    57   30   33 1   
    58   30   56 1   
    59   30   57 1   
    60   31   34 ar  
    61   31   35 ar  
    62   31   58 1   
    63   32   35 ar  
    64   32   59 1   
    65   33   34 ar  
    66   34   60 1   
    67   35   61 1   
@<TRIPOS>SUBSTRUCTURE
     1 LA3         1 TEMP              0 ****  ****    0 ROOT
