@<TRIPOS>MOLECULE
LA3
   63    67     1     0     0
SMALL
bcc


@<TRIPOS>ATOM
      1 C1          0.2500    0.4910    0.3170 ca        1 LA3     -0.117500
      2 C2          1.0100    1.1300    2.9230 ca        1 LA3     -0.135500
      3 C3          1.4770    1.1400    0.5380 cp        1 LA3      0.038000
      4 C4         -0.5860    0.1710    1.3830 ca        1 LA3     -0.135500
      5 C5         -0.2150    0.4900    2.6970 ca        1 LA3     -0.202300
      6 C6          1.8420    1.4580    1.8580 ca        1 LA3     -0.117500
      7 C7          2.3610    1.4630   -0.5760 cp        1 LA3     -0.097000
      8 C8         -1.0690    0.0450    3.8300 c3        1 LA3     -0.042100
      9 C9          3.9970    2.0780   -2.7220 ca        1 LA3      0.098100
     10 C10         3.7620    1.3460   -0.3940 ca        1 LA3     -0.097000
     11 C11         1.8250    1.8730   -1.8020 ca        1 LA3     -0.103000
     12 C12         2.6330    2.1940   -2.9060 ca        1 LA3     -0.119000
     13 C13         4.5500    1.6570   -1.4790 ca        1 LA3      0.064100
     14 O14         5.9330    1.6270   -1.5800 os        1 LA3     -0.323900
     15 O15         5.0190    2.3180   -3.6200 os        1 LA3     -0.314900
     16 C16         6.2660    2.0300   -2.9330 c3        1 LA3      0.320200
     17 C17        -1.4380    1.1670    4.7970 c3        1 LA3     -0.137700
     18 C18        -2.3930    2.1830    4.1920 c         1 LA3      0.544100
     19 C19        -2.0760    0.5900    6.0640 c3        1 LA3     -0.148400
     20 C20        -1.0320    0.0840    7.0040 c         1 LA3      0.586100
     21 O21         0.1780    0.1750    6.9930 o         1 LA3     -0.370100
     22 N22        -1.5660   -0.6920    8.2480 n4        1 LA3     -0.469300
     23 O23        -2.6270   -1.4280    7.8520 oh        1 LA3     -0.365300
     24 O24        -3.3530    2.6690    4.7770 o         1 LA3     -0.418100
     25 N25        -2.0920    2.6250    2.8000 n4        1 LA3     -0.651800
     26 C26        -2.9310    3.7810    2.3040 c3        1 LA3      0.189800
     27 C27        -2.1400    4.6300    1.3560 ca        1 LA3     -0.198300
     28 C28        -4.2000    3.3460    1.4800 c3        1 LA3      0.140100
     29 O29        -4.3420    1.9380    1.5470 oh        1 LA3     -0.647800
     30 C30        -3.9860    3.8460    0.0370 c3        1 LA3     -0.082100
     31 C31        -1.0270    6.1660   -0.6650 ca        1 LA3     -0.070000
     32 C32        -0.9910    5.3620    1.6250 ca        1 LA3     -0.097000
     33 C33        -2.7450    4.6670    0.0810 ca        1 LA3     -0.047300
     34 C34        -2.1910    5.4360   -0.9330 ca        1 LA3     -0.102000
     35 C35        -0.4340    6.1310    0.5990 ca        1 LA3     -0.116000
     36 H1         -0.0390    0.2070   -0.7090 ha        1 LA3      0.166000
     37 H2          1.3430    1.3450    3.9500 ha        1 LA3      0.138000
     38 H4         -1.5230   -0.3750    1.1890 ha        1 LA3      0.138000
     39 H6          2.8060    1.9600    2.0500 ha        1 LA3      0.166000
     40 H8         -0.5000   -0.7340    4.4140 hc        1 LA3      0.080700
     41 H8A        -2.0050   -0.4470    3.4490 hc        1 LA3      0.080700
     42 H10         4.1960    1.0040    0.5540 ha        1 LA3      0.159000
     43 H11         0.7330    1.9570   -1.9180 ha        1 LA3      0.132000
     44 H12         2.2010    2.5130   -3.8630 ha        1 LA3      0.171000
     45 H16         6.7670    1.1750   -3.4490 h2        1 LA3      0.092700
     46 H16A        6.8700    2.9700   -2.8870 h2        1 LA3      0.092700
     47 H17        -0.4980    1.7360    5.0730 hc        1 LA3      0.122700
     48 H19        -2.6900    1.3750    6.5960 hc        1 LA3      0.141700
     49 H19A       -2.7790   -0.2520    5.7910 hc        1 LA3      0.141700
     50 HN22       -0.8010   -1.2900    8.6220 hn        1 LA3      0.478800
     51 HO23       -2.9020   -2.0290    8.5860 ho        1 LA3      0.494000
     52 HN25       -2.2490    1.8120    2.1710 hn        1 LA3      0.486300
     53 H26        -3.2620    4.3700    3.2090 hx        1 LA3      0.127700
     54 H28        -5.0980    3.8360    1.9480 h1        1 LA3      0.091700
     55 HO29       -5.0800    1.6960    0.9690 ho        1 LA3      0.459000
     56 H30        -3.8760    2.9850   -0.6730 hc        1 LA3      0.094200
     57 H30A       -4.8630    4.4590   -0.2970 hc        1 LA3      0.094200
     58 H31        -0.5780    6.7840   -1.4620 ha        1 LA3      0.168000
     59 H32        -0.5320    5.3630    2.6240 ha        1 LA3      0.131000
     60 H34        -2.6610    5.4800   -1.9290 ha        1 LA3      0.167000
     61 H35         0.4750    6.7240    0.7940 ha        1 LA3      0.164000
     62 H222       -1.8490   -0.0090    8.9760 hn        1 LA3      0.478800
     63 H252       -1.0910    2.8720    2.7330 hn        1 LA3      0.486300
@<TRIPOS>BOND
     1    1    3 ar  
     2    1    4 ar  
     3    1   36 1   
     4    2    5 ar  
     5    2    6 ar  
     6    2   37 1   
     7    3    6 ar  
     8    3    7 1   
     9    4    5 ar  
    10    4   38 1   
    11    5    8 1   
    12    6   39 1   
    13    7   10 ar  
    14    7   11 ar  
    15    8   17 1   
    16    8   40 1   
    17    8   41 1   
    18    9   12 ar  
    19    9   13 ar  
    20    9   15 1   
    21   10   13 ar  
    22   10   42 1   
    23   11   12 ar  
    24   11   43 1   
    25   12   44 1   
    26   13   14 1   
    27   14   16 1   
    28   15   16 1   
    29   16   45 1   
    30   16   46 1   
    31   17   18 1   
    32   17   19 1   
    33   17   47 1   
    34   18   24 2   
    35   18   25 1   
    36   19   20 1   
    37   19   48 1   
    38   19   49 1   
    39   20   21 2   
    40   20   22 1   
    41   22   23 1   
    42   22   50 1   
    43   22   62 1   
    44   23   51 1   
    45   25   26 1   
    46   25   52 1   
    47   25   63 1   
    48   26   27 1   
    49   26   28 1   
    50   26   53 1   
    51   27   32 ar  
    52   27   33 ar  
    53   28   29 1   
    54   28   30 1   
    55   28   54 1   
    56   29   55 1   
    57   30   33 1   
    58   30   56 1   
    59   30   57 1   
    60   31   34 ar  
    61   31   35 ar  
    62   31   58 1   
    63   32   35 ar  
    64   32   59 1   
    65   33   34 ar  
    66   34   60 1   
    67   35   61 1   
@<TRIPOS>SUBSTRUCTURE
     1 LA3         1 TEMP              0 ****  ****    0 ROOT
