@<TRIPOS>MOLECULE
LA3
   63    67     1     0     0
SMALL
bcc


@<TRIPOS>ATOM
      1 C1          0.2030    0.4960    0.3200 ca        1 LA3     -0.117500
      2 C2          0.9530    1.0890    2.9390 ca        1 LA3     -0.135000
      3 C3          1.4460    1.1060    0.5600 cp        1 LA3      0.040000
      4 C4         -0.6530    0.1910    1.3740 ca        1 LA3     -0.135000
      5 C5         -0.2880    0.4870    2.6950 ca        1 LA3     -0.204300
      6 C6          1.8060    1.4020    1.8870 ca        1 LA3     -0.117500
      7 C7          2.3510    1.4130   -0.5410 cp        1 LA3     -0.097000
      8 C8         -1.1660    0.0570    3.8140 c3        1 LA3     -0.040100
      9 C9          4.0280    1.9990   -2.6640 ca        1 LA3      0.099100
     10 C10         3.7470    1.2560   -0.3450 ca        1 LA3     -0.097000
     11 C11         1.8410    1.8470   -1.7700 ca        1 LA3     -0.102000
     12 C12         2.6710    2.1540   -2.8620 ca        1 LA3     -0.119000
     13 C13         4.5550    1.5540   -1.4180 ca        1 LA3      0.064100
     14 O14         5.9380    1.4860   -1.5040 os        1 LA3     -0.323900
     15 O15         5.0670    2.2170   -3.5490 os        1 LA3     -0.314900
     16 C16         6.2970    1.8910   -2.8500 c3        1 LA3      0.320200
     17 C17        -1.5120    1.1810    4.7880 c3        1 LA3     -0.137700
     18 C18        -2.4320    2.2290    4.1820 c         1 LA3      0.544100
     19 C19        -2.1780    0.6120    6.0440 c3        1 LA3     -0.153400
     20 C20        -1.1590    0.0850    7.0020 c         1 LA3      0.556100
     21 O21         0.0510    0.1880    7.0230 o         1 LA3     -0.368100
     22 N22        -1.7350   -0.7170    8.1980 ny        1 LA3     -0.468300
     23 O23        -2.5060   -1.7360    7.7590 oh        1 LA3     -0.353300
     24 O24        -3.3860    2.7320    4.7610 o         1 LA3     -0.417100
     25 N25        -2.1000    2.6790    2.8000 ny        1 LA3     -0.650800
     26 C26        -2.9040    3.8620    2.3080 c3        1 LA3      0.189800
     27 C27        -2.0820    4.6970    1.3740 ca        1 LA3     -0.198300
     28 C28        -4.1770    3.4680    1.4690 c3        1 LA3      0.140100
     29 O29        -4.3560    2.0640    1.5220 oh        1 LA3     -0.647800
     30 C30        -3.9360    3.9750    0.0320 c3        1 LA3     -0.082100
     31 C31        -0.9100    6.2210   -0.6230 ca        1 LA3     -0.070000
     32 C32        -0.9160    5.3960    1.6600 ca        1 LA3     -0.097000
     33 C33        -2.6740    4.7620    0.0940 ca        1 LA3     -0.047300
     34 C34        -2.0910    5.5240   -0.9080 ca        1 LA3     -0.102000
     35 C35        -0.3300    6.1600    0.6450 ca        1 LA3     -0.116000
     36 H1         -0.0830    0.2300   -0.7110 ha        1 LA3      0.166500
     37 H2          1.2810    1.2870    3.9720 ha        1 LA3      0.138000
     38 H4         -1.6050   -0.3250    1.1640 ha        1 LA3      0.138000
     39 H6          2.7810    1.8750    2.0930 ha        1 LA3      0.166500
     40 H8         -0.6270   -0.7430    4.3960 hc        1 LA3      0.078200
     41 H8A        -2.1130   -0.4020    3.4180 hc        1 LA3      0.078200
     42 H10         4.1600    0.8950    0.6060 ha        1 LA3      0.159000
     43 H11         0.7540    1.9630   -1.8990 ha        1 LA3      0.132000
     44 H12         2.2590    2.4930   -3.8220 ha        1 LA3      0.171000
     45 H16         6.7810    1.0250   -3.3670 h2        1 LA3      0.093200
     46 H16A        6.9260    2.8120   -2.7890 h2        1 LA3      0.093200
     47 H17        -0.5580    1.7200    5.0780 hc        1 LA3      0.124700
     48 H19        -2.8960   -0.2120    5.7610 hc        1 LA3      0.140700
     49 H19A       -2.7790    1.4130    6.5690 hc        1 LA3      0.140700
     50 HN22       -0.9640   -1.0320    8.8200 hn        1 LA3      0.490800
     51 HO23       -1.9750   -2.5670    7.7390 ho        1 LA3      0.490000
     52 HN25       -1.0930    2.9020    2.7490 hn        1 LA3      0.486300
     53 H26        -3.2260    4.4520    3.2150 hx        1 LA3      0.127700
     54 H28        -5.0660    3.9780    1.9330 h1        1 LA3      0.091700
     55 HO29       -5.0980    1.8470    0.9400 ho        1 LA3      0.460000
     56 H30        -3.8430    3.1170   -0.6840 hc        1 LA3      0.094700
     57 H30A       -4.7940    4.6140   -0.3040 hc        1 LA3      0.094700
     58 H31        -0.4390    6.8340   -1.4110 ha        1 LA3      0.169000
     59 H32        -0.4670    5.3770    2.6630 ha        1 LA3      0.132000
     60 H34        -2.5510    5.5900   -1.9070 ha        1 LA3      0.167000
     61 H35         0.5920    6.7260    0.8530 ha        1 LA3      0.164000
     62 H222       -2.3720   -0.1010    8.7480 hn        1 LA3      0.490800
     63 H252       -2.2690    1.8780    2.1590 hn        1 LA3      0.486300
@<TRIPOS>BOND
     1    1    3 ar  
     2    1    4 ar  
     3    1   36 1   
     4    2    5 ar  
     5    2    6 ar  
     6    2   37 1   
     7    3    6 ar  
     8    3    7 1   
     9    4    5 ar  
    10    4   38 1   
    11    5    8 1   
    12    6   39 1   
    13    7   10 ar  
    14    7   11 ar  
    15    8   17 1   
    16    8   40 1   
    17    8   41 1   
    18    9   12 ar  
    19    9   13 ar  
    20    9   15 1   
    21   10   13 ar  
    22   10   42 1   
    23   11   12 ar  
    24   11   43 1   
    25   12   44 1   
    26   13   14 1   
    27   14   16 1   
    28   15   16 1   
    29   16   45 1   
    30   16   46 1   
    31   17   18 1   
    32   17   19 1   
    33   17   47 1   
    34   18   24 2   
    35   18   25 1   
    36   19   20 1   
    37   19   48 1   
    38   19   49 1   
    39   20   21 2   
    40   20   22 1   
    41   22   23 1   
    42   22   50 1   
    43   22   62 1   
    44   23   51 1   
    45   25   26 1   
    46   25   52 1   
    47   25   63 1   
    48   26   27 1   
    49   26   28 1   
    50   26   53 1   
    51   27   32 ar  
    52   27   33 ar  
    53   28   29 1   
    54   28   30 1   
    55   28   54 1   
    56   29   55 1   
    57   30   33 1   
    58   30   56 1   
    59   30   57 1   
    60   31   34 ar  
    61   31   35 ar  
    62   31   58 1   
    63   32   35 ar  
    64   32   59 1   
    65   33   34 ar  
    66   34   60 1   
    67   35   61 1   
@<TRIPOS>SUBSTRUCTURE
     1 LA3         1 TEMP              0 ****  ****    0 ROOT
