@<TRIPOS>MOLECULE
LA6
   36    35     1     0     0
SMALL
bcc


@<TRIPOS>ATOM
      1 C1          0.0370    1.8920   -0.6380 c3        1 LA6      0.238600
      2 O1         -0.1370    0.8250    0.1910 os        1 LA6     -0.556200
      3 C2          1.3190    2.6840   -0.3770 c2        1 LA6      0.106300
      4 F2          1.1950    3.9860   -0.7920 f         1 LA6     -0.245500
      5 C3          2.5060    2.2870    0.1490 c2        1 LA6     -0.213400
      6 C4          3.6510    3.2250    0.2870 c3        1 LA6     -0.032900
      7 C5          2.7640    0.9080    0.6350 c3        1 LA6     -0.059200
      8 C6          3.8880    0.2330   -0.1350 c3        1 LA6     -0.039200
      9 C7          3.8930   -1.2270    0.1230 c2        1 LA6     -0.086200
     10 C8          5.0020   -1.9760    0.2600 c2        1 LA6     -0.254400
     11 C9          6.3750   -1.4230    0.1920 c3        1 LA6     -0.022900
     12 PA         -0.3810   -0.7280   -0.5240 p5        1 LA6      1.581800
     13 PB         -3.4560   -1.6050    0.4570 p5        1 LA6      1.453900
     14 C10         4.9100   -3.4360    0.4970 c3        1 LA6     -0.022900
     15 O1A        -0.2460   -0.4360   -1.9820 o         1 LA6     -0.922500
     16 O1B        -3.6140   -2.9310   -0.2320 o         1 LA6     -0.953167
     17 O2A         0.7770   -1.4510    0.0900 o         1 LA6     -0.922500
     18 O2B        -3.3900   -1.6750    1.9550 o         1 LA6     -0.953167
     19 O3A        -1.7910   -1.1130   -0.0330 os        1 LA6     -0.795800
     20 O3B        -4.3170   -0.4990   -0.0840 o         1 LA6     -0.953167
     21 H1          0.0650    1.5740   -1.7260 h1        1 LA6      0.038700
     22 H1A        -0.8050    2.6350   -0.4880 h1        1 LA6      0.038700
     23 H4          4.1280    3.1100    1.2920 hc        1 LA6      0.006700
     24 H4A         4.4260    3.0010   -0.4890 hc        1 LA6      0.006700
     25 H4B         3.3360    4.2910    0.1670 hc        1 LA6      0.006700
     26 H5          3.0380    0.9530    1.7230 hc        1 LA6      0.099700
     27 H5A         1.8270    0.2590    0.5520 hc        1 LA6      0.099700
     28 H6          3.7170    0.3840   -1.2370 hc        1 LA6      0.019200
     29 H6A         4.8760    0.7050    0.1180 hc        1 LA6      0.019200
     30 H7          2.8620   -1.6720    0.1760 ha        1 LA6      0.251000
     31 H9          6.5670   -0.7310    1.0500 hc        1 LA6      0.011533
     32 H9A         7.1430   -2.2350    0.2240 hc        1 LA6      0.011533
     33 H9B         6.5240   -0.8420   -0.7530 hc        1 LA6      0.011533
     34 H10         3.8420   -3.7660    0.5510 hc        1 LA6      0.011533
     35 H10A        5.4150   -4.0000   -0.3270 hc        1 LA6      0.011533
     36 H10B        5.4160   -3.7100    1.4570 hc        1 LA6      0.011533
@<TRIPOS>BOND
     1    1    2 1   
     2    1    3 1   
     3    1   21 1   
     4    1   22 1   
     5    2   12 1   
     6    3    4 1   
     7    3    5 2   
     8    5    6 1   
     9    5    7 1   
    10    6   23 1   
    11    6   24 1   
    12    6   25 1   
    13    7    8 1   
    14    7   26 1   
    15    7   27 1   
    16    8    9 1   
    17    8   28 1   
    18    8   29 1   
    19    9   10 2   
    20    9   30 1   
    21   10   11 1   
    22   10   14 1   
    23   11   31 1   
    24   11   32 1   
    25   11   33 1   
    26   12   15 1   
    27   12   17 1   
    28   12   19 1   
    29   13   16 1   
    30   13   18 1   
    31   13   19 1   
    32   13   20 1   
    33   14   34 1   
    34   14   35 1   
    35   14   36 1   
@<TRIPOS>SUBSTRUCTURE
     1 LA6         1 TEMP              0 ****  ****    0 ROOT
