@<TRIPOS>MOLECULE
LA6
   36    35     1     0     0
SMALL
bcc


@<TRIPOS>ATOM
      1 C1          0.5970   -0.8070    0.6210 c3        1 LA6      0.238600
      2 O1          1.1830    0.3470    0.1940 os        1 LA6     -0.556200
      3 C2         -0.4480   -0.6090    1.7200 c2        1 LA6      0.106300
      4 F2         -0.5860   -1.7380    2.4870 f         1 LA6     -0.245500
      5 C3         -1.2360    0.4610    2.0000 c2        1 LA6     -0.213400
      6 C4         -2.2240    0.4310    3.1100 c3        1 LA6     -0.032900
      7 C5         -1.1800    1.7380    1.2460 c3        1 LA6     -0.059200
      8 C6         -2.5030    2.0590    0.5690 c3        1 LA6     -0.039200
      9 C7         -2.3260    3.1290   -0.4420 c2        1 LA6     -0.086200
     10 C8         -3.2110    4.1140   -0.6760 c2        1 LA6     -0.254400
     11 C9         -4.4810    4.2660    0.0720 c3        1 LA6     -0.022900
     12 PA          1.1330    0.7070   -1.4930 p5        1 LA6      1.581800
     13 PB          4.3460    0.7160   -2.4230 p5        1 LA6      1.453900
     14 C10        -2.9570    5.1330   -1.7230 c3        1 LA6     -0.022900
     15 O1A         0.3240   -0.4220   -2.0400 o         1 LA6     -0.922500
     16 O1B         4.2230    0.9900   -3.8950 o         1 LA6     -0.953167
     17 O2A         0.4250    2.0250   -1.4290 o         1 LA6     -0.922500
     18 O2B         4.9870    1.8160   -1.6270 o         1 LA6     -0.953167
     19 O3A         2.6250    0.7290   -1.8830 os        1 LA6     -0.795800
     20 O3B         4.8090   -0.6690   -2.0680 o         1 LA6     -0.953167
     21 H1          1.3790   -1.4880    1.0780 h1        1 LA6      0.038700
     22 H1A         0.0800   -1.3500   -0.2280 h1        1 LA6      0.038700
     23 H4         -2.1730    1.3800    3.7000 hc        1 LA6      0.006700
     24 H4A        -2.0470   -0.4250    3.8070 hc        1 LA6      0.006700
     25 H4B        -3.2610    0.3380    2.6990 hc        1 LA6      0.006700
     26 H5         -0.3620    1.7100    0.4470 hc        1 LA6      0.099700
     27 H5A        -0.9180    2.5670    1.9560 hc        1 LA6      0.099700
     28 H6         -3.2790    2.3320    1.3340 hc        1 LA6      0.019200
     29 H6A        -2.8700    1.1410    0.0320 hc        1 LA6      0.019200
     30 H7         -1.3690    3.0340   -1.0260 ha        1 LA6      0.251000
     31 H9         -4.2820    4.5120    1.1460 hc        1 LA6      0.011533
     32 H9A        -5.1110    5.0840   -0.3580 hc        1 LA6      0.011533
     33 H9B        -5.0760    3.3190    0.0440 hc        1 LA6      0.011533
     34 H10        -1.9740    4.9530   -2.2250 hc        1 LA6      0.011533
     35 H10A       -2.9470    6.1590   -1.2770 hc        1 LA6      0.011533
     36 H10B       -3.7630    5.1060   -2.5000 hc        1 LA6      0.011533
@<TRIPOS>BOND
     1    1    2 1   
     2    1    3 1   
     3    1   21 1   
     4    1   22 1   
     5    2   12 1   
     6    3    4 1   
     7    3    5 2   
     8    5    6 1   
     9    5    7 1   
    10    6   23 1   
    11    6   24 1   
    12    6   25 1   
    13    7    8 1   
    14    7   26 1   
    15    7   27 1   
    16    8    9 1   
    17    8   28 1   
    18    8   29 1   
    19    9   10 2   
    20    9   30 1   
    21   10   11 1   
    22   10   14 1   
    23   11   31 1   
    24   11   32 1   
    25   11   33 1   
    26   12   15 1   
    27   12   17 1   
    28   12   19 1   
    29   13   16 1   
    30   13   18 1   
    31   13   19 1   
    32   13   20 1   
    33   14   34 1   
    34   14   35 1   
    35   14   36 1   
@<TRIPOS>SUBSTRUCTURE
     1 LA6         1 TEMP              0 ****  ****    0 ROOT
