@<TRIPOS>MOLECULE
LA6
   36    35     1     0     0
SMALL
bcc


@<TRIPOS>ATOM
      1 C1          0.5180   -0.8680    0.5560 c3        1 LA6      0.238600
      2 O1          1.1430    0.2880    0.1940 os        1 LA6     -0.556200
      3 C2         -0.5530   -0.6890    1.6330 c2        1 LA6      0.106300
      4 F2         -0.7410   -1.8450    2.3470 f         1 LA6     -0.245500
      5 C3         -1.3230    0.3870    1.9360 c2        1 LA6     -0.213400
      6 C4         -2.3430    0.3370    3.0160 c3        1 LA6     -0.032900
      7 C5         -1.2150    1.6930    1.2380 c3        1 LA6     -0.059200
      8 C6         -2.5100    2.0760    0.5390 c3        1 LA6     -0.039200
      9 C7         -2.2780    3.1820   -0.4200 c2        1 LA6     -0.086200
     10 C8         -3.1310    4.1980   -0.6370 c2        1 LA6     -0.254400
     11 C9         -4.4180    4.3520    0.0820 c3        1 LA6     -0.022900
     12 PA          1.1490    0.7180   -1.4780 p5        1 LA6      1.581800
     13 PB          4.3870    0.6820   -2.3190 p5        1 LA6      1.453900
     14 C10        -2.8240    5.2530   -1.6320 c3        1 LA6     -0.022900
     15 O1A         0.3290   -0.3670   -2.0930 o         1 LA6     -0.922500
     16 O1B         4.3110    1.0190   -3.7810 o         1 LA6     -0.953167
     17 O2A         0.4720    2.0500   -1.3780 o         1 LA6     -0.922500
     18 O2B         5.0320    1.7320   -1.4610 o         1 LA6     -0.953167
     19 O3A         2.6510    0.7180   -1.8260 os        1 LA6     -0.795800
     20 O3B         4.8050   -0.7270   -2.0090 o         1 LA6     -0.953167
     21 H1          1.2710   -1.5860    1.0060 h1        1 LA6      0.038700
     22 H1A         0.0130   -1.3630   -0.3290 h1        1 LA6      0.038700
     23 H4         -2.2870    1.2590    3.6460 hc        1 LA6      0.006700
     24 H4A        -2.2060   -0.5510    3.6800 hc        1 LA6      0.006700
     25 H4B        -3.3700    0.2860    2.5720 hc        1 LA6      0.006700
     26 H5         -0.3750    1.6770    0.4610 hc        1 LA6      0.099700
     27 H5A        -0.9530    2.4850    1.9890 hc        1 LA6      0.099700
     28 H6         -3.3000    2.3360    1.2940 hc        1 LA6      0.019200
     29 H6A        -2.8830    1.1900   -0.0470 hc        1 LA6      0.019200
     30 H7         -1.3080    3.0870   -0.9820 ha        1 LA6      0.251000
     31 H9         -4.2440    4.5470    1.1710 hc        1 LA6      0.011533
     32 H9A        -5.0160    5.2030   -0.3300 hc        1 LA6      0.011533
     33 H9B        -5.0350    3.4220   -0.0030 hc        1 LA6      0.011533
     34 H10        -1.8310    5.0690   -2.1140 hc        1 LA6      0.011533
     35 H10A       -2.8010    6.2590   -1.1430 hc        1 LA6      0.011533
     36 H10B       -3.6070    5.2790   -2.4310 hc        1 LA6      0.011533
@<TRIPOS>BOND
     1    1    2 1   
     2    1    3 1   
     3    1   21 1   
     4    1   22 1   
     5    2   12 1   
     6    3    4 1   
     7    3    5 2   
     8    5    6 1   
     9    5    7 1   
    10    6   23 1   
    11    6   24 1   
    12    6   25 1   
    13    7    8 1   
    14    7   26 1   
    15    7   27 1   
    16    8    9 1   
    17    8   28 1   
    18    8   29 1   
    19    9   10 2   
    20    9   30 1   
    21   10   11 1   
    22   10   14 1   
    23   11   31 1   
    24   11   32 1   
    25   11   33 1   
    26   12   15 1   
    27   12   17 1   
    28   12   19 1   
    29   13   16 1   
    30   13   18 1   
    31   13   19 1   
    32   13   20 1   
    33   14   34 1   
    34   14   35 1   
    35   14   36 1   
@<TRIPOS>SUBSTRUCTURE
     1 LA6         1 TEMP              0 ****  ****    0 ROOT
