@<TRIPOS>MOLECULE
LA7
   19    19     1     0     0
SMALL
bcc


@<TRIPOS>ATOM
      1 O1         -0.0690   -0.3800    0.0220 oh        1 LA7     -0.489100
      2 C4          1.2970   -0.2330    0.0360 ca        1 LA7      0.007800
      3 C3          2.0690   -0.3600    1.1980 ca        1 LA7     -0.172000
      4 C2          3.4490   -0.2040    1.0970 ca        1 LA7     -0.209300
      5 C5          1.9390    0.0530   -1.2030 ca        1 LA7      0.360600
      6 C6          1.0890    0.1690   -2.4470 c3        1 LA7      0.093100
      7 O           1.4590    1.2280   -3.3000 oh        1 LA7     -0.590800
      8 N           3.2750    0.1950   -1.2880 nb        1 LA7     -0.653000
      9 C1          4.0210    0.0720   -0.1630 ca        1 LA7      0.388600
     10 C           5.5040    0.2390   -0.2640 c3        1 LA7     -0.144400
     11 H1         -0.3650   -0.4940    0.9380 ho        1 LA7      0.423000
     12 H3          1.5950   -0.5760    2.1660 ha        1 LA7      0.140000
     13 H2          4.0860   -0.2960    1.9870 ha        1 LA7      0.145000
     14 H61C        0.0250    0.3980   -2.1580 h1        1 LA7      0.064200
     15 H62C        1.1290   -0.8110   -2.9980 h1        1 LA7      0.064200
     16 H           2.3770    1.0920   -3.5660 ho        1 LA7      0.414000
     17 HC1         5.9330   -0.4850   -1.0010 hc        1 LA7      0.052367
     18 HC2         5.7550    1.2750   -0.6040 hc        1 LA7      0.052367
     19 HC3         5.9810    0.0630    0.7300 hc        1 LA7      0.052367
@<TRIPOS>BOND
     1    1    2 1   
     2    1   11 1   
     3    2    3 ar  
     4    2    5 ar  
     5    3    4 ar  
     6    3   12 1   
     7    4    9 ar  
     8    4   13 1   
     9    5    6 1   
    10    5    8 ar  
    11    6    7 1   
    12    6   14 1   
    13    6   15 1   
    14    7   16 1   
    15    8    9 ar  
    16    9   10 1   
    17   10   17 1   
    18   10   18 1   
    19   10   19 1   
@<TRIPOS>SUBSTRUCTURE
     1 LA7         1 TEMP              0 ****  ****    0 ROOT
