@<TRIPOS>MOLECULE
LA7
   19    19     1     0     0
SMALL
bcc


@<TRIPOS>ATOM
      1 O1         -0.0670   -0.4120    0.0080 oh        1 LA7     -0.489100
      2 C4          1.2990   -0.2610    0.0260 ca        1 LA7      0.007800
      3 C3          2.0720   -0.4290    1.1820 ca        1 LA7     -0.172000
      4 C2          3.4510   -0.2640    1.0860 ca        1 LA7     -0.209300
      5 C5          1.9380    0.0740   -1.2020 ca        1 LA7      0.360600
      6 C6          1.0870    0.2330   -2.4400 c3        1 LA7      0.093100
      7 O           1.4520    1.3250   -3.2530 oh        1 LA7     -0.590800
      8 N           3.2740    0.2240   -1.2830 nb        1 LA7     -0.653000
      9 C1          4.0220    0.0620   -0.1640 ca        1 LA7      0.388600
     10 C           5.5030    0.2390   -0.2600 c3        1 LA7     -0.144400
     11 H1         -0.3610   -0.5610    0.9190 ho        1 LA7      0.423000
     12 H3          1.5990   -0.6830    2.1410 ha        1 LA7      0.140000
     13 H2          4.0900   -0.3870    1.9710 ha        1 LA7      0.145000
     14 H61C        0.0220    0.4480   -2.1420 h1        1 LA7      0.064200
     15 H62C        1.1300   -0.7250   -3.0270 h1        1 LA7      0.064200
     16 H           2.3710    1.2030   -3.5250 ho        1 LA7      0.414000
     17 HC1         5.9330   -0.4440   -1.0350 hc        1 LA7      0.052367
     18 HC2         5.7500    1.2920   -0.5440 hc        1 LA7      0.052367
     19 HC3         5.9830    0.0110    0.7230 hc        1 LA7      0.052367
@<TRIPOS>BOND
     1    1    2 1   
     2    1   11 1   
     3    2    3 ar  
     4    2    5 ar  
     5    3    4 ar  
     6    3   12 1   
     7    4    9 ar  
     8    4   13 1   
     9    5    6 1   
    10    5    8 ar  
    11    6    7 1   
    12    6   14 1   
    13    6   15 1   
    14    7   16 1   
    15    8    9 ar  
    16    9   10 1   
    17   10   17 1   
    18   10   18 1   
    19   10   19 1   
@<TRIPOS>SUBSTRUCTURE
     1 LA7         1 TEMP              0 ****  ****    0 ROOT
