@<TRIPOS>MOLECULE
LA8
   39    41     1     0     0
SMALL
bcc


@<TRIPOS>ATOM
      1 N1          0.0000    0.0000    0.0000 nb        1 LA8     -0.682000
      2 C2          1.3210    0.0000    0.0000 ca        1 LA8      0.540900
      3 N3          2.0270    0.0000    1.1110 nb        1 LA8     -0.694000
      4 C4          1.4270    0.0010    2.2960 ca        1 LA8      0.254800
      5 C5          0.0230    0.0010    2.3500 ca        1 LA8     -0.188200
      6 C6         -0.6870    0.0010    1.1370 ca        1 LA8      0.426200
      7 N6         -2.0720    0.0020    1.1270 nv        1 LA8     -0.600500
      8 N7         -0.3260    0.0020    3.6580 nc        1 LA8     -0.544100
      9 C8          0.7480    0.0020    4.3930 cd        1 LA8      0.202700
     10 N9          1.8550    0.0010    3.5990 na        1 LA8      0.211000
     11 PA          4.6250    1.7800    9.4660 p5        1 LA8      0.925800
     12 PB          5.2630    4.3410   10.8150 p5        1 LA8      0.814900
     13 C1'         3.2480    0.0020    4.0540 c3        1 LA8      0.142800
     14 O1A         5.7530    1.1010   10.1420 o         1 LA8     -0.698500
     15 O1B         4.0900    4.4490   11.9120 o         1 LA8     -0.659833
     16 C2'         4.6910   -1.4350    5.3900 c3        1 LA8      0.116100
     17 O2'         6.0400   -1.7500    5.0350 oh        1 LA8     -0.568800
     18 O2A         3.2390    1.3170   10.1410 o         1 LA8     -0.698500
     19 O2B         6.4800    3.7840   11.4470 o         1 LA8     -0.659833
     20 C3'         3.7860   -1.4440    4.1380 c3        1 LA8      0.120100
     21 O3'         4.5460   -1.7660    2.9720 oh        1 LA8     -0.551800
     22 O3A         4.7900    3.3740    9.6170 os        1 LA8     -0.470800
     23 O3B         5.5860    5.8040   10.2270 o         1 LA8     -0.659833
     24 C4'         4.5950    0.0180    5.9130 c3        1 LA8      0.139100
     25 O4'         3.3370    0.5100    5.4020 os        1 LA8     -0.356600
     26 C5'         4.5920    0.0340    7.4430 c3        1 LA8      0.307400
     27 O5'         4.6190    1.3860    7.9050 os        1 LA8     -0.488200
     28 H2          1.8420   -0.0000   -0.9500 h5        1 LA8     -0.032900
     29 HN6        -2.5750   -0.7880    1.4800 hn        1 LA8      0.243800
     30 HN6A       -2.5690    0.7780    0.7370 hn        1 LA8      0.243800
     31 H8          0.7600    0.0010    5.4760 h5        1 LA8      0.050800
     32 H1'         3.8670    0.5930    3.3900 h2        1 LA8      0.054700
     33 H2'         4.3160   -2.1290    6.1330 h1        1 LA8      0.011700
     34 HO2'        6.3670   -2.4250    5.6080 ho        1 LA8      0.374000
     35 H3'         2.9680   -2.1430    4.2700 h1        1 LA8      0.006700
     36 HO3'        4.5440   -2.7000    2.8430 ho        1 LA8      0.369000
     37 H4'         5.4150    0.6110    5.5250 h1        1 LA8      0.039700
     38 H5'         5.4660   -0.4900    7.8110 h1        1 LA8     -0.021800
     39 H5'A        3.6970   -0.4540    7.8080 h1        1 LA8     -0.021800
@<TRIPOS>BOND
     1    1    2 ar  
     2    1    6 ar  
     3    2    3 ar  
     4    2   28 1   
     5    3    4 ar  
     6    4    5 ar  
     7    4   10 1   
     8    5    6 ar  
     9    5    8 1   
    10    6    7 1   
    11    7   29 1   
    12    7   30 1   
    13    8    9 2   
    14    9   10 1   
    15    9   31 1   
    16   10   13 1   
    17   11   14 1   
    18   11   18 1   
    19   11   22 1   
    20   11   27 1   
    21   12   15 1   
    22   12   19 1   
    23   12   22 1   
    24   12   23 1   
    25   13   20 1   
    26   13   25 1   
    27   13   32 1   
    28   16   17 1   
    29   16   20 1   
    30   16   24 1   
    31   16   33 1   
    32   17   34 1   
    33   20   21 1   
    34   20   35 1   
    35   21   36 1   
    36   24   25 1   
    37   24   26 1   
    38   24   37 1   
    39   26   27 1   
    40   26   38 1   
    41   26   39 1   
@<TRIPOS>SUBSTRUCTURE
     1 LA8         1 TEMP              0 ****  ****    0 ROOT
