@<TRIPOS>MOLECULE
LAA
   17    16     1     0     0
SMALL
bcc


@<TRIPOS>ATOM
      1 N          -2.2280    0.4480    0.8670 n         1 LAA     -0.646000
      2 N1          0.4720    1.7470   -0.6860 n3        1 LAA     -0.891800
      3 CA         -0.0540    0.4480   -0.4420 c3        1 LAA      0.089500
      4 C          -0.8100    0.4480    0.8670 c         1 LAA      0.625100
      5 O          -0.2020    0.4480    1.9190 o         1 LAA     -0.679100
      6 CB          1.0790   -0.5490   -0.3690 c3        1 LAA      0.016100
      7 CG          0.5160   -1.9520   -0.3420 c         1 LAA      0.882600
      8 OD1         0.3840   -2.5560    0.7550 o         1 LAA     -0.829300
      9 OD2         0.1790   -2.5160   -1.4160 o         1 LAA     -0.829300
     10 HN1         0.6720    1.8330   -1.5710 hn        1 LAA      0.347800
     11 HA         -0.6590    0.2010   -1.1670 h1        1 LAA      0.087700
     12 HB          1.6550   -0.4440   -1.1510 h1        1 LAA      0.058700
     13 O1          1.8300   -0.3210    0.8000 oh        1 LAA     -0.635800
     14 HO1         2.6810   -0.5250    0.6500 ho        1 LAA      0.428000
     15 HN         -2.6840    0.3850    1.6550 hn        1 LAA      0.314000
     16 HNA        -2.6840    0.5300    0.0820 hn        1 LAA      0.314000
     17 HN1A       -0.1470    2.3750   -0.4510 hn        1 LAA      0.347800
@<TRIPOS>BOND
     1    1    4 1   
     2    1   15 1   
     3    1   16 1   
     4    2    3 1   
     5    2   10 1   
     6    2   17 1   
     7    3    4 1   
     8    3    6 1   
     9    3   11 1   
    10    4    5 2   
    11    6    7 1   
    12    6   12 1   
    13    6   13 1   
    14    7    8 1   
    15    7    9 1   
    16   13   14 1   
@<TRIPOS>SUBSTRUCTURE
     1 LAA         1 TEMP              0 ****  ****    0 ROOT
