@<TRIPOS>MOLECULE
LAA
   17    16     1     0     0
SMALL
bcc


@<TRIPOS>ATOM
      1 N          -2.5450    1.1550    0.5820 n         1 LAA     -0.642000
      2 N1         -0.4210   -1.8610    0.6360 n3        1 LAA     -0.904800
      3 CA         -0.6180   -0.4290    0.5550 c3        1 LAA      0.101500
      4 C          -2.0660   -0.0790    0.1650 c         1 LAA      0.649100
      5 O          -2.8150   -0.8470   -0.4750 o         1 LAA     -0.644100
      6 CB          0.3190    0.3260   -0.4280 c3        1 LAA     -0.024900
      7 CG          1.8060   -0.0400   -0.1730 c         1 LAA      0.896600
      8 OD1         2.1960   -1.2040   -0.4550 o         1 LAA     -0.825300
      9 OD2         2.5320    0.8810    0.2990 o         1 LAA     -0.825300
     10 HA         -0.4120   -0.0200    1.5900 h1        1 LAA      0.071700
     11 HB          0.0450    0.0720   -1.4870 h1        1 LAA      0.052700
     12 O1          0.1050    1.7200   -0.2780 oh        1 LAA     -0.657800
     13 HO1         0.9030    2.0880    0.1400 ho        1 LAA      0.435000
     14 HN         -1.8570    1.8520    0.7610 hn        1 LAA      0.289500
     15 HNA        -3.3790    1.4760    0.1490 hn        1 LAA      0.289500
     16 HN1        -0.8200   -2.3050   -0.1700 hn        1 LAA      0.369300
     17 HN1A        0.5680   -2.0580    0.6510 hn        1 LAA      0.369300
@<TRIPOS>BOND
     1    1    4 1   
     2    1   14 1   
     3    1   15 1   
     4    2    3 1   
     5    2   16 1   
     6    2   17 1   
     7    3    4 1   
     8    3    6 1   
     9    3   10 1   
    10    4    5 2   
    11    6    7 1   
    12    6   11 1   
    13    6   12 1   
    14    7    8 1   
    15    7    9 1   
    16   12   13 1   
@<TRIPOS>SUBSTRUCTURE
     1 LAA         1 TEMP              0 ****  ****    0 ROOT
