@<TRIPOS>MOLECULE
LAB
   56    58     1     0     0
SMALL
bcc


@<TRIPOS>ATOM
      1 O5          0.4360   -0.9660   -0.9700 o         1 LAB     -0.572500
      2 C18         1.6000   -0.8480   -0.5690 c         1 LAB      0.714100
      3 N1          1.9130   -0.4530    0.7370 n         1 LAB     -0.545900
      4 C16         3.3230   -0.2770    1.0180 c3        1 LAB      0.061700
      5 C17         4.1580   -0.5970   -0.2340 c3        1 LAB     -0.030300
      6 S1          3.0590   -1.2050   -1.4920 ss        1 LAB     -0.225700
      7 C15         3.6680    1.1330    1.6040 c3        1 LAB      0.338600
      8 O4          3.0810    2.1720    0.8510 oh        1 LAB     -0.608800
      9 C14         3.1660    1.2900    3.0470 c3        1 LAB     -0.128400
     10 C13         4.0550    0.5640    4.0490 c3        1 LAB      0.168100
     11 O2          3.8340    1.0030    5.3960 os        1 LAB     -0.443900
     12 C12         5.5290    0.6500    3.6730 c3        1 LAB     -0.140400
     13 C11         5.7500    1.7270    2.6170 c3        1 LAB      0.138100
     14 O3          5.0650    1.3380    1.4180 os        1 LAB     -0.452600
     15 C10         7.2290    1.9100    2.3000 c3        1 LAB     -0.075400
     16 C9          7.8450    2.8160    3.3540 c3        1 LAB     -0.080400
     17 C8          9.2010    2.3690    3.8870 c3        1 LAB     -0.029500
     18 C20         9.2570    0.9010    4.2670 c3        1 LAB     -0.088100
     19 C7          9.5950    3.2540    5.0250 c2        1 LAB     -0.157200
     20 C6          9.0290    3.3750    6.2290 c2        1 LAB     -0.169200
     21 C5          7.8810    2.6190    6.7840 c3        1 LAB     -0.041200
     22 C4          6.7180    3.5420    7.1170 c3        1 LAB     -0.072200
     23 C3          5.6370    2.8240    7.8530 c2        1 LAB     -0.019400
     24 C19         5.7920    2.7930    9.3300 c3        1 LAB     -0.077900
     25 C2          4.5790    2.2330    7.2690 ce        1 LAB     -0.234200
     26 C1          4.3540    2.2060    5.8200 c         1 LAB      0.650300
     27 O1          4.5400    3.0970    4.9890 o         1 LAB     -0.543000
     28 HN1         1.2770    0.1550    1.2060 hn        1 LAB      0.326500
     29 H16         3.5960   -1.0210    1.8270 h1        1 LAB      0.074700
     30 H171        4.6890    0.3100   -0.6100 h1        1 LAB      0.092200
     31 H172        4.9240   -1.3710    0.0020 h1        1 LAB      0.092200
     32 HO4         3.6200    2.3070    0.0590 ho        1 LAB      0.429000
     33 H141        3.1320    2.3880    3.2900 hc        1 LAB      0.090200
     34 H142        2.1190    0.9030    3.1240 hc        1 LAB      0.090200
     35 H13         3.7370   -0.5190    4.1240 h1        1 LAB      0.080700
     36 H121        6.1460    0.8830    4.5790 hc        1 LAB      0.067700
     37 H122        5.8680   -0.3390    3.2710 hc        1 LAB      0.067700
     38 H11         5.3150    2.7120    2.9580 h1        1 LAB      0.087700
     39 H101        7.7360    0.9130    2.2650 hc        1 LAB      0.055200
     40 H102        7.3330    2.3690    1.2830 hc        1 LAB      0.055200
     41 H91         7.1410    2.9210    4.2260 hc        1 LAB      0.052200
     42 H92         7.9630    3.8450    2.9210 hc        1 LAB      0.052200
     43 H8          9.9560    2.5230    3.0600 hc        1 LAB      0.049700
     44 H201        8.2740    0.5410    4.6550 hc        1 LAB      0.035700
     45 H202       10.0320    0.7320    5.0530 hc        1 LAB      0.035700
     46 H203        9.5240    0.2810    3.3770 hc        1 LAB      0.035700
     47 H7         10.4690    3.8910    4.7960 ha        1 LAB      0.118000
     48 H6          9.4510    4.1120    6.9380 ha        1 LAB      0.117000
     49 H51         8.2210    2.0940    7.7190 hc        1 LAB      0.048200
     50 H52         7.5310    1.8260    6.0710 hc        1 LAB      0.048200
     51 H41         7.0890    4.3930    7.7500 hc        1 LAB      0.071200
     52 H42         6.3120    3.9860    6.1670 hc        1 LAB      0.071200
     53 H191        5.6840    3.8300    9.7400 hc        1 LAB      0.054367
     54 H192        6.8100    2.4150    9.5990 hc        1 LAB      0.054367
     55 H193        5.0280    2.1390    9.8180 hc        1 LAB      0.054367
     56 H2          3.8170    1.6960    7.8580 ha        1 LAB      0.159000
@<TRIPOS>BOND
     1    1    2 2   
     2    2    3 1   
     3    2    6 1   
     4    3    4 1   
     5    3   28 1   
     6    4    5 1   
     7    4    7 1   
     8    4   29 1   
     9    5    6 1   
    10    5   30 1   
    11    5   31 1   
    12    7    8 1   
    13    7    9 1   
    14    7   14 1   
    15    8   32 1   
    16    9   10 1   
    17    9   33 1   
    18    9   34 1   
    19   10   11 1   
    20   10   12 1   
    21   10   35 1   
    22   11   26 1   
    23   12   13 1   
    24   12   36 1   
    25   12   37 1   
    26   13   14 1   
    27   13   15 1   
    28   13   38 1   
    29   15   16 1   
    30   15   39 1   
    31   15   40 1   
    32   16   17 1   
    33   16   41 1   
    34   16   42 1   
    35   17   18 1   
    36   17   19 1   
    37   17   43 1   
    38   18   44 1   
    39   18   45 1   
    40   18   46 1   
    41   19   20 2   
    42   19   47 1   
    43   20   21 1   
    44   20   48 1   
    45   21   22 1   
    46   21   49 1   
    47   21   50 1   
    48   22   23 1   
    49   22   51 1   
    50   22   52 1   
    51   23   24 1   
    52   23   25 2   
    53   24   53 1   
    54   24   54 1   
    55   24   55 1   
    56   25   26 1   
    57   25   56 1   
    58   26   27 2   
@<TRIPOS>SUBSTRUCTURE
     1 LAB         1 TEMP              0 ****  ****    0 ROOT
