@<TRIPOS>MOLECULE
LAB
   56    58     1     0     0
SMALL
bcc


@<TRIPOS>ATOM
      1 O5          0.4350   -1.2330   -0.7700 o         1 LAB     -0.575500
      2 C18         1.6080   -1.0090   -0.4480 c         1 LAB      0.715100
      3 N1          1.9660   -0.5740    0.8360 n         1 LAB     -0.542900
      4 C16         3.3700   -0.2730    1.0200 c3        1 LAB      0.093700
      5 C17         4.1430   -0.5040   -0.2910 c3        1 LAB     -0.026300
      6 S1          3.0300   -1.2530   -1.4570 ss        1 LAB     -0.220700
      7 C15         3.6520    1.1550    1.5880 c3        1 LAB      0.337600
      8 O4          3.0230    2.0990    0.7480 oh        1 LAB     -0.610800
      9 C14         3.1560    1.3170    3.0330 c3        1 LAB     -0.155400
     10 C13         4.0390    0.5780    4.0290 c3        1 LAB      0.168100
     11 O2          3.8330    1.0060    5.3830 os        1 LAB     -0.442900
     12 C12         5.5100    0.6570    3.6400 c3        1 LAB     -0.140400
     13 C11         5.7330    1.7600    2.6130 c3        1 LAB      0.133100
     14 O3          5.0380    1.4310    1.4030 os        1 LAB     -0.446600
     15 C10         7.2130    1.9370    2.2910 c3        1 LAB     -0.075400
     16 C9          7.8410    2.8230    3.3530 c3        1 LAB     -0.080400
     17 C8          9.2000    2.3630    3.8670 c3        1 LAB     -0.029500
     18 C20         9.2540    0.8900    4.2250 c3        1 LAB     -0.088100
     19 C7          9.6060    3.2290    5.0160 c2        1 LAB     -0.157200
     20 C6          9.0450    3.3400    6.2230 c2        1 LAB     -0.169200
     21 C5          7.8910    2.5880    6.7710 c3        1 LAB     -0.041200
     22 C4          6.7310    3.5160    7.1040 c3        1 LAB     -0.072200
     23 C3          5.6480    2.8020    7.8420 c2        1 LAB     -0.019400
     24 C19         5.8110    2.7600    9.3180 c3        1 LAB     -0.077900
     25 C2          4.5830    2.2240    7.2600 ce        1 LAB     -0.234200
     26 C1          4.3460    2.2090    5.8130 c         1 LAB      0.652300
     27 O1          4.5130    3.1120    4.9900 o         1 LAB     -0.549000
     28 HN1         1.3120   -0.0030    1.3270 hn        1 LAB      0.321500
     29 H16         3.7640   -0.9910    1.8040 h1        1 LAB      0.070700
     30 H171        4.5190    0.4650   -0.7010 h1        1 LAB      0.096200
     31 H172        5.0140   -1.1750   -0.1150 h1        1 LAB      0.096200
     32 HO4         3.5300    2.9210    0.7930 ho        1 LAB      0.430000
     33 H141        2.1040    0.9450    3.1140 hc        1 LAB      0.084200
     34 H142        3.1350    2.4130    3.2820 hc        1 LAB      0.084200
     35 H13         3.7130   -0.5030    4.0990 h1        1 LAB      0.083700
     36 H121        5.8320   -0.3250    3.2060 hc        1 LAB      0.068700
     37 H122        6.1390    0.8570    4.5460 hc        1 LAB      0.068700
     38 H11         5.3160    2.7390    2.9900 h1        1 LAB      0.078700
     39 H101        7.7110    0.9360    2.2390 hc        1 LAB      0.057200
     40 H102        7.3140    2.4090    1.2790 hc        1 LAB      0.057200
     41 H91         7.1450    2.9160    4.2330 hc        1 LAB      0.051200
     42 H92         7.9600    3.8590    2.9360 hc        1 LAB      0.051200
     43 H8          9.9490    2.5270    3.0370 hc        1 LAB      0.049700
     44 H201       10.0410    0.7050    4.9950 hc        1 LAB      0.036367
     45 H202        9.5020    0.2810    3.3220 hc        1 LAB      0.036367
     46 H203        8.2750    0.5300    4.6250 hc        1 LAB      0.036367
     47 H7         10.4870    3.8600    4.7930 ha        1 LAB      0.118000
     48 H6          9.4760    4.0630    6.9410 ha        1 LAB      0.117000
     49 H51         8.2250    2.0590    7.7070 hc        1 LAB      0.048700
     50 H52         7.5400    1.7990    6.0550 hc        1 LAB      0.048700
     51 H41         6.3260    3.9590    6.1540 hc        1 LAB      0.070200
     52 H42         7.1050    4.3660    7.7360 hc        1 LAB      0.070200
     53 H191        5.7150    3.7950    9.7350 hc        1 LAB      0.054367
     54 H192        6.8280    2.3710    9.5780 hc        1 LAB      0.054367
     55 H193        5.0450    2.1100    9.8050 hc        1 LAB      0.054367
     56 H2          3.8200    1.6880    7.8500 ha        1 LAB      0.159000
@<TRIPOS>BOND
     1    1    2 2   
     2    2    3 1   
     3    2    6 1   
     4    3    4 1   
     5    3   28 1   
     6    4    5 1   
     7    4    7 1   
     8    4   29 1   
     9    5    6 1   
    10    5   30 1   
    11    5   31 1   
    12    7    8 1   
    13    7    9 1   
    14    7   14 1   
    15    8   32 1   
    16    9   10 1   
    17    9   33 1   
    18    9   34 1   
    19   10   11 1   
    20   10   12 1   
    21   10   35 1   
    22   11   26 1   
    23   12   13 1   
    24   12   36 1   
    25   12   37 1   
    26   13   14 1   
    27   13   15 1   
    28   13   38 1   
    29   15   16 1   
    30   15   39 1   
    31   15   40 1   
    32   16   17 1   
    33   16   41 1   
    34   16   42 1   
    35   17   18 1   
    36   17   19 1   
    37   17   43 1   
    38   18   44 1   
    39   18   45 1   
    40   18   46 1   
    41   19   20 2   
    42   19   47 1   
    43   20   21 1   
    44   20   48 1   
    45   21   22 1   
    46   21   49 1   
    47   21   50 1   
    48   22   23 1   
    49   22   51 1   
    50   22   52 1   
    51   23   24 1   
    52   23   25 2   
    53   24   53 1   
    54   24   54 1   
    55   24   55 1   
    56   25   26 1   
    57   25   56 1   
    58   26   27 2   
@<TRIPOS>SUBSTRUCTURE
     1 LAB         1 TEMP              0 ****  ****    0 ROOT
