@<TRIPOS>MOLECULE
LAB
   56    58     1     0     0
SMALL
bcc


@<TRIPOS>ATOM
      1 O5         -6.5290   -1.3520   -0.6400 o         1 LAB     -0.575500
      2 C18        -5.5430   -0.6220   -0.8000 c         1 LAB      0.715100
      3 N1         -4.2290   -1.0950   -0.6740 n         1 LAB     -0.542900
      4 C16        -3.1930   -0.0900   -0.8050 c3        1 LAB      0.093700
      5 C17        -3.8200    1.2940   -1.0460 c3        1 LAB     -0.026300
      6 S1         -5.5680    1.0730   -1.2780 ss        1 LAB     -0.220700
      7 C15        -2.1870   -0.0460    0.3900 c3        1 LAB      0.337600
      8 O4         -2.9230    0.1160    1.5830 oh        1 LAB     -0.610800
      9 C14        -1.3190   -1.3110    0.4700 c3        1 LAB     -0.155400
     10 C13        -0.2590   -1.3500   -0.6230 c3        1 LAB      0.168100
     11 O2          0.7810   -2.3010   -0.3570 os        1 LAB     -0.442900
     12 C12         0.3110    0.0360   -0.8980 c3        1 LAB     -0.140400
     13 C11        -0.0320    0.9910    0.2370 c3        1 LAB      0.133100
     14 O3         -1.4530    1.1710    0.2950 os        1 LAB     -0.446600
     15 C10         0.6240    2.3540    0.0430 c3        1 LAB     -0.075400
     16 C9          2.0520    2.2860    0.5550 c3        1 LAB     -0.080400
     17 C8          3.0970    2.9510   -0.3340 c3        1 LAB     -0.029500
     18 C20         2.9810    2.5800   -1.8000 c3        1 LAB     -0.088100
     19 C7          4.4580    2.6560    0.2080 c2        1 LAB     -0.157200
     20 C6          5.0920    1.4820    0.2920 c2        1 LAB     -0.169200
     21 C5          4.6330    0.1550   -0.1830 c3        1 LAB     -0.041200
     22 C4          4.4860   -0.8270    0.9710 c3        1 LAB     -0.072200
     23 C3          4.2230   -2.2130    0.4850 c2        1 LAB     -0.019400
     24 C19         5.4360   -3.0160    0.1840 c3        1 LAB     -0.077900
     25 C2          2.9990   -2.7430    0.3170 ce        1 LAB     -0.234200
     26 C1          1.7500   -2.0210    0.5800 c         1 LAB      0.652300
     27 O1          1.4740   -1.2620    1.5120 o         1 LAB     -0.549000
     28 HN1        -4.0650   -1.8310   -0.0230 hn        1 LAB      0.321500
     29 H16        -2.5720   -0.3700   -1.7100 h1        1 LAB      0.070700
     30 H171       -3.6400    1.9640   -0.1700 h1        1 LAB      0.096200
     31 H172       -3.3760    1.7690   -1.9500 h1        1 LAB      0.096200
     32 HO4        -2.3610    0.5830    2.2170 ho        1 LAB      0.430000
     33 H141       -0.8280   -1.3430    1.4800 hc        1 LAB      0.084200
     34 H142       -1.9690   -2.2190    0.3960 hc        1 LAB      0.084200
     35 H13        -0.7030   -1.7830   -1.5700 h1        1 LAB      0.083700
     36 H121        1.4240   -0.0210   -1.0150 hc        1 LAB      0.068700
     37 H122       -0.1170    0.4290   -1.8570 hc        1 LAB      0.068700
     38 H11         0.2970    0.5590    1.2280 h1        1 LAB      0.078700
     39 H101        0.5850    2.6420   -1.0380 hc        1 LAB      0.057200
     40 H102        0.0420    3.1260    0.6110 hc        1 LAB      0.057200
     41 H91         2.0970    2.7710    1.5670 hc        1 LAB      0.050700
     42 H92         2.3530    1.2120    0.7070 hc        1 LAB      0.050700
     43 H8          2.9390    4.0680   -0.2630 hc        1 LAB      0.049700
     44 H201        2.2570    3.2580   -2.3150 hc        1 LAB      0.036367
     45 H202        3.9710    2.6800   -2.3060 hc        1 LAB      0.036367
     46 H203        2.6220    1.5310   -1.9290 hc        1 LAB      0.036367
     47 H7          4.9750    3.5530    0.5960 ha        1 LAB      0.118000
     48 H6          6.0960    1.4570    0.7550 ha        1 LAB      0.117000
     49 H51         3.6560    0.2330   -0.7300 hc        1 LAB      0.048700
     50 H52         5.3910   -0.2400   -0.9140 hc        1 LAB      0.048700
     51 H41         5.4280   -0.8250    1.5830 hc        1 LAB      0.070200
     52 H42         3.6510   -0.4870    1.6440 hc        1 LAB      0.070200
     53 H191        5.9960   -3.2200    1.1320 hc        1 LAB      0.054367
     54 H192        5.1830   -3.9940   -0.2930 hc        1 LAB      0.054367
     55 H193        6.1100   -2.4470   -0.5050 hc        1 LAB      0.054367
     56 H2          2.8590   -3.7670   -0.0670 ha        1 LAB      0.159000
@<TRIPOS>BOND
     1    1    2 2   
     2    2    3 1   
     3    2    6 1   
     4    3    4 1   
     5    3   28 1   
     6    4    5 1   
     7    4    7 1   
     8    4   29 1   
     9    5    6 1   
    10    5   30 1   
    11    5   31 1   
    12    7    8 1   
    13    7    9 1   
    14    7   14 1   
    15    8   32 1   
    16    9   10 1   
    17    9   33 1   
    18    9   34 1   
    19   10   11 1   
    20   10   12 1   
    21   10   35 1   
    22   11   26 1   
    23   12   13 1   
    24   12   36 1   
    25   12   37 1   
    26   13   14 1   
    27   13   15 1   
    28   13   38 1   
    29   15   16 1   
    30   15   39 1   
    31   15   40 1   
    32   16   17 1   
    33   16   41 1   
    34   16   42 1   
    35   17   18 1   
    36   17   19 1   
    37   17   43 1   
    38   18   44 1   
    39   18   45 1   
    40   18   46 1   
    41   19   20 2   
    42   19   47 1   
    43   20   21 1   
    44   20   48 1   
    45   21   22 1   
    46   21   49 1   
    47   21   50 1   
    48   22   23 1   
    49   22   51 1   
    50   22   52 1   
    51   23   24 1   
    52   23   25 2   
    53   24   53 1   
    54   24   54 1   
    55   24   55 1   
    56   25   26 1   
    57   25   56 1   
    58   26   27 2   
@<TRIPOS>SUBSTRUCTURE
     1 LAB         1 TEMP              0 ****  ****    0 ROOT
