@<TRIPOS>MOLECULE
LAB
   56    58     1     0     0
SMALL
bcc


@<TRIPOS>ATOM
      1 O5          0.4830   -1.3300   -0.7650 o         1 LAB     -0.575500
      2 C18         1.6510   -1.0770   -0.4480 c         1 LAB      0.715100
      3 N1          2.0060   -0.6460    0.8380 ns        1 LAB     -0.542900
      4 C16         3.4030   -0.3080    1.0160 c3        1 LAB      0.093700
      5 C17         4.1720   -0.5040   -0.3030 c3        1 LAB     -0.026300
      6 S1          3.0720   -1.2710   -1.4700 ss        1 LAB     -0.220700
      7 C15         3.6490    1.1210    1.5980 c3        1 LAB      0.337600
      8 O4          2.9880    2.0560    0.7720 oh        1 LAB     -0.610800
      9 C14         3.1590    1.2540    3.0470 c3        1 LAB     -0.155400
     10 C13         4.0690    0.5290    4.0300 c3        1 LAB      0.168100
     11 O2          3.8610    0.9380    5.3890 os        1 LAB     -0.442900
     12 C12         5.5350    0.6530    3.6310 c3        1 LAB     -0.140400
     13 C11         5.7200    1.7720    2.6140 c3        1 LAB      0.133100
     14 O3          5.0250    1.4380    1.4050 os        1 LAB     -0.446600
     15 C10         7.1920    1.9950    2.2840 c3        1 LAB     -0.075400
     16 C9          7.8020    2.8870    3.3510 c3        1 LAB     -0.080400
     17 C8          9.1770    2.4590    3.8520 c3        1 LAB     -0.029500
     18 C20         9.2740    0.9850    4.1930 c3        1 LAB     -0.088100
     19 C7          9.5670    3.3240    5.0060 c2        1 LAB     -0.157200
     20 C6          9.0110    3.4070    6.2180 c2        1 LAB     -0.169200
     21 C5          7.8830    2.6170    6.7660 c3        1 LAB     -0.041200
     22 C4          6.7000    3.5090    7.1170 c3        1 LAB     -0.072200
     23 C3          5.6430    2.7570    7.8550 c2        1 LAB     -0.019400
     24 C19         5.8170    2.7050    9.3290 c3        1 LAB     -0.077900
     25 C2          4.5900    2.1560    7.2740 ce        1 LAB     -0.234200
     26 C1          4.3430    2.1490    5.8280 c         1 LAB      0.652300
     27 O1          4.4790    3.0650    5.0140 o         1 LAB     -0.549000
     28 HN1         1.3410   -0.0990    1.3400 hn        1 LAB      0.321500
     29 H16         3.8220   -1.0230    1.7890 h1        1 LAB      0.070700
     30 H171        5.0620   -1.1530   -0.1410 h1        1 LAB      0.096200
     31 H172        4.5180    0.4790   -0.7040 h1        1 LAB      0.096200
     32 HO4         3.4730    2.8910    0.8230 ho        1 LAB      0.430000
     33 H141        3.1090    2.3460    3.3080 hc        1 LAB      0.084200
     34 H142        2.1180    0.8520    3.1320 hc        1 LAB      0.084200
     35 H13         3.7740   -0.5610    4.0900 h1        1 LAB      0.083700
     36 H121        5.8810   -0.3150    3.1850 hc        1 LAB      0.068700
     37 H122        6.1640    0.8610    4.5350 hc        1 LAB      0.068700
     38 H11         5.2780    2.7360    3.0050 h1        1 LAB      0.078700
     39 H101        7.2730    2.4790    1.2760 hc        1 LAB      0.057200
     40 H102        7.7180    1.0090    2.2180 hc        1 LAB      0.057200
     41 H91         7.1100    2.9510    4.2370 hc        1 LAB      0.050700
     42 H92         7.8890    3.9300    2.9440 hc        1 LAB      0.050700
     43 H8          9.9150    2.6540    3.0180 hc        1 LAB      0.049700
     44 H201       10.0720    0.8140    4.9560 hc        1 LAB      0.036367
     45 H202        8.3100    0.5930    4.5960 hc        1 LAB      0.036367
     46 H203        9.5330    0.3920    3.2820 hc        1 LAB      0.036367
     47 H7         10.4280    3.9820    4.7850 ha        1 LAB      0.118000
     48 H6          9.4270    4.1350    6.9410 ha        1 LAB      0.117000
     49 H51         7.5490    1.8260    6.0440 hc        1 LAB      0.048700
     50 H52         8.2390    2.0880    7.6940 hc        1 LAB      0.048700
     51 H41         7.0550    4.3630    7.7550 hc        1 LAB      0.070200
     52 H42         6.2760    3.9510    6.1750 hc        1 LAB      0.070200
     53 H191        5.6950    3.7320    9.7580 hc        1 LAB      0.054367
     54 H192        5.0730    2.0280    9.8150 hc        1 LAB      0.054367
     55 H193        6.8460    2.3420    9.5790 hc        1 LAB      0.054367
     56 H2          3.8470    1.5930    7.8630 ha        1 LAB      0.159000
@<TRIPOS>BOND
     1    1    2 2   
     2    2    3 1   
     3    2    6 1   
     4    3    4 1   
     5    3   28 1   
     6    4    5 1   
     7    4    7 1   
     8    4   29 1   
     9    5    6 1   
    10    5   30 1   
    11    5   31 1   
    12    7    8 1   
    13    7    9 1   
    14    7   14 1   
    15    8   32 1   
    16    9   10 1   
    17    9   33 1   
    18    9   34 1   
    19   10   11 1   
    20   10   12 1   
    21   10   35 1   
    22   11   26 1   
    23   12   13 1   
    24   12   36 1   
    25   12   37 1   
    26   13   14 1   
    27   13   15 1   
    28   13   38 1   
    29   15   16 1   
    30   15   39 1   
    31   15   40 1   
    32   16   17 1   
    33   16   41 1   
    34   16   42 1   
    35   17   18 1   
    36   17   19 1   
    37   17   43 1   
    38   18   44 1   
    39   18   45 1   
    40   18   46 1   
    41   19   20 2   
    42   19   47 1   
    43   20   21 1   
    44   20   48 1   
    45   21   22 1   
    46   21   49 1   
    47   21   50 1   
    48   22   23 1   
    49   22   51 1   
    50   22   52 1   
    51   23   24 1   
    52   23   25 2   
    53   24   53 1   
    54   24   54 1   
    55   24   55 1   
    56   25   26 1   
    57   25   56 1   
    58   26   27 2   
@<TRIPOS>SUBSTRUCTURE
     1 LAB         1 TEMP              0 ****  ****    0 ROOT
