@<TRIPOS>MOLECULE
LAC
   11    10     1     0     0
SMALL
bcc


@<TRIPOS>ATOM
      1 C1          0.1000    0.1380   -0.1470 c         1 LAC      0.892600
      2 C2          1.6420    0.1320    0.0150 c3        1 LAC      0.013100
      3 C3          2.0190   -0.0570    1.4710 c3        1 LAC     -0.089100
      4 O1         -0.4080   -0.8370   -0.7750 o         1 LAC     -0.840300
      5 O2          2.2520   -0.8840   -0.7670 oh        1 LAC     -0.651800
      6 OXT        -0.5520    1.0990    0.3430 o         1 LAC     -0.840300
      7 H2          2.0560    1.1060   -0.3660 h1        1 LAC      0.031700
      8 H31         1.4990    0.7170    2.0850 hc        1 LAC      0.020033
      9 H32         1.7070   -1.0690    1.8210 hc        1 LAC      0.020033
     10 H33         3.1220    0.0380    1.6100 hc        1 LAC      0.020033
     11 HO2         1.5400   -1.4730   -1.0640 ho        1 LAC      0.422000
@<TRIPOS>BOND
     1    1    2 1   
     2    1    4 1   
     3    1    6 1   
     4    2    3 1   
     5    2    5 1   
     6    2    7 1   
     7    3    8 1   
     8    3    9 1   
     9    3   10 1   
    10    5   11 1   
@<TRIPOS>SUBSTRUCTURE
     1 LAC         1 TEMP              0 ****  ****    0 ROOT
