@<TRIPOS>MOLECULE
LAC
   11    10     1     0     0
SMALL
bcc


@<TRIPOS>ATOM
      1 C1          0.0910    0.1180   -0.1340 c         1 LAC      0.892600
      2 C2          1.6340    0.1390    0.0140 c3        1 LAC      0.013100
      3 C3          2.0280   -0.0510    1.4650 c3        1 LAC     -0.089100
      4 O1         -0.4050   -0.8620   -0.7640 o         1 LAC     -0.840300
      5 O2          2.2560   -0.8610   -0.7800 oh        1 LAC     -0.651800
      6 OXT        -0.5730    1.0640    0.3680 o         1 LAC     -0.840300
      7 H2          2.0280    1.1220   -0.3650 h1        1 LAC      0.031700
      8 H31         1.7370   -1.0710    1.8110 hc        1 LAC      0.020033
      9 H32         3.1310    0.0620    1.5950 hc        1 LAC      0.020033
     10 H33         1.5000    0.7090    2.0880 hc        1 LAC      0.020033
     11 HO2         1.5510   -1.4610   -1.0740 ho        1 LAC      0.422000
@<TRIPOS>BOND
     1    1    2 1   
     2    1    4 1   
     3    1    6 1   
     4    2    3 1   
     5    2    5 1   
     6    2    7 1   
     7    3    8 1   
     8    3    9 1   
     9    3   10 1   
    10    5   11 1   
@<TRIPOS>SUBSTRUCTURE
     1 LAC         1 TEMP              0 ****  ****    0 ROOT
