@<TRIPOS>MOLECULE
LAD
   60    62     1     0     0
SMALL
bcc


@<TRIPOS>ATOM
      1 N           2.4630   -0.5450   -0.2680 n3        1 LAD     -0.931800
      2 CA          3.1670   -0.3970    0.9840 c3        1 LAD      0.110500
      3 CB          2.2980   -0.1800    2.2350 c3        1 LAD     -0.122400
      4 CG          1.5500    1.1350    2.1870 c3        1 LAD     -0.077400
      5 CD          0.7860    1.3430    3.4820 c3        1 LAD     -0.110400
      6 CE          0.0250    2.6620    3.4210 c3        1 LAD      0.099800
      7 NZ         -0.7550    2.9360    4.6640 n4        1 LAD     -0.838600
      8 C           4.0430   -1.6270    1.2510 c         1 LAD      0.728100
      9 O           3.9500   -2.3950    2.1990 o         1 LAD     -0.459000
     10 PA          5.3860   -2.5720   -0.9240 p5        1 LAD      1.732500
     11 O5'         5.7920   -1.4240   -1.9650 os        1 LAD     -0.595200
     12 C5'         7.1390   -1.3340   -2.3710 c3        1 LAD      0.167400
     13 C4'         7.3310   -1.7900   -3.8250 c3        1 LAD      0.106100
     14 O4'         8.7360   -2.0210   -4.0180 os        1 LAD     -0.399600
     15 C1'         9.0220   -3.4020   -4.2520 c3        1 LAD      0.208800
     16 N9          9.7820   -3.9710   -3.1510 na        1 LAD     -0.272000
     17 C4         11.1750   -4.1660   -3.1690 ca        1 LAD      0.462800
     18 N3         12.1180   -3.9250   -4.1100 nb        1 LAD     -0.618000
     19 C2         13.3770   -4.2820   -3.7390 ca        1 LAD      0.673900
     20 N1         13.7930   -4.8440   -2.5690 nb        1 LAD     -0.678000
     21 C6         12.8380   -5.0850   -1.6350 ca        1 LAD      0.512200
     22 N6         13.2180   -5.7130   -0.3560 n4        1 LAD     -0.814300
     23 C5         11.4870   -4.7660   -1.8500 ca        1 LAD     -0.131200
     24 N7         10.3190   -4.8920   -1.0940 nc        1 LAD     -0.592100
     25 C8          9.3370   -4.4120   -1.8830 cd        1 LAD      0.508700
     26 C2'         7.6670   -4.1310   -4.5240 c3        1 LAD      0.086100
     27 O2'         7.6070   -4.5680   -5.8560 oh        1 LAD     -0.565800
     28 C3'         6.5830   -3.0800   -4.2040 c3        1 LAD      0.093100
     29 O3'         5.8040   -2.7970   -5.3460 oh        1 LAD     -0.581800
     30 O1A         3.9290   -2.9060   -1.4250 oh        1 LAD     -0.769400
     31 O2A         6.3940   -3.6180   -0.9030 o         1 LAD     -0.823300
     32 O3A         5.1210   -1.7680    0.4340 os        1 LAD     -0.640500
     33 H2A         2.1060    0.3330   -0.5870 hn        1 LAD      0.376300
     34 H1          1.7240   -1.2170   -0.2020 hn        1 LAD      0.376300
     35 HA          3.8780    0.4800    0.8800 h1        1 LAD      0.098700
     36 HB2         1.5770   -1.0330    2.3450 hc        1 LAD      0.076700
     37 HB1         2.9710   -0.2030    3.1350 hc        1 LAD      0.076700
     38 HG2         2.2730    1.9790    2.0320 hc        1 LAD      0.056700
     39 HG1         0.8330    1.1410    1.3230 hc        1 LAD      0.056700
     40 HD2         1.5080    1.3470    4.3430 hc        1 LAD      0.076200
     41 HD1         0.0750    0.4870    3.6360 hc        1 LAD      0.076200
     42 HE2        -0.7020    2.6510    2.5570 hx        1 LAD      0.115200
     43 HE1         0.7470    3.5180    3.2740 hx        1 LAD      0.115200
     44 HZ2        -1.4420    2.1900    4.8230 hn        1 LAD      0.465800
     45 HZ1        -1.2500    3.8310    4.5780 hn        1 LAD      0.465800
     46 H5'2        7.4300   -0.2480   -2.2990 h1        1 LAD      0.070200
     47 H5'1        7.7850   -1.9510   -1.6870 h1        1 LAD      0.070200
     48 H4'         7.0620   -0.9560   -4.5340 h1        1 LAD      0.122700
     49 H1'         9.6860   -3.4200   -5.1710 h2        1 LAD      0.139700
     50 H2         14.1810   -4.0930   -4.4900 h5        1 LAD      0.102100
     51 H62        12.8380   -6.6670   -0.3350 hn        1 LAD      0.477800
     52 H61        12.8040   -5.1680    0.4110 hn        1 LAD      0.477800
     53 H8          8.2660   -4.3670   -1.5780 h5        1 LAD      0.154800
     54 H2'         7.5390   -5.0640   -3.9100 h1        1 LAD      0.114700
     55 H2O1        7.5640   -3.7880   -6.4320 ho        1 LAD      0.431000
     56 H3'         5.9310   -3.4280   -3.3550 h1        1 LAD      0.050700
     57 H3O1        5.3580   -3.6190   -5.6000 ho        1 LAD      0.432000
     58 HN3         3.4740   -2.2630   -1.9720 ho        1 LAD      0.512000
     59 HZ3        -0.1280    2.9780    5.4740 hn        1 LAD      0.465800
     60 H63        14.2400   -5.7480   -0.2480 hn        1 LAD      0.477800
@<TRIPOS>BOND
     1    1    2 1   
     2    1   33 1   
     3    1   34 1   
     4    2    3 1   
     5    2    8 1   
     6    2   35 1   
     7    3    4 1   
     8    3   36 1   
     9    3   37 1   
    10    4    5 1   
    11    4   38 1   
    12    4   39 1   
    13    5    6 1   
    14    5   40 1   
    15    5   41 1   
    16    6    7 1   
    17    6   42 1   
    18    6   43 1   
    19    7   44 1   
    20    7   45 1   
    21    7   59 1   
    22    8    9 2   
    23    8   32 1   
    24   10   11 1   
    25   10   30 1   
    26   10   31 2   
    27   10   32 1   
    28   11   12 1   
    29   12   13 1   
    30   12   46 1   
    31   12   47 1   
    32   13   14 1   
    33   13   28 1   
    34   13   48 1   
    35   14   15 1   
    36   15   16 1   
    37   15   26 1   
    38   15   49 1   
    39   16   17 1   
    40   16   25 1   
    41   17   18 ar  
    42   17   23 ar  
    43   18   19 ar  
    44   19   20 ar  
    45   19   50 1   
    46   20   21 ar  
    47   21   22 1   
    48   21   23 ar  
    49   22   51 1   
    50   22   52 1   
    51   22   60 1   
    52   23   24 1   
    53   24   25 2   
    54   25   53 1   
    55   26   27 1   
    56   26   28 1   
    57   26   54 1   
    58   27   55 1   
    59   28   29 1   
    60   28   56 1   
    61   29   57 1   
    62   30   58 1   
@<TRIPOS>SUBSTRUCTURE
     1 LAD         1 TEMP              0 ****  ****    0 ROOT
