@<TRIPOS>MOLECULE
LAD
   57    59     1     0     0
SMALL
bcc


@<TRIPOS>ATOM
      1 N          -1.6010   -0.8500    6.1990 n3        1 LAD     -0.895800
      2 CA         -1.2280   -0.5600    4.8270 c3        1 LAD      0.114500
      3 CB          0.2330   -0.1160    4.6720 c3        1 LAD     -0.074400
      4 CG          0.5090    1.1770    5.4060 c3        1 LAD     -0.074400
      5 CD          1.9150    1.6650    5.1260 c3        1 LAD     -0.087400
      6 CE          2.2120    2.9180    5.9480 c3        1 LAD      0.155800
      7 NZ          3.5150    3.4900    5.6970 n3        1 LAD     -0.916800
      8 C          -1.4810   -1.7170    3.8700 c         1 LAD      0.631100
      9 O          -1.9960   -2.8130    4.1510 o         1 LAD     -0.599000
     10 PA         -1.4620   -2.9340    1.6250 p5        1 LAD      1.435800
     11 O5'        -0.7820   -2.1830    0.3050 os        1 LAD     -0.558200
     12 C5'        -1.4930   -1.1360   -0.2590 c3        1 LAD      0.172400
     13 C4'        -0.7970    0.2090   -0.0090 c3        1 LAD      0.065100
     14 O4'         0.5730    0.2250   -0.4500 os        1 LAD     -0.396600
     15 C1'         0.6590    0.6850   -1.8010 c3        1 LAD      0.217800
     16 N9          1.0060   -0.4070   -2.6810 na        1 LAD     -0.282000
     17 C4          1.6160   -0.2760   -3.9380 ca        1 LAD      0.441800
     18 N3          1.9460    0.8300   -4.6720 nb        1 LAD     -0.716000
     19 C2          2.5330    0.5180   -5.8480 ca        1 LAD      0.660900
     20 N1          2.8300   -0.6960   -6.3900 nb        1 LAD     -0.799000
     21 C6          2.4870   -1.8100   -5.6650 ca        1 LAD      0.726200
     22 N6          2.6730   -3.0800   -6.1810 nh        1 LAD     -0.944500
     23 C5          1.8770   -1.6420   -4.3810 ca        1 LAD     -0.213200
     24 N7          1.4630   -2.5520   -3.3970 nc        1 LAD     -0.571100
     25 C8          0.9680   -1.8000   -2.4030 cd        1 LAD      0.449700
     26 C2'        -0.7060    1.3890   -2.1320 c3        1 LAD      0.082100
     27 O2'        -0.4940    2.6910   -2.6120 oh        1 LAD     -0.570800
     28 C3'        -1.4950    1.3290   -0.8000 c3        1 LAD      0.078100
     29 O3'        -1.4440    2.5780   -0.1370 oh        1 LAD     -0.596800
     30 O1A        -2.9090   -2.9120    1.3720 o         1 LAD     -0.789500
     31 O2A        -0.5360   -4.0060    1.9930 o         1 LAD     -0.789500
     32 O3A        -1.1510   -1.5580    2.5950 os        1 LAD     -0.534500
     33 H2A        -0.9470   -1.4940    6.6030 hn        1 LAD      0.353300
     34 H1         -2.5080   -1.2820    6.2110 hn        1 LAD      0.353300
     35 HA         -1.8950    0.2860    4.4780 h1        1 LAD      0.078700
     36 HB2         0.4310    0.0130    3.5730 hc        1 LAD      0.062200
     37 HB1         0.9190   -0.9210    5.0430 hc        1 LAD      0.062200
     38 HG2         0.3740    1.0260    6.5090 hc        1 LAD      0.043200
     39 HG1        -0.2300    1.9580    5.0870 hc        1 LAD      0.043200
     40 HD2         2.0280    1.8870    4.0330 hc        1 LAD      0.047200
     41 HD1         2.6510    0.8580    5.3800 hc        1 LAD      0.047200
     42 HE2         2.0620    2.6610    7.0400 h1        1 LAD      0.023700
     43 HE1         1.4500    3.7100    5.6920 h1        1 LAD      0.023700
     44 HZ2         3.7870    4.0790    6.4580 hn        1 LAD      0.343300
     45 HZ1         4.2050    2.7750    5.5760 hn        1 LAD      0.343300
     46 H5'2       -1.5500   -1.3060   -1.3730 h1        1 LAD      0.044700
     47 H5'1       -2.5370   -1.0870    0.1660 h1        1 LAD      0.044700
     48 H4'        -0.7300    0.4150    1.0950 h1        1 LAD      0.111700
     49 H1'         1.5030    1.4380   -1.8280 h2        1 LAD      0.093700
     50 H2          2.8250    1.3860   -6.4760 h5        1 LAD      0.040100
     51 H62         3.2860   -3.1900   -6.9520 hn        1 LAD      0.427800
     52 H61         2.6170   -3.8300   -5.5330 hn        1 LAD      0.427800
     53 H8          0.5690   -2.1720   -1.4360 h5        1 LAD      0.139800
     54 H2'        -1.2630    0.8610   -2.9520 h1        1 LAD      0.102700
     55 H2O1       -0.3350    3.2700   -1.8540 ho        1 LAD      0.407000
     56 H3'        -2.5850    1.1300   -0.9710 h1        1 LAD      0.104700
     57 H3O1       -0.6140    2.6110    0.3560 ho        1 LAD      0.407000
@<TRIPOS>BOND
     1    1    2 1   
     2    1   33 1   
     3    1   34 1   
     4    2    3 1   
     5    2    8 1   
     6    2   35 1   
     7    3    4 1   
     8    3   36 1   
     9    3   37 1   
    10    4    5 1   
    11    4   38 1   
    12    4   39 1   
    13    5    6 1   
    14    5   40 1   
    15    5   41 1   
    16    6    7 1   
    17    6   42 1   
    18    6   43 1   
    19    7   44 1   
    20    7   45 1   
    21    8    9 2   
    22    8   32 1   
    23   10   11 1   
    24   10   30 1   
    25   10   31 1   
    26   10   32 1   
    27   11   12 1   
    28   12   13 1   
    29   12   46 1   
    30   12   47 1   
    31   13   14 1   
    32   13   28 1   
    33   13   48 1   
    34   14   15 1   
    35   15   16 1   
    36   15   26 1   
    37   15   49 1   
    38   16   17 1   
    39   16   25 1   
    40   17   18 ar  
    41   17   23 ar  
    42   18   19 ar  
    43   19   20 ar  
    44   19   50 1   
    45   20   21 ar  
    46   21   22 1   
    47   21   23 ar  
    48   22   51 1   
    49   22   52 1   
    50   23   24 1   
    51   24   25 2   
    52   25   53 1   
    53   26   27 1   
    54   26   28 1   
    55   26   54 1   
    56   27   55 1   
    57   28   29 1   
    58   28   56 1   
    59   29   57 1   
@<TRIPOS>SUBSTRUCTURE
     1 LAD         1 TEMP              0 ****  ****    0 ROOT
