@<TRIPOS>MOLECULE
LAD
   59    61     1     0     0
SMALL
bcc


@<TRIPOS>ATOM
      1 N           2.0610   -0.4380   -0.6220 n8        1 LAD     -0.919800
      2 CA          2.4390   -0.9850    0.6590 c3        1 LAD      0.101500
      3 CB          1.5680   -0.5880    1.8630 c3        1 LAD     -0.123400
      4 CG          1.7140    0.8780    2.2050 c3        1 LAD     -0.076400
      5 CD          0.9600    1.1850    3.4870 c3        1 LAD     -0.111400
      6 CE          1.1270    2.6590    3.8340 c3        1 LAD      0.099800
      7 NZ          0.4290    3.0310    5.1020 nz        1 LAD     -0.839600
      8 C           2.4390   -2.5180    0.5930 c         1 LAD      0.728100
      9 O           1.5860   -3.2520    1.0800 o         1 LAD     -0.474000
     10 PA          3.9850   -3.4600   -1.4290 p5        1 LAD      1.701500
     11 O5'         5.0160   -2.2810   -1.7500 os        1 LAD     -0.604200
     12 C5'         6.3830   -2.5940   -1.9150 c3        1 LAD      0.154400
     13 C4'         6.8000   -2.2910   -3.3600 c3        1 LAD      0.106100
     14 O4'         8.0930   -1.6720   -3.3420 os        1 LAD     -0.410600
     15 C1'         9.0950   -2.5340   -3.8980 c3        1 LAD      0.229800
     16 N9         10.0850   -2.8370   -2.8910 na        1 LAD     -0.295000
     17 C4         11.1410   -3.7500   -3.0340 ca        1 LAD      0.456800
     18 N3         11.4420   -4.6150   -4.0490 nb        1 LAD     -0.769000
     19 C2         12.5640   -5.3340   -3.8010 ca        1 LAD      0.698900
     20 N1         13.3950   -5.3160   -2.7280 nb        1 LAD     -0.790000
     21 C6         13.0950   -4.4500   -1.6990 ca        1 LAD      0.770200
     22 N6         13.8750   -4.3930   -0.5780 nv        1 LAD     -0.954500
     23 C5         11.9330   -3.6130   -1.8190 ca        1 LAD     -0.231200
     24 N7         11.3670   -2.6370   -0.9850 nc        1 LAD     -0.544100
     25 C8         10.2890   -2.1930   -1.6440 cd        1 LAD      0.415700
     26 C2'         8.3780   -3.7970   -4.4790 c3        1 LAD      0.088100
     27 O2'         8.6230   -3.8870   -5.8630 oh        1 LAD     -0.595800
     28 C3'         6.8720   -3.5460   -4.2530 c3        1 LAD      0.120100
     29 O3'         6.1420   -3.2540   -5.4270 oh        1 LAD     -0.595800
     30 O1A         2.7240   -2.9250   -2.2200 oh        1 LAD     -0.764400
     31 O2A         4.5070   -4.7930   -1.6200 o         1 LAD     -0.770300
     32 O3A         3.5520   -3.0870    0.0830 os        1 LAD     -0.617500
     33 H2A         2.1520    0.5580   -0.6280 hn        1 LAD      0.370800
     34 H1          2.7860   -2.0620   -2.6300 ho        1 LAD      0.504000
     35 HA          3.5050   -0.6600    0.8650 h1        1 LAD      0.094700
     36 HB2         1.8820   -1.2160    2.7400 hc        1 LAD      0.073700
     37 HB1         0.4940   -0.8360    1.6520 hc        1 LAD      0.073700
     38 HG2         2.7990    1.1330    2.3320 hc        1 LAD      0.056200
     39 HG1         1.3120    1.5120    1.3710 hc        1 LAD      0.056200
     40 HD2         1.3600    0.5400    4.3150 hc        1 LAD      0.074700
     41 HD1        -0.1250    0.9330    3.3490 hc        1 LAD      0.074700
     42 HE2         0.7030    3.3030    3.0090 hx        1 LAD      0.114200
     43 HE1         2.2210    2.9070    3.9610 hx        1 LAD      0.114200
     44 HZ2        -0.5750    2.8390    5.0210 hn        1 LAD      0.463467
     45 HZ1         0.8030    2.4800    5.8830 hn        1 LAD      0.463467
     46 H5'2        6.5590   -3.6720   -1.6460 h1        1 LAD      0.071700
     47 H5'1        6.9640   -1.9210   -1.2220 h1        1 LAD      0.071700
     48 H4'         6.1100   -1.5210   -3.8080 h1        1 LAD      0.110700
     49 H1'         9.5860   -1.9400   -4.7280 h2        1 LAD      0.106700
     50 H2         12.8550   -6.0520   -4.5990 h5        1 LAD      0.056100
     51 H62        13.6640   -3.7240    0.1190 hn        1 LAD      0.452300
     52 H61        14.6980   -4.9380   -0.5050 hn        1 LAD      0.452300
     53 H8          9.5980   -1.4110   -1.3050 h5        1 LAD      0.078800
     54 H2'         8.6930   -4.7400   -3.9560 h1        1 LAD      0.086700
     55 H2O1        9.4940   -4.2950   -5.9720 ho        1 LAD      0.444000
     56 H3'         6.4070   -4.4430   -3.7570 h1        1 LAD      0.081700
     57 H3O1        6.5160   -3.7720   -6.1530 ho        1 LAD      0.439000
     58 HN3         1.1310   -0.7030   -0.8810 hn        1 LAD      0.370800
     59 HZ3         0.5650    4.0270    5.3000 hn        1 LAD      0.463467
@<TRIPOS>BOND
     1    1    2 1   
     2    1   33 1   
     3    1   58 1   
     4    2    3 1   
     5    2    8 1   
     6    2   35 1   
     7    3    4 1   
     8    3   36 1   
     9    3   37 1   
    10    4    5 1   
    11    4   38 1   
    12    4   39 1   
    13    5    6 1   
    14    5   40 1   
    15    5   41 1   
    16    6    7 1   
    17    6   42 1   
    18    6   43 1   
    19    7   44 1   
    20    7   45 1   
    21    7   59 1   
    22    8    9 2   
    23    8   32 1   
    24   10   11 1   
    25   10   30 1   
    26   10   31 2   
    27   10   32 1   
    28   11   12 1   
    29   12   13 1   
    30   12   46 1   
    31   12   47 1   
    32   13   14 1   
    33   13   28 1   
    34   13   48 1   
    35   14   15 1   
    36   15   16 1   
    37   15   26 1   
    38   15   49 1   
    39   16   17 1   
    40   16   25 1   
    41   17   18 ar  
    42   17   23 ar  
    43   18   19 ar  
    44   19   20 ar  
    45   19   50 1   
    46   20   21 ar  
    47   21   22 1   
    48   21   23 ar  
    49   22   51 1   
    50   22   52 1   
    51   23   24 1   
    52   24   25 2   
    53   25   53 1   
    54   26   27 1   
    55   26   28 1   
    56   26   54 1   
    57   27   55 1   
    58   28   29 1   
    59   28   56 1   
    60   29   57 1   
    61   30   34 1   
@<TRIPOS>SUBSTRUCTURE
     1 LAD         1 TEMP              0 ****  ****    0 ROOT
