@<TRIPOS>MOLECULE
LAD
   57    53     1     0     0
SMALL
bcc


@<TRIPOS>ATOM
      1 N          -3.1720    2.0600   -0.6160 n3        1 LAD     -0.327000
      2 CA         -3.5730    2.4480    0.6970 c3        1 LAD     -0.026000
      3 CB         -5.0270    2.8770    0.6850 c3        1 LAD     -0.154000
      4 CG         -5.2310    3.9810   -0.3720 c3        1 LAD     -0.153000
      5 CD         -6.7060    4.2240   -0.5550 c3        1 LAD     -0.164000
      6 CE         -6.9330    5.2380   -1.7580 c3        1 LAD     -0.083000
      7 NZ         -8.4000    5.4540   -1.9540 n3        1 LAD     -0.348000
      8 C          -3.3840    1.2340    1.6810 c2        1 LAD      0.301000
      9 O          -4.2620    0.4920    1.8690 o         1 LAD     -0.401000
     10 PA         -1.6480   -0.4130    2.6180 p3        1 LAD      2.551000
     11 O5'        -0.0800   -0.4740    2.4140 o         1 LAD     -0.721000
     12 C5'         0.4650   -1.5170    1.6220 c3        1 LAD      0.030000
     13 C4'         1.7620   -1.0110    0.9120 c3        1 LAD     -0.010000
     14 O4'         2.8070   -1.7560    1.2540 os        1 LAD     -0.272000
     15 C1'         3.7410   -1.8030   -0.0100 c3        1 LAD      0.133000
     16 N9          4.5510   -2.9800    0.0330 n3        1 LAD     -0.192000
     17 C4          5.8770   -2.9810   -0.1240 c1        1 LAD      0.050000
     18 N3          6.7610   -2.0050   -0.5140 n1        1 LAD     -0.219000
     19 C2          8.1200   -2.2910   -0.6050 c1        1 LAD      0.011000
     20 N1          8.5610   -3.5060   -0.3160 n1        1 LAD     -0.272000
     21 C6          7.6810   -4.4810    0.0730 c1        1 LAD      0.216000
     22 N6          8.3820   -5.7500    0.2410 n2        1 LAD     -0.342000
     23 C5          6.3200   -4.1950    0.1660 c1        1 LAD     -0.223000
     24 N7          5.2330   -4.9730    0.5150 n1        1 LAD     -0.140000
     25 C8          4.1700   -4.2390    0.4330 c1        1 LAD     -0.014000
     26 C2'         2.9180   -1.8470   -1.0900 c3        1 LAD     -0.033000
     27 O2'         3.5020   -1.1130   -2.2060 oh        1 LAD     -0.326000
     28 C3'         1.6360   -1.1670   -0.6360 c3        1 LAD      0.004000
     29 O3'         1.5140    0.0460   -1.2220 oh        1 LAD     -0.323000
     30 O1A        -2.3240   -1.3710    1.6550 o         1 LAD     -1.123000
     31 O2A        -1.9830   -0.7940    4.0150 o         1 LAD     -1.123000
     32 O3A        -2.1440    1.0460    2.3470 os        1 LAD     -0.681000
     33 H2A        -3.0900    1.2240   -0.6490 hn        1 LAD      0.157500
     34 H1         -2.3750    2.4450   -0.8150 hn        1 LAD      0.157500
     35 HA         -3.0010    3.2200    1.0040 h1        1 LAD      0.112000
     36 HB2        -5.5670    2.1480    0.4800 hc        1 LAD      0.097500
     37 HB1        -5.2590    3.2050    1.5180 hc        1 LAD      0.097500
     38 HG2        -4.8320    3.6950   -1.2310 hc        1 LAD      0.084500
     39 HG1        -4.7900    4.8300   -0.0620 hc        1 LAD      0.084500
     40 HD2        -7.1400    3.3960   -0.7470 hc        1 LAD      0.084000
     41 HD1        -7.1030    4.6310    0.3210 hc        1 LAD      0.084000
     42 HE2        -6.5060    6.0770   -1.5540 h1        1 LAD      0.064000
     43 HE1        -6.5490    4.8660   -2.5760 h1        1 LAD      0.064000
     44 HZ2        -8.5980    6.3160   -1.8250 hn        1 LAD      0.137000
     45 HZ1        -8.6340    5.2070   -2.7990 hn        1 LAD      0.137000
     46 H5'2       -0.2140   -1.8030    0.9250 h1        1 LAD      0.079500
     47 H5'1        0.6690   -2.2180    2.1510 h1        1 LAD      0.079500
     48 H4'         1.9340   -0.0200    1.1560 h1        1 LAD      0.154000
     49 H1'         4.3350   -0.9620   -0.0440 h2        1 LAD      0.131000
     50 H2          8.8220   -1.5140   -0.9160 ha        1 LAD      0.180000
     51 H62         8.6410   -6.0060    1.0400 hn        1 LAD      0.226500
     52 H61         8.6600   -6.2430   -0.5290 hn        1 LAD      0.226500
     53 H8          3.5830   -4.7000    0.9990 DU        1 LAD      0.226000
     54 H2'         2.7270   -2.8570   -1.3690 h1        1 LAD      0.112000
     55 H2O1        3.4350   -1.5960   -2.9350 ho        1 LAD      0.223000
     56 H3'         0.8180   -1.7630   -0.8670 h1        1 LAD      0.163000
     57 H3O1        0.8970   -0.0100   -1.9280 ho        1 LAD      0.212000
@<TRIPOS>BOND
     1    1    2 1   
     2    1   33 1   
     3    1   34 1   
     4    2    3 1   
     5    2    8 1   
     6    2   35 1   
     7    3    4 1   
     8    3   36 1   
     9    3   37 1   
    10    4    5 1   
    11    4   38 1   
    12    4   39 1   
    13    5    6 1   
    14    5   40 1   
    15    5   41 1   
    16    6    7 1   
    17    6   42 1   
    18    6   43 1   
    19    7   44 1   
    20    7   45 1   
    21    8    9 1   
    22    8   32 1   
    23   10   30 1   
    24   10   31 1   
    25   10   32 1   
    26   11   12 1   
    27   12   13 1   
    28   12   46 1   
    29   12   47 1   
    30   13   14 1   
    31   13   28 1   
    32   13   48 1   
    33   14   15 1   
    34   15   16 1   
    35   15   26 1   
    36   15   49 1   
    37   16   17 1   
    38   16   25 1   
    39   17   23 1   
    40   18   19 1   
    41   19   50 1   
    42   20   21 1   
    43   21   23 1   
    44   22   51 1   
    45   22   52 1   
    46   24   25 1   
    47   26   27 1   
    48   26   28 1   
    49   26   54 1   
    50   27   55 1   
    51   28   29 1   
    52   28   56 1   
    53   29   57 1   
@<TRIPOS>SUBSTRUCTURE
     1 LAD         1 TEMP              0 ****  ****    0 ROOT
