@<TRIPOS>MOLECULE
LAD
   59    61     1     0     0
SMALL
bcc


@<TRIPOS>ATOM
      1 N           2.0750   -0.3900   -0.6200 n3        1 LAD     -0.919800
      2 CA          2.4430   -0.9600    0.6550 c3        1 LAD      0.101500
      3 CB          1.5760   -0.5670    1.8630 c3        1 LAD     -0.123400
      4 CG          1.7420    0.8920    2.2250 c3        1 LAD     -0.076400
      5 CD          0.9920    1.1920    3.5110 c3        1 LAD     -0.111400
      6 CE          1.1790    2.6570    3.8780 c3        1 LAD      0.099800
      7 NZ          0.4860    3.0210    5.1510 n4        1 LAD     -0.839600
      8 C           2.4210   -2.4920    0.5670 c         1 LAD      0.728100
      9 O           1.5570   -3.2200    1.0420 o         1 LAD     -0.474000
     10 PA          3.9610   -3.4270   -1.4620 p5        1 LAD      1.701500
     11 O5'         5.0090   -2.2570   -1.7630 os        1 LAD     -0.604200
     12 C5'         6.3730   -2.5860   -1.9270 c3        1 LAD      0.154400
     13 C4'         6.8000   -2.2710   -3.3660 c3        1 LAD      0.106100
     14 O4'         8.1010   -1.6680   -3.3350 os        1 LAD     -0.410600
     15 C1'         9.0940   -2.5350   -3.8960 c3        1 LAD      0.229800
     16 N9         10.0760   -2.8630   -2.8890 na        1 LAD     -0.295000
     17 C4         11.1210   -3.7880   -3.0380 ca        1 LAD      0.456800
     18 N3         11.4150   -4.6440   -4.0620 nb        1 LAD     -0.769000
     19 C2         12.5270   -5.3800   -3.8180 ca        1 LAD      0.698900
     20 N1         13.3540   -5.3850   -2.7410 nb        1 LAD     -0.790000
     21 C6         13.0600   -4.5280   -1.7030 ca        1 LAD      0.770200
     22 N6         13.8360   -4.4940   -0.5780 nh        1 LAD     -0.954500
     23 C5         11.9090   -3.6750   -1.8180 ca        1 LAD     -0.231200
     24 N7         11.3520   -2.7020   -0.9740 nc        1 LAD     -0.544100
     25 C8         10.2820   -2.2370   -1.6340 cd        1 LAD      0.415700
     26 C2'         8.3640   -3.7820   -4.4960 c3        1 LAD      0.088100
     27 O2'         8.6140   -3.8590   -5.8800 oh        1 LAD     -0.595800
     28 C3'         6.8600   -3.5150   -4.2740 c3        1 LAD      0.120100
     29 O3'         6.1400   -3.1990   -5.4480 oh        1 LAD     -0.595800
     30 O1A         2.7110   -2.8650   -2.2500 oh        1 LAD     -0.764400
     31 O2A         4.4670   -4.7640   -1.6710 o         1 LAD     -0.770300
     32 O3A         3.5280   -3.0700    0.0530 os        1 LAD     -0.617500
     33 H2A         2.1810    0.6040   -0.6120 hn        1 LAD      0.370800
     34 H1          2.7850   -1.9970   -2.6470 ho        1 LAD      0.504000
     35 HA          3.5130   -0.6530    0.8660 h1        1 LAD      0.094700
     36 HB2         1.8790   -1.2120    2.7310 hc        1 LAD      0.073700
     37 HB1         0.4990   -0.7970    1.6460 hc        1 LAD      0.073700
     38 HG2         2.8310    1.1290    2.3570 hc        1 LAD      0.056200
     39 HG1         1.3510    1.5430    1.4000 hc        1 LAD      0.056200
     40 HD2        -0.0970    0.9570    3.3680 hc        1 LAD      0.074700
     41 HD1         1.3820    0.5290    4.3290 hc        1 LAD      0.074700
     42 HE2         2.2760    2.8880    4.0090 hx        1 LAD      0.114200
     43 HE1         0.7640    3.3190    3.0620 hx        1 LAD      0.114200
     44 HZ2        -0.5210    2.8440    5.0670 hn        1 LAD      0.463467
     45 HZ1         0.8510    2.4550    5.9250 hn        1 LAD      0.463467
     46 H5'2        6.5340   -3.6700   -1.6710 h1        1 LAD      0.071700
     47 H5'1        6.9600   -1.9300   -1.2230 h1        1 LAD      0.071700
     48 H4'         6.1220   -1.4860   -3.8070 h1        1 LAD      0.110700
     49 H1'         9.5970   -1.9380   -4.7170 h2        1 LAD      0.106700
     50 H2         12.8140   -6.0920   -4.6230 h5        1 LAD      0.056100
     51 H62        13.6300   -3.8300    0.1260 hn        1 LAD      0.452300
     52 H61        14.6520   -5.0500   -0.5080 hn        1 LAD      0.452300
     53 H8          9.5990   -1.4510   -1.2880 h5        1 LAD      0.078800
     54 H2'         8.6650   -4.7350   -3.9830 h1        1 LAD      0.086700
     55 H2O1        9.4810   -4.2770   -5.9890 ho        1 LAD      0.444000
     56 H3'         6.3820   -4.4120   -3.7920 h1        1 LAD      0.081700
     57 H3O1        6.5110   -3.7130   -6.1780 ho        1 LAD      0.439000
     58 HN3         1.1430   -0.6380   -0.8840 hn        1 LAD      0.370800
     59 HZ3         0.6350    4.0130    5.3630 hn        1 LAD      0.463467
@<TRIPOS>BOND
     1    1    2 1   
     2    1   33 1   
     3    1   58 1   
     4    2    3 1   
     5    2    8 1   
     6    2   35 1   
     7    3    4 1   
     8    3   36 1   
     9    3   37 1   
    10    4    5 1   
    11    4   38 1   
    12    4   39 1   
    13    5    6 1   
    14    5   40 1   
    15    5   41 1   
    16    6    7 1   
    17    6   42 1   
    18    6   43 1   
    19    7   44 1   
    20    7   45 1   
    21    7   59 1   
    22    8    9 2   
    23    8   32 1   
    24   10   11 1   
    25   10   30 1   
    26   10   31 2   
    27   10   32 1   
    28   11   12 1   
    29   12   13 1   
    30   12   46 1   
    31   12   47 1   
    32   13   14 1   
    33   13   28 1   
    34   13   48 1   
    35   14   15 1   
    36   15   16 1   
    37   15   26 1   
    38   15   49 1   
    39   16   17 1   
    40   16   25 1   
    41   17   18 ar  
    42   17   23 ar  
    43   18   19 ar  
    44   19   20 ar  
    45   19   50 1   
    46   20   21 ar  
    47   21   22 1   
    48   21   23 ar  
    49   22   51 1   
    50   22   52 1   
    51   23   24 1   
    52   24   25 2   
    53   25   53 1   
    54   26   27 1   
    55   26   28 1   
    56   26   54 1   
    57   27   55 1   
    58   28   29 1   
    59   28   56 1   
    60   29   57 1   
    61   30   34 1   
@<TRIPOS>SUBSTRUCTURE
     1 LAD         1 TEMP              0 ****  ****    0 ROOT
