@<TRIPOS>MOLECULE
LAE
   36    36     1     0     0
SMALL
bcc


@<TRIPOS>ATOM
      1 C1          0.8160    0.4540   -2.8060 c3        1 LAE      0.021700
      2 C2         -0.3890    1.3880   -2.6430 c         1 LAE      0.685600
      3 O3         -1.2460    1.3100   -3.7180 os        1 LAE     -0.405900
      4 C4         -0.7720    0.3330   -4.6650 c3        1 LAE      0.119400
      5 C5          0.4780   -0.3320   -4.0930 c3        1 LAE     -0.127400
      6 O10        -0.6970    2.1720   -1.7560 o         1 LAE     -0.552500
      7 N11         1.0700   -0.3620   -1.6560 n         1 LAE     -0.553900
      8 C13         2.1650   -0.1430   -0.8390 c         1 LAE      0.674100
      9 C14         2.2760   -0.9730    0.4270 c3        1 LAE     -0.268400
     10 C15         1.0120   -1.0110    1.2470 c         1 LAE      0.577100
     11 C18         1.1450   -0.4700    2.6380 c3        1 LAE     -0.177400
     12 C19        -0.1340   -0.5910    3.4370 c3        1 LAE     -0.076400
     13 C22         0.0410   -0.0270    4.8300 c3        1 LAE     -0.079400
     14 C25        -1.2380   -0.1470    5.6320 c3        1 LAE     -0.079400
     15 C28        -1.0730    0.4120    7.0210 c3        1 LAE     -0.093100
     16 O35         3.0680    0.6570   -1.1500 o         1 LAE     -0.594100
     17 O36        -0.0370   -1.4800    0.7930 o         1 LAE     -0.537100
     18 H11         1.7230    1.1100   -2.9900 h1        1 LAE      0.125700
     19 H41        -0.5640    0.8850   -5.6160 h1        1 LAE      0.065700
     20 H42        -1.6140   -0.3900   -4.8160 h1        1 LAE      0.065700
     21 H51         1.3290   -0.2670   -4.8130 hc        1 LAE      0.072200
     22 H52         0.2860   -1.4140   -3.8880 hc        1 LAE      0.072200
     23 H111        0.3210   -0.9270   -1.3190 hn        1 LAE      0.338500
     24 H141        3.1230   -0.5490    1.0300 hc        1 LAE      0.099200
     25 H142        2.5480   -2.0240    0.1360 hc        1 LAE      0.099200
     26 H181        1.4520    0.6090    2.5650 hc        1 LAE      0.074200
     27 H182        1.9760   -1.0200    3.1570 hc        1 LAE      0.074200
     28 H191       -0.4390   -1.6690    3.4940 hc        1 LAE      0.056700
     29 H192       -0.9580   -0.0480    2.9030 hc        1 LAE      0.056700
     30 H221        0.3430    1.0510    4.7660 hc        1 LAE      0.039700
     31 H222        0.8670   -0.5730    5.3580 hc        1 LAE      0.039700
     32 H251       -1.5420   -1.2260    5.6920 hc        1 LAE      0.042200
     33 H252       -2.0630    0.3980    5.1010 hc        1 LAE      0.042200
     34 H281       -2.0260    0.3140    7.5940 hc        1 LAE      0.033367
     35 H282       -0.2710   -0.1350    7.5740 hc        1 LAE      0.033367
     36 H283       -0.7950    1.4930    6.9810 hc        1 LAE      0.033367
@<TRIPOS>BOND
     1    1    2 1   
     2    1    5 1   
     3    1    7 1   
     4    1   18 1   
     5    2    3 1   
     6    2    6 2   
     7    3    4 1   
     8    4    5 1   
     9    4   19 1   
    10    4   20 1   
    11    5   21 1   
    12    5   22 1   
    13    7    8 1   
    14    7   23 1   
    15    8    9 1   
    16    8   16 2   
    17    9   10 1   
    18    9   24 1   
    19    9   25 1   
    20   10   11 1   
    21   10   17 2   
    22   11   12 1   
    23   11   26 1   
    24   11   27 1   
    25   12   13 1   
    26   12   28 1   
    27   12   29 1   
    28   13   14 1   
    29   13   30 1   
    30   13   31 1   
    31   14   15 1   
    32   14   32 1   
    33   14   33 1   
    34   15   34 1   
    35   15   35 1   
    36   15   36 1   
@<TRIPOS>SUBSTRUCTURE
     1 LAE         1 TEMP              0 ****  ****    0 ROOT
