@<TRIPOS>MOLECULE
LAE
   37    37     1     0     0
SMALL
bcc


@<TRIPOS>ATOM
      1 C1          0.1520   -0.4810   -0.9560 c3        1 LAE      0.007500
      2 C2          1.4910   -0.8480   -0.2870 c         1 LAE      0.698600
      3 O3          1.7520   -0.0370    0.7730 os        1 LAE     -0.348900
      4 C4          0.6590    0.8890    0.9880 c3        1 LAE      0.116400
      5 C5         -0.4730    0.5260    0.0200 c3        1 LAE     -0.132400
      6 O10         2.2590   -1.7480   -0.5840 o         1 LAE     -0.510500
      7 N11        -0.6380   -1.7190   -1.2340 n4        1 LAE     -0.658800
      8 C13        -1.9530   -1.4380   -1.9340 c         1 LAE      0.564100
      9 C14        -2.1170   -1.9780   -3.3230 c3        1 LAE     -0.289400
     10 C15        -0.9970   -1.6620   -4.2900 c         1 LAE      0.595100
     11 C18        -1.3430   -1.8330   -5.7350 c3        1 LAE     -0.178400
     12 C19        -2.0140   -0.5880   -6.2860 c3        1 LAE     -0.073400
     13 C22        -2.3460   -0.7710   -7.7530 c3        1 LAE     -0.081400
     14 C25        -3.0200    0.4630   -8.3150 c3        1 LAE     -0.079400
     15 C28        -3.3520    0.2880   -9.7740 c3        1 LAE     -0.096100
     16 O35        -2.7880   -0.8280   -1.2850 o         1 LAE     -0.399100
     17 O36         0.1100   -1.3070   -3.8750 o         1 LAE     -0.549100
     18 H11         0.3730    0.0030   -1.9580 hx        1 LAE      0.162700
     19 H41         1.0690    1.9150    0.8000 h1        1 LAE      0.102200
     20 H42         0.3660    0.7730    2.0620 h1        1 LAE      0.102200
     21 H51        -0.8270    1.4340   -0.5310 hc        1 LAE      0.100200
     22 H52        -1.3500    0.1050    0.5750 hc        1 LAE      0.100200
     23 H111       -0.0460   -2.3190   -1.8340 hn        1 LAE      0.476300
     24 H141       -2.2390   -3.0980   -3.2680 hc        1 LAE      0.145200
     25 H142       -3.0830   -1.5560   -3.7310 hc        1 LAE      0.145200
     26 H181       -2.0200   -2.7200   -5.8600 hc        1 LAE      0.093700
     27 H182       -0.3990   -2.0340   -6.3130 hc        1 LAE      0.093700
     28 H191       -1.3320    0.2950   -6.1630 hc        1 LAE      0.049700
     29 H192       -2.9550   -0.3740   -5.7130 hc        1 LAE      0.049700
     30 H221       -1.4050   -0.9800   -8.3290 hc        1 LAE      0.051700
     31 H222       -3.0200   -1.6590   -7.8810 hc        1 LAE      0.051700
     32 H251       -2.3440    1.3500   -8.1860 hc        1 LAE      0.042200
     33 H252       -3.9580    0.6740   -7.7370 hc        1 LAE      0.042200
     34 H281       -4.0440   -0.5770   -9.9210 hc        1 LAE      0.042700
     35 H282       -2.4270    0.1020  -10.3710 hc        1 LAE      0.042700
     36 H283       -3.8480    1.2070  -10.1690 hc        1 LAE      0.042700
     37 H112       -0.8280   -2.2040   -0.3480 hn        1 LAE      0.476300
@<TRIPOS>BOND
     1    1    2 1   
     2    1    5 1   
     3    1    7 1   
     4    1   18 1   
     5    2    3 1   
     6    2    6 2   
     7    3    4 1   
     8    4    5 1   
     9    4   19 1   
    10    4   20 1   
    11    5   21 1   
    12    5   22 1   
    13    7    8 1   
    14    7   23 1   
    15    7   37 1   
    16    8    9 1   
    17    8   16 2   
    18    9   10 1   
    19    9   24 1   
    20    9   25 1   
    21   10   11 1   
    22   10   17 2   
    23   11   12 1   
    24   11   26 1   
    25   11   27 1   
    26   12   13 1   
    27   12   28 1   
    28   12   29 1   
    29   13   14 1   
    30   13   30 1   
    31   13   31 1   
    32   14   15 1   
    33   14   32 1   
    34   14   33 1   
    35   15   34 1   
    36   15   35 1   
    37   15   36 1   
@<TRIPOS>SUBSTRUCTURE
     1 LAE         1 TEMP              0 ****  ****    0 ROOT
