@<TRIPOS>MOLECULE
LAE
   37    37     1     0     0
SMALL
bcc


@<TRIPOS>ATOM
      1 C1         -0.4340   -0.4940   -0.8290 c3        1 LAE     -0.008500
      2 C2          0.9620   -0.7780   -1.4090 c         1 LAE      0.706600
      3 O3          1.9100   -0.0030   -0.8250 os        1 LAE     -0.341900
      4 C4          1.3210    0.8210    0.2150 c3        1 LAE      0.116400
      5 C5         -0.1350    0.3800    0.4010 c3        1 LAE     -0.130400
      6 O10         1.2690   -1.6010   -2.2600 o         1 LAE     -0.541500
      7 N11        -1.1800   -1.7560   -0.5540 n4        1 LAE     -0.668800
      8 C13        -2.2420   -2.0750   -1.6060 c         1 LAE      0.572100
      9 C14        -1.7740   -2.3270   -3.0030 c3        1 LAE     -0.290400
     10 C15        -2.0450   -1.1330   -3.9110 c         1 LAE      0.602100
     11 C18        -2.2430   -1.4870   -5.3460 c3        1 LAE     -0.170400
     12 C19        -2.1140   -0.2850   -6.2590 c3        1 LAE     -0.077400
     13 C22        -2.3920   -0.6710   -7.6960 c3        1 LAE     -0.080400
     14 C25        -2.2530    0.5240   -8.6150 c3        1 LAE     -0.078400
     15 C28        -2.5310    0.1490  -10.0480 c3        1 LAE     -0.096100
     16 O35        -3.3770   -2.1070   -1.1650 o         1 LAE     -0.387100
     17 O36        -2.0680    0.0040   -3.4350 o         1 LAE     -0.531100
     18 H11        -1.0240    0.1110   -1.5920 hx        1 LAE      0.179700
     19 H41         1.4050    1.8830   -0.1320 h1        1 LAE      0.106700
     20 H42         1.9490    0.6530    1.1270 h1        1 LAE      0.106700
     21 H51        -0.8170    1.2680    0.4260 hc        1 LAE      0.098200
     22 H52        -0.2540   -0.1720    1.3680 hc        1 LAE      0.098200
     23 H111       -1.6420   -1.6800    0.3650 hn        1 LAE      0.465300
     24 H141       -0.6690   -2.5530   -3.0600 hc        1 LAE      0.142700
     25 H142       -2.3360   -3.2270   -3.3850 hc        1 LAE      0.142700
     26 H181       -3.2710   -1.9360   -5.4520 hc        1 LAE      0.088700
     27 H182       -1.4990   -2.2760   -5.6410 hc        1 LAE      0.088700
     28 H191       -1.0800    0.1430   -6.1720 hc        1 LAE      0.061200
     29 H192       -2.8300    0.5140   -5.9300 hc        1 LAE      0.061200
     30 H221       -1.6790   -1.4760   -8.0170 hc        1 LAE      0.045200
     31 H222       -3.4290   -1.0910   -7.7810 hc        1 LAE      0.045200
     32 H251       -2.9630    1.3300   -8.2910 hc        1 LAE      0.044200
     33 H252       -1.2150    0.9440   -8.5300 hc        1 LAE      0.044200
     34 H281       -1.8170   -0.6360  -10.3970 hc        1 LAE      0.040367
     35 H282       -2.4220    1.0430  -10.7080 hc        1 LAE      0.040367
     36 H283       -3.5690   -0.2470  -10.1590 hc        1 LAE      0.040367
     37 H112       -0.5180   -2.5430   -0.5230 hn        1 LAE      0.465300
@<TRIPOS>BOND
     1    1    2 1   
     2    1    5 1   
     3    1    7 1   
     4    1   18 1   
     5    2    3 1   
     6    2    6 2   
     7    3    4 1   
     8    4    5 1   
     9    4   19 1   
    10    4   20 1   
    11    5   21 1   
    12    5   22 1   
    13    7    8 1   
    14    7   23 1   
    15    7   37 1   
    16    8    9 1   
    17    8   16 2   
    18    9   10 1   
    19    9   24 1   
    20    9   25 1   
    21   10   11 1   
    22   10   17 2   
    23   11   12 1   
    24   11   26 1   
    25   11   27 1   
    26   12   13 1   
    27   12   28 1   
    28   12   29 1   
    29   13   14 1   
    30   13   30 1   
    31   13   31 1   
    32   14   15 1   
    33   14   32 1   
    34   14   33 1   
    35   15   34 1   
    36   15   35 1   
    37   15   36 1   
@<TRIPOS>SUBSTRUCTURE
     1 LAE         1 TEMP              0 ****  ****    0 ROOT
