@<TRIPOS>MOLECULE
LAE
   36    36     1     0     0
SMALL
bcc


@<TRIPOS>ATOM
      1 C1          1.8210    1.2530    3.7570 c3        1 LAE      0.021700
      2 C2          3.1010    1.2840    3.6970 c         1 LAE      0.685600
      3 O3          3.6050    0.4880    4.9850 os        1 LAE     -0.405900
      4 C4          2.3860    0.3770    5.9310 c3        1 LAE      0.119400
      5 C5          1.5280    1.1420    5.4690 c3        1 LAE     -0.127400
      6 O10         3.7640    1.5400    2.7110 o         1 LAE     -0.552500
      7 N11         1.2100    0.1670    2.9720 n         1 LAE     -0.553900
      8 C13         0.6800    0.4350    1.6830 c         1 LAE      0.674100
      9 C14         0.0380   -0.6770    0.8840 c3        1 LAE     -0.268400
     10 C15         0.0290   -0.3030   -0.5820 c         1 LAE      0.577100
     11 C18        -1.1650   -0.6520   -1.4440 c3        1 LAE     -0.177400
     12 C19        -0.7860   -0.5310   -2.9040 c3        1 LAE     -0.076400
     13 C22        -2.0220   -0.6910   -3.7610 c3        1 LAE     -0.079400
     14 C25        -1.6310   -0.6490   -5.2220 c3        1 LAE     -0.079400
     15 C28        -2.8660   -0.4300   -6.0690 c3        1 LAE     -0.093100
     16 O35         0.7310    1.5600    1.2280 o         1 LAE     -0.594100
     17 O36         0.9830    0.2700   -1.0690 o         1 LAE     -0.537100
     18 H11         1.4100    2.0480    3.3590 h1        1 LAE      0.125700
     19 H41         2.0490   -0.5430    5.9410 h1        1 LAE      0.065700
     20 H42         2.6350    0.6570    6.8370 h1        1 LAE      0.065700
     21 H51         0.6320    0.7780    5.6320 hc        1 LAE      0.072200
     22 H52         1.6100    2.0270    5.8810 hc        1 LAE      0.072200
     23 H111        1.1690   -0.6760    3.3160 hn        1 LAE      0.338500
     24 H141        0.5470   -1.5030    1.0070 hc        1 LAE      0.099200
     25 H142       -0.8810   -0.8110    1.1920 hc        1 LAE      0.099200
     26 H181       -1.9000   -0.0380   -1.2470 hc        1 LAE      0.074200
     27 H182       -1.4470   -1.5690   -1.2560 hc        1 LAE      0.074200
     28 H191       -0.3880    0.3480   -3.0660 hc        1 LAE      0.056700
     29 H192       -0.1390   -1.2280   -3.1320 hc        1 LAE      0.056700
     30 H221       -2.6470    0.0370   -3.5700 hc        1 LAE      0.039700
     31 H222       -2.4480   -1.5480   -3.5620 hc        1 LAE      0.039700
     32 H251       -1.0000    0.0830   -5.3710 hc        1 LAE      0.042200
     33 H252       -1.2110   -1.4970   -5.4720 hc        1 LAE      0.042200
     34 H281       -3.3560    0.3500   -5.7350 hc        1 LAE      0.033367
     35 H282       -2.6010   -0.2760   -7.0000 hc        1 LAE      0.033367
     36 H283       -3.4410   -1.2230   -6.0190 hc        1 LAE      0.033367
@<TRIPOS>BOND
     1    1    2 1   
     2    1    5 1   
     3    1    7 1   
     4    1   18 1   
     5    2    3 1   
     6    2    6 2   
     7    3    4 1   
     8    4    5 1   
     9    4   19 1   
    10    4   20 1   
    11    5   21 1   
    12    5   22 1   
    13    7    8 1   
    14    7   23 1   
    15    8    9 1   
    16    8   16 2   
    17    9   10 1   
    18    9   24 1   
    19    9   25 1   
    20   10   11 1   
    21   10   17 2   
    22   11   12 1   
    23   11   26 1   
    24   11   27 1   
    25   12   13 1   
    26   12   28 1   
    27   12   29 1   
    28   13   14 1   
    29   13   30 1   
    30   13   31 1   
    31   14   15 1   
    32   14   32 1   
    33   14   33 1   
    34   15   34 1   
    35   15   35 1   
    36   15   36 1   
@<TRIPOS>SUBSTRUCTURE
     1 LAE         1 TEMP              0 ****  ****    0 ROOT
