@<TRIPOS>MOLECULE
LAE
   37    37     1     0     0
SMALL
bcc


@<TRIPOS>ATOM
      1 C1         -0.3930   -0.5140   -0.8370 c3        1 LAE     -0.008500
      2 C2          0.9320   -1.0480   -1.4080 c         1 LAE      0.706600
      3 O3          2.0000   -0.4170   -0.8590 os        1 LAE     -0.341900
      4 C4          1.5650    0.5330    0.1480 c3        1 LAE      0.116400
      5 C5          0.0580    0.3470    0.3560 c3        1 LAE     -0.130400
      6 O10         1.0900   -1.9430   -2.2250 o         1 LAE     -0.541500
      7 N11        -1.3350   -1.6240   -0.5080 ny        1 LAE     -0.668800
      8 C13        -2.4450   -1.8040   -1.5430 c         1 LAE      0.572100
      9 C14        -2.0370   -2.1860   -2.9300 c3        1 LAE     -0.290400
     10 C15        -2.1160   -1.0010   -3.8850 c         1 LAE      0.602100
     11 C18        -2.3850   -1.3750   -5.3040 c3        1 LAE     -0.170400
     12 C19        -2.0680   -0.2470   -6.2650 c3        1 LAE     -0.077400
     13 C22        -2.4200   -0.6390   -7.6840 c3        1 LAE     -0.080400
     14 C25        -2.0960    0.4800   -8.6520 c3        1 LAE     -0.078400
     15 C28        -2.4460    0.0980  -10.0680 c3        1 LAE     -0.096100
     16 O35        -3.5650   -1.6310   -1.0970 o         1 LAE     -0.387100
     17 O36        -1.9470    0.1420   -3.4560 o         1 LAE     -0.531100
     18 H11        -0.8820    0.1490   -1.6220 hx        1 LAE      0.179700
     19 H41         2.1660    0.3000    1.0640 h1        1 LAE      0.106700
     20 H42         1.8200    1.5520   -0.2430 h1        1 LAE      0.106700
     21 H51        -0.1410   -0.1380    1.3450 hc        1 LAE      0.098200
     22 H52        -0.4670    1.3350    0.3460 hc        1 LAE      0.098200
     23 H111       -1.7680   -1.4350    0.4080 hn        1 LAE      0.465300
     24 H141       -0.9860   -2.5930   -2.9810 hc        1 LAE      0.142700
     25 H142       -2.7440   -2.9950   -3.2730 hc        1 LAE      0.142700
     26 H181       -3.4730   -1.6520   -5.3880 hc        1 LAE      0.089200
     27 H182       -1.7820   -2.2860   -5.5690 hc        1 LAE      0.089200
     28 H191       -0.9780    0.0090   -6.1990 hc        1 LAE      0.061200
     29 H192       -2.6420    0.6710   -5.9680 hc        1 LAE      0.061200
     30 H221       -3.5120   -0.8870   -7.7500 hc        1 LAE      0.045200
     31 H222       -1.8510   -1.5620   -7.9750 hc        1 LAE      0.045200
     32 H251       -2.6630    1.4030   -8.3600 hc        1 LAE      0.044200
     33 H252       -1.0040    0.7270   -8.5870 hc        1 LAE      0.044200
     34 H281       -1.8730   -0.8060  -10.3870 hc        1 LAE      0.040367
     35 H282       -2.2000    0.9360  -10.7640 hc        1 LAE      0.040367
     36 H283       -3.5360   -0.1270  -10.1590 hc        1 LAE      0.040367
     37 H112       -0.8110   -2.5070   -0.4460 hn        1 LAE      0.465300
@<TRIPOS>BOND
     1    1    2 1   
     2    1    5 1   
     3    1    7 1   
     4    1   18 1   
     5    2    3 1   
     6    2    6 2   
     7    3    4 1   
     8    4    5 1   
     9    4   19 1   
    10    4   20 1   
    11    5   21 1   
    12    5   22 1   
    13    7    8 1   
    14    7   23 1   
    15    7   37 1   
    16    8    9 1   
    17    8   16 2   
    18    9   10 1   
    19    9   24 1   
    20    9   25 1   
    21   10   11 1   
    22   10   17 2   
    23   11   12 1   
    24   11   26 1   
    25   11   27 1   
    26   12   13 1   
    27   12   28 1   
    28   12   29 1   
    29   13   14 1   
    30   13   30 1   
    31   13   31 1   
    32   14   15 1   
    33   14   32 1   
    34   14   33 1   
    35   15   34 1   
    36   15   35 1   
    37   15   36 1   
@<TRIPOS>SUBSTRUCTURE
     1 LAE         1 TEMP              0 ****  ****    0 ROOT
