@<TRIPOS>MOLECULE
LAF
   15    14     1     0     0
SMALL
bcc


@<TRIPOS>ATOM
      1 C4         -0.0690    0.5450   -1.4720 c         1 LAF      0.554100
      2 C5          0.7630   -0.7190   -1.5520 c3        1 LAF      0.030900
      3 C3         -0.1410    1.1660   -0.1090 c3        1 LAF     -0.168400
      4 C2         -0.5390    0.1890    0.9720 c3        1 LAF     -0.200400
      5 C1          0.6180   -0.7360    1.3930 c         1 LAF      0.898600
      6 O4         -0.6260    1.0400   -2.4600 o         1 LAF     -0.576100
      7 O1          1.8070   -0.3170    1.2640 o         1 LAF     -0.844800
      8 OH1         0.3170   -1.8770    1.8410 o         1 LAF     -0.844800
      9 F           0.9840   -1.1470   -2.8470 f         1 LAF     -0.258300
     10 H5C1        1.7510   -0.5350   -1.0330 h1        1 LAF      0.107700
     11 H5C2        0.2280   -1.5290   -0.9750 h1        1 LAF      0.107700
     12 H3C1       -0.8550    2.0310   -0.1390 hc        1 LAF      0.063700
     13 H3C2        0.8870    1.5590    0.1370 hc        1 LAF      0.063700
     14 H2C1       -1.4080   -0.4340    0.6450 hc        1 LAF      0.032700
     15 H2C2       -0.8520    0.7620    1.8810 hc        1 LAF      0.032700
@<TRIPOS>BOND
     1    1    2 1   
     2    1    3 1   
     3    1    6 2   
     4    2    9 1   
     5    2   10 1   
     6    2   11 1   
     7    3    4 1   
     8    3   12 1   
     9    3   13 1   
    10    4    5 1   
    11    4   14 1   
    12    4   15 1   
    13    5    7 1   
    14    5    8 1   
@<TRIPOS>SUBSTRUCTURE
     1 LAF         1 TEMP              0 ****  ****    0 ROOT
