@<TRIPOS>MOLECULE
LAF
   15    14     1     0     0
SMALL
bcc


@<TRIPOS>ATOM
      1 C4          0.0860    0.4910   -0.1010 c         1 LAF      0.554100
      2 C5          0.6380   -0.7450    0.5790 c3        1 LAF      0.030900
      3 C3         -1.0470    1.1550    0.6220 c3        1 LAF     -0.168400
      4 C2         -2.1590    0.2020    0.9910 c3        1 LAF     -0.200400
      5 C1         -1.8150   -0.6680    2.2140 c         1 LAF      0.898600
      6 O4          0.5530    0.9340   -1.1580 o         1 LAF     -0.576100
      7 O1         -1.0020   -0.2130    3.0720 o         1 LAF     -0.844800
      8 OH1        -2.3610   -1.8040    2.2920 o         1 LAF     -0.844800
      9 F           1.8080   -1.2080    0.0080 f         1 LAF     -0.258300
     10 H5C1        0.8100   -0.5100    1.6720 h1        1 LAF      0.107700
     11 H5C2       -0.1500   -1.5530    0.5320 h1        1 LAF      0.107700
     12 H3C1       -0.6300    1.5910    1.5740 hc        1 LAF      0.063700
     13 H3C2       -1.4420    1.9930   -0.0100 hc        1 LAF      0.063700
     14 H2C1       -2.4180   -0.4610    0.1280 hc        1 LAF      0.032700
     15 H2C2       -3.0730    0.7950    1.2520 hc        1 LAF      0.032700
@<TRIPOS>BOND
     1    1    2 1   
     2    1    3 1   
     3    1    6 2   
     4    2    9 1   
     5    2   10 1   
     6    2   11 1   
     7    3    4 1   
     8    3   12 1   
     9    3   13 1   
    10    4    5 1   
    11    4   14 1   
    12    4   15 1   
    13    5    7 1   
    14    5    8 1   
@<TRIPOS>SUBSTRUCTURE
     1 LAF         1 TEMP              0 ****  ****    0 ROOT
