@<TRIPOS>MOLECULE
LAF
   15    14     1     0     0
SMALL
bcc


@<TRIPOS>ATOM
      1 C4          0.0310    0.5090   -0.1400 c         1 LAF      0.554100
      2 C5          0.5970   -0.7620    0.4600 c3        1 LAF      0.030900
      3 C3         -1.0380    1.1690    0.6780 c3        1 LAF     -0.168400
      4 C2         -2.1460    0.2270    1.0840 c3        1 LAF     -0.200400
      5 C1         -1.7460   -0.6940    2.2530 c         1 LAF      0.898600
      6 O4          0.4390    0.9800   -1.2090 o         1 LAF     -0.576100
      7 O1         -0.8650   -0.2890    3.0690 o         1 LAF     -0.844800
      8 OH1        -2.3180   -1.8160    2.3320 o         1 LAF     -0.844800
      9 F           1.7160   -1.2290   -0.2030 f         1 LAF     -0.258300
     10 H5C1        0.8450   -0.5700    1.5470 h1        1 LAF      0.107700
     11 H5C2       -0.2100   -1.5520    0.4360 h1        1 LAF      0.107700
     12 H3C1       -0.5520    1.5620    1.6160 hc        1 LAF      0.063700
     13 H3C2       -1.4540    2.0380    0.1020 hc        1 LAF      0.063700
     14 H2C1       -2.4730   -0.4000    0.2180 hc        1 LAF      0.032700
     15 H2C2       -3.0280    0.8280    1.4230 hc        1 LAF      0.032700
@<TRIPOS>BOND
     1    1    2 1   
     2    1    3 1   
     3    1    6 2   
     4    2    9 1   
     5    2   10 1   
     6    2   11 1   
     7    3    4 1   
     8    3   12 1   
     9    3   13 1   
    10    4    5 1   
    11    4   14 1   
    12    4   15 1   
    13    5    7 1   
    14    5    8 1   
@<TRIPOS>SUBSTRUCTURE
     1 LAF         1 TEMP              0 ****  ****    0 ROOT
