@<TRIPOS>MOLECULE
LAH
   33    33     1     0     0
SMALL
bcc


@<TRIPOS>ATOM
      1 CAA         1.4410    0.8620    0.2830 c3        1 LAH     -0.104100
      2 CAL         1.8640   -0.4360   -0.3940 c3        1 LAH      0.188100
      3 CAB         1.6230   -1.6140    0.5410 c3        1 LAH     -0.104100
      4 OAJ         1.1080   -0.6090   -1.5670 os        1 LAH     -0.562200
      5 PAQ         1.9420   -0.7540   -2.9630 p5        1 LAH      1.426800
      6 OAG         1.0120   -0.8760   -4.1020 o         1 LAH     -0.826500
      7 OAC         3.1580    0.0830   -2.9100 o         1 LAH     -0.826500
      8 OAK         2.5250   -2.3080   -2.7580 os        1 LAH     -0.567200
      9 CBO         3.4770   -2.6770   -3.6980 c3        1 LAH      0.121100
     10 CBM         2.9410   -3.8450   -4.5490 c3        1 LAH      0.101100
     11 O14         1.8460   -3.4560   -5.3580 oh        1 LAH     -0.644800
     12 CBL         4.0270   -4.3670   -5.5030 c3        1 LAH      0.110100
     13 O10         4.2580   -3.5000   -6.6010 oh        1 LAH     -0.612800
     14 CBN         5.3590   -4.5790   -4.7770 c3        1 LAH      0.137400
     15 OAX         5.7550   -3.4960   -3.9570 os        1 LAH     -0.446600
     16 C8          4.7670   -3.1310   -2.9850 c3        1 LAH      0.328900
     17 OAH         5.4290   -2.1290   -2.2750 oh        1 LAH     -0.592800
     18 H1          1.9870    0.9790    1.2480 hc        1 LAH      0.029533
     19 H2          0.3430    0.8520    0.4810 hc        1 LAH      0.029533
     20 H3          1.6740    1.7320   -0.3750 hc        1 LAH      0.029533
     21 H4          2.9620   -0.3790   -0.6620 h1        1 LAH      0.062700
     22 H5          1.9460   -2.5630    0.0510 hc        1 LAH      0.029533
     23 H6          0.5380   -1.6940    0.7870 hc        1 LAH      0.029533
     24 H7          2.2040   -1.4720    1.4830 hc        1 LAH      0.029533
     25 H9          3.7290   -1.8100   -4.3810 h1        1 LAH      0.065700
     26 H10         2.6040   -4.6760   -3.8690 h1        1 LAH      0.046700
     27 H11         1.4050   -2.6950   -4.9230 ho        1 LAH      0.473000
     28 H12         3.6860   -5.3560   -5.9270 h1        1 LAH      0.032700
     29 H13         3.4560   -2.9730   -6.7260 ho        1 LAH      0.428000
     30 H14         6.1900   -4.6720   -5.5270 h1        1 LAH      0.041200
     31 H15         5.2860   -5.5130   -4.1570 h1        1 LAH      0.041200
     32 H16         4.5820   -3.9770   -2.2680 h2        1 LAH      0.060700
     33 H17         5.2610   -1.2780   -2.7110 ho        1 LAH      0.444000
@<TRIPOS>BOND
     1    1    2 1   
     2    1   18 1   
     3    1   19 1   
     4    1   20 1   
     5    2    3 1   
     6    2    4 1   
     7    2   21 1   
     8    3   22 1   
     9    3   23 1   
    10    3   24 1   
    11    4    5 1   
    12    5    6 1   
    13    5    7 1   
    14    5    8 1   
    15    8    9 1   
    16    9   10 1   
    17    9   16 1   
    18    9   25 1   
    19   10   11 1   
    20   10   12 1   
    21   10   26 1   
    22   11   27 1   
    23   12   13 1   
    24   12   14 1   
    25   12   28 1   
    26   13   29 1   
    27   14   15 1   
    28   14   30 1   
    29   14   31 1   
    30   15   16 1   
    31   16   17 1   
    32   16   32 1   
    33   17   33 1   
@<TRIPOS>SUBSTRUCTURE
     1 LAH         1 TEMP              0 ****  ****    0 ROOT
