@<TRIPOS>MOLECULE
LAI
   20    19     1     0     0
SMALL
bcc


@<TRIPOS>ATOM
      1 O1          3.5510   -0.0340   -0.2590 oh        1 LAI     -0.614800
      2 C2          2.3610    0.7310   -0.3700 c3        1 LAI      0.093400
      3 C4          1.2080   -0.2350   -0.0800 c3        1 LAI      0.113100
      4 C6         -0.1340    0.5160   -0.1290 c3        1 LAI      0.125100
      5 C8         -1.3080   -0.4540    0.1320 c3        1 LAI     -0.005900
      6 C10        -2.3590   -0.3010   -0.9440 c         1 LAI      0.543900
      7 O14         1.1470   -1.2580   -1.0610 oh        1 LAI     -0.609800
      8 O16        -0.1400    1.5690    0.8120 oh        1 LAI     -0.593800
      9 O18        -1.8220   -0.2360    1.4310 oh        1 LAI     -0.591800
     10 O20        -3.4740    0.1610   -0.7030 o         1 LAI     -0.516100
     11 HO1         4.2860    0.5690   -0.4210 ho        1 LAI      0.412000
     12 H2          2.3530    1.5670    0.3780 h1        1 LAI      0.045700
     13 H2A         2.2690    1.1490   -1.4070 h1        1 LAI      0.045700
     14 H4          1.3540   -0.6990    0.9360 h1        1 LAI      0.057700
     15 H6         -0.2440    1.0240   -1.1280 h1        1 LAI      0.086700
     16 H8         -0.9390   -1.5210    0.1380 h1        1 LAI      0.116700
     17 H10        -2.0490   -0.6330   -1.9580 h4        1 LAI      0.020200
     18 HO14        2.0350   -1.6360   -1.1170 ho        1 LAI      0.429000
     19 HO16       -0.1520    1.1720    1.6960 ho        1 LAI      0.420000
     20 HO18       -2.4470    0.5030    1.3780 ho        1 LAI      0.426000
@<TRIPOS>BOND
     1    1    2 1   
     2    1   11 1   
     3    2    3 1   
     4    2   12 1   
     5    2   13 1   
     6    3    4 1   
     7    3    7 1   
     8    3   14 1   
     9    4    5 1   
    10    4    8 1   
    11    4   15 1   
    12    5    6 1   
    13    5    9 1   
    14    5   16 1   
    15    6   10 2   
    16    6   17 1   
    17    7   18 1   
    18    8   19 1   
    19    9   20 1   
@<TRIPOS>SUBSTRUCTURE
     1 LAI         1 TEMP              0 ****  ****    0 ROOT
