@<TRIPOS>MOLECULE
LAK
   45    46     1     0     0
SMALL
bcc


@<TRIPOS>ATOM
      1 C1          1.7540    0.4500   -0.4600 c3        1 LAK      0.312900
      2 C2          2.5900    1.5240    0.2610 c3        1 LAK      0.087100
      3 C3          4.0510    1.4040   -0.1960 c3        1 LAK      0.111100
      4 C4          4.5590   -0.0260    0.0580 c3        1 LAK      0.123100
      5 C5          3.6060   -1.0440   -0.5850 c3        1 LAK      0.112100
      6 C6          3.9550   -2.4740   -0.1570 c3        1 LAK      0.143400
      7 O1          0.4840    0.4440    0.1530 os        1 LAK     -0.417600
      8 O2          2.1520    2.8220   -0.0920 oh        1 LAK     -0.607800
      9 O3          4.8860    2.2700    0.5530 oh        1 LAK     -0.607800
     10 O4          4.6510   -0.3080    1.4420 oh        1 LAK     -0.590800
     11 O5          2.2430   -0.8580   -0.1980 os        1 LAK     -0.439600
     12 O6          3.1420   -3.4110   -0.8280 oh        1 LAK     -0.600800
     13 C1'        -3.5850    1.4210    0.0700 c3        1 LAK      0.311900
     14 C2'        -4.6470    0.3180   -0.1280 c3        1 LAK      0.052100
     15 C3'        -4.1560   -0.9890    0.5060 c3        1 LAK      0.109100
     16 C4'        -2.7630   -1.3400   -0.0440 c3        1 LAK      0.119100
     17 C5'        -1.8040   -0.1560    0.1790 c3        1 LAK      0.149100
     18 C6'        -0.4530   -0.4330   -0.4790 c3        1 LAK      0.143400
     19 O1'        -3.8900    2.5630   -0.6830 oh        1 LAK     -0.596800
     20 O2'        -5.8530    0.6630    0.5300 oh        1 LAK     -0.600800
     21 O3'        -5.0040   -2.0720    0.1650 oh        1 LAK     -0.606800
     22 O4'        -2.2230   -2.4510    0.6470 oh        1 LAK     -0.592800
     23 O5'        -2.3300    1.0140   -0.4530 os        1 LAK     -0.448600
     24 H1          1.6900    0.6360   -1.5680 h2        1 LAK      0.050700
     25 H2          2.5200    1.3720    1.3740 h1        1 LAK      0.086700
     26 H3          4.1300    1.6570   -1.2890 h1        1 LAK      0.057700
     27 H4          5.5810   -0.1340   -0.4070 h1        1 LAK      0.056700
     28 H5          3.6760   -0.9390   -1.7040 h1        1 LAK      0.052700
     29 H6          5.0060   -2.7120   -0.4690 h1        1 LAK      0.067700
     30 H7          3.8480   -2.5700    0.9560 h1        1 LAK      0.067700
     31 H8          1.2220    2.8800    0.1690 ho        1 LAK      0.429000
     32 H9          4.4770    3.1450    0.5230 ho        1 LAK      0.431000
     33 H10         5.1190    0.4350    1.8490 ho        1 LAK      0.425000
     34 H11         2.2320   -3.2450   -0.5490 ho        1 LAK      0.413000
     35 H12        -3.5160    1.7420    1.1450 h2        1 LAK      0.088700
     36 H13        -4.8450    0.1670   -1.2250 h1        1 LAK      0.061700
     37 H14        -4.1180   -0.8800    1.6260 h1        1 LAK      0.066700
     38 H15        -2.8430   -1.5760   -1.1420 h1        1 LAK      0.060700
     39 H16        -1.6700    0.0350    1.2790 h1        1 LAK      0.081700
     40 H17        -0.4920   -0.2240   -1.5790 h1        1 LAK      0.063200
     41 H18        -0.1530   -1.4970   -0.2860 h1        1 LAK      0.063200
     42 H19        -3.5640    2.4290   -1.5850 ho        1 LAK      0.429000
     43 H20        -6.0900    1.5500    0.2260 ho        1 LAK      0.425000
     44 H21        -5.8950   -1.8240    0.4450 ho        1 LAK      0.429000
     45 H22        -2.8870   -3.1530    0.5970 ho        1 LAK      0.428000
@<TRIPOS>BOND
     1    1    2 1   
     2    1    7 1   
     3    1   11 1   
     4    1   24 1   
     5    2    3 1   
     6    2    8 1   
     7    2   25 1   
     8    3    4 1   
     9    3    9 1   
    10    3   26 1   
    11    4    5 1   
    12    4   10 1   
    13    4   27 1   
    14    5    6 1   
    15    5   11 1   
    16    5   28 1   
    17    6   12 1   
    18    6   29 1   
    19    6   30 1   
    20    7   18 1   
    21    8   31 1   
    22    9   32 1   
    23   10   33 1   
    24   12   34 1   
    25   13   14 1   
    26   13   19 1   
    27   13   23 1   
    28   13   35 1   
    29   14   15 1   
    30   14   20 1   
    31   14   36 1   
    32   15   16 1   
    33   15   21 1   
    34   15   37 1   
    35   16   17 1   
    36   16   22 1   
    37   16   38 1   
    38   17   18 1   
    39   17   23 1   
    40   17   39 1   
    41   18   40 1   
    42   18   41 1   
    43   19   42 1   
    44   20   43 1   
    45   21   44 1   
    46   22   45 1   
@<TRIPOS>SUBSTRUCTURE
     1 LAK         1 TEMP              0 ****  ****    0 ROOT
