@<TRIPOS>MOLECULE
LAL
   18    17     1     0     0
SMALL
bcc


@<TRIPOS>ATOM
      1 CB          2.3120   -1.4170   -0.0330 c3        1 LAL     -0.105100
      2 C           2.7510   -2.0910    2.3260 c         1 LAL      0.928600
      3 O           3.7630   -1.3720    2.5580 o         1 LAL     -0.839800
      4 N           0.9400   -0.3870    1.8260 n3        1 LAL     -0.712600
      5 CA          1.6510   -1.5670    1.3350 c3        1 LAL      0.050500
      6 CH1        -0.2550   -0.0940    1.0700 c3        1 LAL      0.157600
      7 CH2         1.7660    0.7810    2.0110 c3        1 LAL      0.157600
      8 OXT         2.5740   -3.2490    2.7910 o         1 LAL     -0.839800
      9 HB1         2.7470   -2.4010   -0.3310 hc        1 LAL      0.019700
     10 HB2         1.5820   -1.0950   -0.8140 hc        1 LAL      0.019700
     11 HB3         3.1390   -0.6690    0.0240 hc        1 LAL      0.019700
     12 HA          0.8780   -2.3880    1.2650 h1        1 LAL      0.041700
     13 HH11       -0.8290    0.7120    1.5990 h1        1 LAL      0.016700
     14 HH12       -0.8940   -1.0140    1.0150 h1        1 LAL      0.016700
     15 HH13       -0.0590    0.2590    0.0180 h1        1 LAL      0.016700
     16 HH21        1.2030    1.5200    2.6420 h1        1 LAL      0.016700
     17 HH22        2.0390    1.2910    1.0450 h1        1 LAL      0.016700
     18 HH23        2.7130    0.4790    2.5380 h1        1 LAL      0.016700
@<TRIPOS>BOND
     1    1    5 1   
     2    1    9 1   
     3    1   10 1   
     4    1   11 1   
     5    2    3 1   
     6    2    5 1   
     7    2    8 1   
     8    4    5 1   
     9    4    6 1   
    10    4    7 1   
    11    5   12 1   
    12    6   13 1   
    13    6   14 1   
    14    6   15 1   
    15    7   16 1   
    16    7   17 1   
    17    7   18 1   
@<TRIPOS>SUBSTRUCTURE
     1 LAL         1 TEMP              0 ****  ****    0 ROOT
