@<TRIPOS>MOLECULE
LAN
   81    84     1     0     0
SMALL
bcc


@<TRIPOS>ATOM
      1 C6         -0.7870   -0.1990   -1.2290 c2        1 LAN     -0.097400
      2 C5         -2.0140    0.2950   -1.9040 c3        1 LAN     -0.035200
      3 C4         -1.7660    0.8590   -3.2890 c3        1 LAN     -0.073400
      4 C3         -0.6690    0.0780   -3.9960 c3        1 LAN     -0.045700
      5 C25        -0.6330    0.3350   -5.5120 c3        1 LAN     -0.030000
      6 C26        -0.5180    1.7960   -5.9130 c3        1 LAN     -0.084600
      7 C27        -1.9240   -0.2140   -6.1290 c3        1 LAN     -0.084600
      8 C28         0.5330   -0.4800   -6.1160 c3        1 LAN      0.145100
      9 O29         0.6420   -0.1070   -7.4870 oh        1 LAN     -0.599800
     10 C30         1.8530   -0.2550   -5.3920 c3        1 LAN     -0.111400
     11 C31         1.7310   -0.5950   -3.9250 c3        1 LAN     -0.066400
     12 C1          0.6570    0.2400   -3.2230 c3        1 LAN      0.003200
     13 C2          1.1320    1.6850   -3.0960 c3        1 LAN     -0.085100
     14 C24         0.4300   -0.2660   -1.8110 c2        1 LAN     -0.117400
     15 C23         1.6410   -0.7730   -1.0960 c3        1 LAN     -0.033200
     16 C22         1.5170   -1.0170    0.4050 c3        1 LAN     -0.064400
     17 C10         0.3100   -0.3180    1.0010 c3        1 LAN     -0.035000
     18 C11         0.5260    1.1910    0.9510 c3        1 LAN     -0.087100
     19 C7         -0.9430   -0.7340    0.1610 c3        1 LAN     -0.015800
     20 C8         -1.0980   -2.2520    0.0350 c3        1 LAN     -0.081100
     21 C9         -2.0970   -0.2240    1.0310 c3        1 LAN     -0.069400
     22 C21        -1.6180   -0.4190    2.4710 c3        1 LAN     -0.077400
     23 C12        -0.1080   -0.7340    2.4290 c3        1 LAN     -0.053700
     24 C13         0.6430   -0.0850    3.5880 c3        1 LAN     -0.056700
     25 C20         2.1320   -0.3670    3.5190 c3        1 LAN     -0.091100
     26 C14         0.0920   -0.5950    4.9190 c3        1 LAN     -0.078400
     27 C15         0.3650    0.3750    6.0520 c3        1 LAN     -0.046200
     28 C16        -0.1470   -0.1260    7.3490 c2        1 LAN     -0.176200
     29 C17        -0.1510    0.6060    8.4750 c2        1 LAN     -0.125400
     30 C19        -0.6690    0.0670    9.7550 c3        1 LAN     -0.057400
     31 C18         0.3540    1.9990    8.5140 c3        1 LAN     -0.057400
     32 H5C1       -2.7400   -0.5630   -1.9700 hc        1 LAN      0.048200
     33 H5C2       -2.4980    1.0850   -1.2690 hc        1 LAN      0.048200
     34 H4C1       -1.4830    1.9410   -3.2140 hc        1 LAN      0.045200
     35 H4C2       -2.7180    0.8080   -3.8780 hc        1 LAN      0.045200
     36 H3         -0.9300   -1.0210   -3.8930 hc        1 LAN      0.048700
     37 H261       -0.8930    1.9260   -6.9590 hc        1 LAN      0.038367
     38 H262       -1.1190    2.4460   -5.2340 hc        1 LAN      0.038367
     39 H263        0.5430    2.1380   -5.9050 hc        1 LAN      0.038367
     40 H271       -1.8040   -0.2830   -7.2380 hc        1 LAN      0.038367
     41 H272       -2.1560   -1.2310   -5.7320 hc        1 LAN      0.038367
     42 H273       -2.7840    0.4620   -5.9100 hc        1 LAN      0.038367
     43 H28         0.2680   -1.5770   -6.0610 h1        1 LAN      0.030700
     44 H29         1.3950   -0.5910   -7.8440 ho        1 LAN      0.397000
     45 H301        2.1780    0.8100   -5.5210 hc        1 LAN      0.046200
     46 H302        2.6420   -0.9020   -5.8590 hc        1 LAN      0.046200
     47 H311        2.7240   -0.4280   -3.4320 hc        1 LAN      0.043200
     48 H312        1.4760   -1.6820   -3.8160 hc        1 LAN      0.043200
     49 H2C1        2.1440    1.7090   -2.6220 hc        1 LAN      0.038033
     50 H2C2        1.2000    2.1790   -4.0910 hc        1 LAN      0.038033
     51 H2C3        0.4350    2.2720   -2.4510 hc        1 LAN      0.038033
     52 H231        1.9570   -1.7380   -1.5810 hc        1 LAN      0.044200
     53 H232        2.4710   -0.0310   -1.2630 hc        1 LAN      0.044200
     54 H221        1.4490   -2.1180    0.6100 hc        1 LAN      0.041200
     55 H222        2.4540   -0.6550    0.9050 hc        1 LAN      0.041200
     56 H111        1.4550    1.4640    1.5070 hc        1 LAN      0.037367
     57 H112        0.6370    1.5420   -0.1040 hc        1 LAN      0.037367
     58 H113       -0.3360    1.7270    1.4160 hc        1 LAN      0.037367
     59 H8C1       -2.0470   -2.4790   -0.5100 hc        1 LAN      0.036033
     60 H8C2       -0.2510   -2.6930   -0.5420 hc        1 LAN      0.036033
     61 H8C3       -1.1450   -2.7330    1.0400 hc        1 LAN      0.036033
     62 H9C1       -3.0400   -0.7890    0.8330 hc        1 LAN      0.043700
     63 H9C2       -2.2980    0.8580    0.8300 hc        1 LAN      0.043700
     64 H211       -2.1700   -1.2620    2.9550 hc        1 LAN      0.041700
     65 H212       -1.8110    0.5060    3.0690 hc        1 LAN      0.041700
     66 H12         0.0390   -1.8460    2.5230 hc        1 LAN      0.047700
     67 H13         0.4830    1.0290    3.5410 hc        1 LAN      0.050700
     68 H201        2.3180   -1.4360    3.2540 hc        1 LAN      0.034033
     69 H202        2.6240    0.2790    2.7530 hc        1 LAN      0.034033
     70 H203        2.6160   -0.1590    4.5040 hc        1 LAN      0.034033
     71 H141       -1.0150   -0.7550    4.8460 hc        1 LAN      0.043200
     72 H142        0.5530   -1.5900    5.1540 hc        1 LAN      0.043200
     73 H151        1.4720    0.5610    6.1390 hc        1 LAN      0.046700
     74 H152       -0.1090    1.3680    5.8180 hc        1 LAN      0.046700
     75 H16        -0.5330   -1.1580    7.3510 ha        1 LAN      0.122000
     76 H191       -1.4940    0.7170   10.1390 hc        1 LAN      0.040033
     77 H192       -1.0620   -0.9720    9.6380 hc        1 LAN      0.040033
     78 H193        0.1470    0.0510   10.5210 hc        1 LAN      0.040033
     79 H181        1.3810    2.0560    8.0720 hc        1 LAN      0.040033
     80 H182       -0.3150    2.6690    7.9160 hc        1 LAN      0.040033
     81 H183        0.3970    2.3870    9.5610 hc        1 LAN      0.040033
@<TRIPOS>BOND
     1    1    2 1   
     2    1   14 2   
     3    1   19 1   
     4    2    3 1   
     5    2   32 1   
     6    2   33 1   
     7    3    4 1   
     8    3   34 1   
     9    3   35 1   
    10    4    5 1   
    11    4   12 1   
    12    4   36 1   
    13    5    6 1   
    14    5    7 1   
    15    5    8 1   
    16    6   37 1   
    17    6   38 1   
    18    6   39 1   
    19    7   40 1   
    20    7   41 1   
    21    7   42 1   
    22    8    9 1   
    23    8   10 1   
    24    8   43 1   
    25    9   44 1   
    26   10   11 1   
    27   10   45 1   
    28   10   46 1   
    29   11   12 1   
    30   11   47 1   
    31   11   48 1   
    32   12   13 1   
    33   12   14 1   
    34   13   49 1   
    35   13   50 1   
    36   13   51 1   
    37   14   15 1   
    38   15   16 1   
    39   15   52 1   
    40   15   53 1   
    41   16   17 1   
    42   16   54 1   
    43   16   55 1   
    44   17   18 1   
    45   17   19 1   
    46   17   23 1   
    47   18   56 1   
    48   18   57 1   
    49   18   58 1   
    50   19   20 1   
    51   19   21 1   
    52   20   59 1   
    53   20   60 1   
    54   20   61 1   
    55   21   22 1   
    56   21   62 1   
    57   21   63 1   
    58   22   23 1   
    59   22   64 1   
    60   22   65 1   
    61   23   24 1   
    62   23   66 1   
    63   24   25 1   
    64   24   26 1   
    65   24   67 1   
    66   25   68 1   
    67   25   69 1   
    68   25   70 1   
    69   26   27 1   
    70   26   71 1   
    71   26   72 1   
    72   27   28 1   
    73   27   73 1   
    74   27   74 1   
    75   28   29 2   
    76   28   75 1   
    77   29   30 1   
    78   29   31 1   
    79   30   76 1   
    80   30   77 1   
    81   30   78 1   
    82   31   79 1   
    83   31   80 1   
    84   31   81 1   
@<TRIPOS>SUBSTRUCTURE
     1 LAN         1 TEMP              0 ****  ****    0 ROOT
