@<TRIPOS>MOLECULE
LAN
   81    84     1     0     0
SMALL
bcc


@<TRIPOS>ATOM
      1 C6          0.0770    0.1660    0.1560 c2        1 LAN     -0.097400
      2 C5          1.5620    0.1340    0.1660 c3        1 LAN     -0.035200
      3 C4          2.1610   -0.1070    1.5370 c3        1 LAN     -0.073400
      4 C3          1.2910   -1.0610    2.3400 c3        1 LAN     -0.045700
      5 C25         2.0160   -1.6470    3.5630 c3        1 LAN     -0.030000
      6 C26         2.6060   -0.6180    4.5130 c3        1 LAN     -0.084600
      7 C27         3.1650   -2.5340    3.0690 c3        1 LAN     -0.084600
      8 C28         1.0320   -2.5710    4.3160 c3        1 LAN      0.145100
      9 O29         1.6740   -2.9750    5.5220 oh        1 LAN     -0.599800
     10 C30        -0.3010   -1.8990    4.6170 c3        1 LAN     -0.111400
     11 C31        -0.9630   -1.4160    3.3480 c3        1 LAN     -0.066400
     12 C1         -0.0910   -0.4160    2.5830 c3        1 LAN      0.003200
     13 C2         -0.0360    0.9050    3.3440 c3        1 LAN     -0.085100
     14 C24        -0.6990   -0.1100    1.2270 c2        1 LAN     -0.117400
     15 C23        -2.1920   -0.0700    1.1750 c3        1 LAN     -0.033200
     16 C22        -2.8330    0.5120   -0.0810 c3        1 LAN     -0.064400
     17 C10        -1.8510    1.3300   -0.8980 c3        1 LAN     -0.035000
     18 C11        -1.4830    2.5930   -0.1270 c3        1 LAN     -0.087100
     19 C7         -0.5900    0.4410   -1.1550 c3        1 LAN     -0.015800
     20 C8         -0.9350   -0.9190   -1.7700 c3        1 LAN     -0.081100
     21 C9          0.1620    1.2490   -2.2190 c3        1 LAN     -0.069400
     22 C21        -0.9350    1.8840   -3.0760 c3        1 LAN     -0.077400
     23 C12        -2.2770    1.7060   -2.3350 c3        1 LAN     -0.053700
     24 C13        -3.1820    2.9250   -2.4930 c3        1 LAN     -0.056700
     25 C20        -4.4830    2.7600   -1.7310 c3        1 LAN     -0.091100
     26 C14        -3.4880    3.1620   -3.9720 c3        1 LAN     -0.078400
     27 C15        -3.8740    4.6020   -4.2450 c3        1 LAN     -0.046200
     28 C16        -4.1930    4.8310   -5.6740 c2        1 LAN     -0.176200
     29 C17        -4.4290    6.0460   -6.1940 c2        1 LAN     -0.125400
     30 C19        -4.7520    6.2330   -7.6290 c3        1 LAN     -0.057400
     31 C18        -4.3800    7.2800   -5.3730 c3        1 LAN     -0.057400
     32 H5C1        1.8940   -0.6780   -0.5390 hc        1 LAN      0.048200
     33 H5C2        1.9600    1.1030   -0.2410 hc        1 LAN      0.048200
     34 H4C1        3.1910   -0.5330    1.4140 hc        1 LAN      0.045200
     35 H4C2        2.2700    0.8670    2.0810 hc        1 LAN      0.045200
     36 H3          1.0790   -1.9530    1.6730 hc        1 LAN      0.048700
     37 H261        3.4210   -1.0920    5.1160 hc        1 LAN      0.038367
     38 H262        1.8420   -0.2480    5.2370 hc        1 LAN      0.038367
     39 H263        3.0320    0.2460    3.9530 hc        1 LAN      0.038367
     40 H271        4.0160   -1.9090    2.7090 hc        1 LAN      0.038367
     41 H272        2.8290   -3.1980    2.2380 hc        1 LAN      0.038367
     42 H273        3.5290   -3.1720    3.9120 hc        1 LAN      0.038367
     43 H28         0.8450   -3.4860    3.6820 h1        1 LAN      0.030700
     44 H29         1.0380   -3.5190    6.0020 ho        1 LAN      0.397000
     45 H301       -0.9740   -2.6350    5.1300 hc        1 LAN      0.046200
     46 H302       -0.1430   -1.0450    5.3260 hc        1 LAN      0.046200
     47 H311       -1.9440   -0.9400    3.6100 hc        1 LAN      0.043200
     48 H312       -1.1770   -2.2950    2.6830 hc        1 LAN      0.043200
     49 H2C1       -1.0750    1.2510    3.5720 hc        1 LAN      0.038033
     50 H2C2        0.4630    1.6920    2.7280 hc        1 LAN      0.038033
     51 H2C3        0.5170    0.7990    4.3040 hc        1 LAN      0.038033
     52 H231       -2.5760   -1.1190    1.3090 hc        1 LAN      0.044200
     53 H232       -2.5470    0.5280    2.0590 hc        1 LAN      0.044200
     54 H221       -3.7030    1.1520    0.2250 hc        1 LAN      0.041200
     55 H222       -3.2500   -0.3130   -0.7160 hc        1 LAN      0.041200
     56 H111       -0.9900    2.3380    0.8420 hc        1 LAN      0.037367
     57 H112       -2.4020    3.1870    0.0980 hc        1 LAN      0.037367
     58 H113       -0.7870    3.2300   -0.7240 hc        1 LAN      0.037367
     59 H8C1        0.0120   -1.4690   -1.9940 hc        1 LAN      0.036033
     60 H8C2       -1.5360   -1.5360   -1.0610 hc        1 LAN      0.036033
     61 H8C3       -1.5050   -0.7940   -2.7200 hc        1 LAN      0.036033
     62 H9C1        0.7930    2.0410   -1.7440 hc        1 LAN      0.043700
     63 H9C2        0.8330    0.5980   -2.8290 hc        1 LAN      0.043700
     64 H211       -0.7160    2.9690   -3.2390 hc        1 LAN      0.041700
     65 H212       -0.9840    1.3890   -4.0770 hc        1 LAN      0.041700
     66 H12        -2.8270    0.8290   -2.7760 hc        1 LAN      0.047700
     67 H13        -2.6410    3.8290   -2.0940 hc        1 LAN      0.050700
     68 H201       -5.2440    3.4940   -2.0910 hc        1 LAN      0.034033
     69 H202       -4.3290    2.9340   -0.6390 hc        1 LAN      0.034033
     70 H203       -4.8940    1.7310   -1.8710 hc        1 LAN      0.034033
     71 H141       -2.5940    2.9070   -4.5990 hc        1 LAN      0.043200
     72 H142       -4.3190    2.4800   -4.2920 hc        1 LAN      0.043200
     73 H151       -4.7630    4.8870   -3.6180 hc        1 LAN      0.046700
     74 H152       -3.0320    5.2820   -3.9350 hc        1 LAN      0.046700
     75 H16        -4.2340    3.9320   -6.3110 ha        1 LAN      0.122000
     76 H191       -4.0100    6.9250   -8.1010 hc        1 LAN      0.040033
     77 H192       -5.7690    6.6870   -7.7370 hc        1 LAN      0.040033
     78 H193       -4.7360    5.2650   -8.1860 hc        1 LAN      0.040033
     79 H181       -3.3300    7.4790   -5.0390 hc        1 LAN      0.040033
     80 H182       -4.7400    8.1660   -5.9500 hc        1 LAN      0.040033
     81 H183       -5.0160    7.1680   -4.4590 hc        1 LAN      0.040033
@<TRIPOS>BOND
     1    1    2 1   
     2    1   14 2   
     3    1   19 1   
     4    2    3 1   
     5    2   32 1   
     6    2   33 1   
     7    3    4 1   
     8    3   34 1   
     9    3   35 1   
    10    4    5 1   
    11    4   12 1   
    12    4   36 1   
    13    5    6 1   
    14    5    7 1   
    15    5    8 1   
    16    6   37 1   
    17    6   38 1   
    18    6   39 1   
    19    7   40 1   
    20    7   41 1   
    21    7   42 1   
    22    8    9 1   
    23    8   10 1   
    24    8   43 1   
    25    9   44 1   
    26   10   11 1   
    27   10   45 1   
    28   10   46 1   
    29   11   12 1   
    30   11   47 1   
    31   11   48 1   
    32   12   13 1   
    33   12   14 1   
    34   13   49 1   
    35   13   50 1   
    36   13   51 1   
    37   14   15 1   
    38   15   16 1   
    39   15   52 1   
    40   15   53 1   
    41   16   17 1   
    42   16   54 1   
    43   16   55 1   
    44   17   18 1   
    45   17   19 1   
    46   17   23 1   
    47   18   56 1   
    48   18   57 1   
    49   18   58 1   
    50   19   20 1   
    51   19   21 1   
    52   20   59 1   
    53   20   60 1   
    54   20   61 1   
    55   21   22 1   
    56   21   62 1   
    57   21   63 1   
    58   22   23 1   
    59   22   64 1   
    60   22   65 1   
    61   23   24 1   
    62   23   66 1   
    63   24   25 1   
    64   24   26 1   
    65   24   67 1   
    66   25   68 1   
    67   25   69 1   
    68   25   70 1   
    69   26   27 1   
    70   26   71 1   
    71   26   72 1   
    72   27   28 1   
    73   27   73 1   
    74   27   74 1   
    75   28   29 2   
    76   28   75 1   
    77   29   30 1   
    78   29   31 1   
    79   30   76 1   
    80   30   77 1   
    81   30   78 1   
    82   31   79 1   
    83   31   80 1   
    84   31   81 1   
@<TRIPOS>SUBSTRUCTURE
     1 LAN         1 TEMP              0 ****  ****    0 ROOT
