@<TRIPOS>MOLECULE
LAN
   81    84     1     0     0
SMALL
bcc


@<TRIPOS>ATOM
      1 C6          0.0760    0.1660    0.1580 c2        1 LAN     -0.097400
      2 C5          1.5600    0.1340    0.1670 c3        1 LAN     -0.035200
      3 C4          2.1600   -0.1060    1.5380 c3        1 LAN     -0.073400
      4 C3          1.2900   -1.0590    2.3420 c3        1 LAN     -0.045700
      5 C25         2.0160   -1.6430    3.5660 c3        1 LAN     -0.030000
      6 C26         2.6060   -0.6130    4.5150 c3        1 LAN     -0.084600
      7 C27         3.1650   -2.5300    3.0730 c3        1 LAN     -0.084600
      8 C28         1.0320   -2.5660    4.3210 c3        1 LAN      0.145100
      9 O29         1.6740   -2.9690    5.5270 oh        1 LAN     -0.599800
     10 C30        -0.3010   -1.8940    4.6200 c3        1 LAN     -0.111400
     11 C31        -0.9630   -1.4130    3.3510 c3        1 LAN     -0.066400
     12 C1         -0.0910   -0.4140    2.5850 c3        1 LAN      0.003200
     13 C2         -0.0370    0.9080    3.3450 c3        1 LAN     -0.085100
     14 C24        -0.7000   -0.1090    1.2290 c2        1 LAN     -0.117400
     15 C23        -2.1930   -0.0690    1.1770 c3        1 LAN     -0.033200
     16 C22        -2.8340    0.5120   -0.0800 c3        1 LAN     -0.064400
     17 C10        -1.8530    1.3290   -0.8980 c3        1 LAN     -0.035000
     18 C11        -1.4850    2.5920   -0.1280 c3        1 LAN     -0.087100
     19 C7         -0.5920    0.4390   -1.1540 c3        1 LAN     -0.015800
     20 C8         -0.9360   -0.9210   -1.7670 c3        1 LAN     -0.081100
     21 C9          0.1600    1.2460   -2.2190 c3        1 LAN     -0.069400
     22 C21        -0.9380    1.8800   -3.0760 c3        1 LAN     -0.077400
     23 C12        -2.2790    1.7030   -2.3350 c3        1 LAN     -0.053700
     24 C13        -3.1840    2.9220   -2.4950 c3        1 LAN     -0.056700
     25 C20        -4.4850    2.7570   -1.7320 c3        1 LAN     -0.091100
     26 C14        -3.4900    3.1570   -3.9730 c3        1 LAN     -0.078400
     27 C15        -3.8760    4.5970   -4.2480 c3        1 LAN     -0.046200
     28 C16        -4.1950    4.8240   -5.6770 c2        1 LAN     -0.176200
     29 C17        -4.4260    6.0390   -6.2000 c2        1 LAN     -0.125400
     30 C19        -4.7480    6.2240   -7.6350 c3        1 LAN     -0.057400
     31 C18        -4.3690    7.2750   -5.3830 c3        1 LAN     -0.057400
     32 H5C1        1.9580    1.1020   -0.2420 hc        1 LAN      0.048200
     33 H5C2        1.8930   -0.6790   -0.5370 hc        1 LAN      0.048200
     34 H4C1        3.1900   -0.5320    1.4160 hc        1 LAN      0.045200
     35 H4C2        2.2690    0.8690    2.0810 hc        1 LAN      0.045200
     36 H3          1.0790   -1.9520    1.6760 hc        1 LAN      0.048700
     37 H261        1.8420   -0.2420    5.2390 hc        1 LAN      0.038367
     38 H262        3.4210   -1.0860    5.1180 hc        1 LAN      0.038367
     39 H263        3.0310    0.2510    3.9530 hc        1 LAN      0.038367
     40 H271        4.0160   -1.9050    2.7120 hc        1 LAN      0.038367
     41 H272        2.8290   -3.1950    2.2430 hc        1 LAN      0.038367
     42 H273        3.5290   -3.1670    3.9160 hc        1 LAN      0.038367
     43 H28         0.8450   -3.4820    3.6870 h1        1 LAN      0.030700
     44 H29         1.0390   -3.5130    6.0070 ho        1 LAN      0.397000
     45 H301       -0.9740   -2.6310    5.1340 hc        1 LAN      0.046200
     46 H302       -0.1430   -1.0400    5.3280 hc        1 LAN      0.046200
     47 H311       -1.1780   -2.2920    2.6880 hc        1 LAN      0.043200
     48 H312       -1.9440   -0.9370    3.6130 hc        1 LAN      0.043200
     49 H2C1       -1.0750    1.2550    3.5720 hc        1 LAN      0.038033
     50 H2C2        0.5160    0.8030    4.3050 hc        1 LAN      0.038033
     51 H2C3        0.4610    1.6940    2.7280 hc        1 LAN      0.038033
     52 H231       -2.5490    0.5290    2.0610 hc        1 LAN      0.044200
     53 H232       -2.5770   -1.1180    1.3120 hc        1 LAN      0.044200
     54 H221       -3.7040    1.1510    0.2260 hc        1 LAN      0.041200
     55 H222       -3.2510   -0.3150   -0.7130 hc        1 LAN      0.041200
     56 H111       -2.4030    3.1870    0.0960 hc        1 LAN      0.037367
     57 H112       -0.9910    2.3380    0.8410 hc        1 LAN      0.037367
     58 H113       -0.7880    3.2280   -0.7260 hc        1 LAN      0.037367
     59 H8C1       -1.5070   -0.7980   -2.7170 hc        1 LAN      0.036033
     60 H8C2       -1.5380   -1.5370   -1.0570 hc        1 LAN      0.036033
     61 H8C3        0.0100   -1.4720   -1.9910 hc        1 LAN      0.036033
     62 H9C1        0.7910    2.0380   -1.7450 hc        1 LAN      0.043700
     63 H9C2        0.8310    0.5940   -2.8290 hc        1 LAN      0.043700
     64 H211       -0.9860    1.3840   -4.0770 hc        1 LAN      0.041700
     65 H212       -0.7180    2.9640   -3.2410 hc        1 LAN      0.041700
     66 H12        -2.8290    0.8250   -2.7750 hc        1 LAN      0.047700
     67 H13        -2.6430    3.8260   -2.0960 hc        1 LAN      0.050700
     68 H201       -5.2460    3.4910   -2.0930 hc        1 LAN      0.034033
     69 H202       -4.8950    1.7280   -1.8710 hc        1 LAN      0.034033
     70 H203       -4.3310    2.9330   -0.6400 hc        1 LAN      0.034033
     71 H141       -2.5960    2.9000   -4.6000 hc        1 LAN      0.043200
     72 H142       -4.3220    2.4750   -4.2920 hc        1 LAN      0.043200
     73 H151       -4.7650    4.8820   -3.6220 hc        1 LAN      0.046700
     74 H152       -3.0340    5.2770   -3.9390 hc        1 LAN      0.046700
     75 H16        -4.2410    3.9240   -6.3120 ha        1 LAN      0.122000
     76 H191       -4.7370    5.2550   -8.1900 hc        1 LAN      0.040033
     77 H192       -5.7630    6.6820   -7.7440 hc        1 LAN      0.040033
     78 H193       -4.0040    6.9120   -8.1090 hc        1 LAN      0.040033
     79 H181       -3.3170    7.4710   -5.0530 hc        1 LAN      0.040033
     80 H182       -4.7300    8.1610   -5.9590 hc        1 LAN      0.040033
     81 H183       -5.0020    7.1670   -4.4650 hc        1 LAN      0.040033
@<TRIPOS>BOND
     1    1    2 1   
     2    1   14 2   
     3    1   19 1   
     4    2    3 1   
     5    2   32 1   
     6    2   33 1   
     7    3    4 1   
     8    3   34 1   
     9    3   35 1   
    10    4    5 1   
    11    4   12 1   
    12    4   36 1   
    13    5    6 1   
    14    5    7 1   
    15    5    8 1   
    16    6   37 1   
    17    6   38 1   
    18    6   39 1   
    19    7   40 1   
    20    7   41 1   
    21    7   42 1   
    22    8    9 1   
    23    8   10 1   
    24    8   43 1   
    25    9   44 1   
    26   10   11 1   
    27   10   45 1   
    28   10   46 1   
    29   11   12 1   
    30   11   47 1   
    31   11   48 1   
    32   12   13 1   
    33   12   14 1   
    34   13   49 1   
    35   13   50 1   
    36   13   51 1   
    37   14   15 1   
    38   15   16 1   
    39   15   52 1   
    40   15   53 1   
    41   16   17 1   
    42   16   54 1   
    43   16   55 1   
    44   17   18 1   
    45   17   19 1   
    46   17   23 1   
    47   18   56 1   
    48   18   57 1   
    49   18   58 1   
    50   19   20 1   
    51   19   21 1   
    52   20   59 1   
    53   20   60 1   
    54   20   61 1   
    55   21   22 1   
    56   21   62 1   
    57   21   63 1   
    58   22   23 1   
    59   22   64 1   
    60   22   65 1   
    61   23   24 1   
    62   23   66 1   
    63   24   25 1   
    64   24   26 1   
    65   24   67 1   
    66   25   68 1   
    67   25   69 1   
    68   25   70 1   
    69   26   27 1   
    70   26   71 1   
    71   26   72 1   
    72   27   28 1   
    73   27   73 1   
    74   27   74 1   
    75   28   29 2   
    76   28   75 1   
    77   29   30 1   
    78   29   31 1   
    79   30   76 1   
    80   30   77 1   
    81   30   78 1   
    82   31   79 1   
    83   31   80 1   
    84   31   81 1   
@<TRIPOS>SUBSTRUCTURE
     1 LAN         1 TEMP              0 ****  ****    0 ROOT
