@<TRIPOS>MOLECULE
LAP
   71    70     1     0     0
SMALL
bcc


@<TRIPOS>ATOM
      1 O1         -2.2870   -8.2440  -12.5990 os        1 LAP     -0.451900
      2 O2         -4.1860   -9.3220  -13.0770 o         1 LAP     -0.600000
      3 C1         -3.2460   -9.1720  -12.2890 c         1 LAP      0.700100
      4 C2         -2.9890   -9.8330  -10.9720 c3        1 LAP     -0.130400
      5 C3         -4.2020  -10.5730  -10.4490 c3        1 LAP     -0.066400
      6 C4         -4.3420  -11.9290  -11.1080 c3        1 LAP     -0.085400
      7 C5         -5.6630  -12.5840  -10.7680 c3        1 LAP     -0.083400
      8 C6         -5.8480  -13.8730  -11.5400 c3        1 LAP     -0.072400
      9 C7         -7.1390  -14.5660  -11.1610 c3        1 LAP     -0.083400
     10 C8         -7.3320  -15.8430  -11.9520 c3        1 LAP     -0.076400
     11 C9         -8.6300  -16.5280  -11.5830 c3        1 LAP     -0.080400
     12 C10        -8.8220  -17.8050  -12.3710 c3        1 LAP     -0.078400
     13 C11       -10.1200  -18.4910  -12.0020 c3        1 LAP     -0.080400
     14 C12       -10.3160  -19.7630  -12.7850 c3        1 LAP     -0.093100
     15 C13        -2.2870   -7.7220  -13.9340 c3        1 LAP      0.113400
     16 C14        -0.8430   -7.3640  -14.2850 c3        1 LAP      0.115100
     17 C15         0.1290   -8.5470  -14.1470 c3        1 LAP      0.167400
     18 C16        -1.8700  -11.4640  -16.3270 c3        1 LAP      0.196400
     19 C17        -2.9080  -12.5740  -16.5750 c3        1 LAP      0.091800
     20 C18        -4.4920  -11.6810  -14.9020 c3        1 LAP      0.076100
     21 C19        -4.8850  -13.8360  -15.9510 c3        1 LAP      0.076100
     22 C20        -3.0910  -13.5970  -14.3380 c3        1 LAP      0.076100
     23 O3         -0.3880   -6.2780  -13.4970 oh        1 LAP     -0.598800
     24 O4         -0.2730   -9.6060  -14.9640 os        1 LAP     -0.587200
     25 O5          0.8450  -11.5290  -13.6520 o         1 LAP     -0.823500
     26 O6         -0.8150  -11.9450  -15.5720 os        1 LAP     -0.558200
     27 O7         -1.7330  -11.0210  -13.5200 o         1 LAP     -0.823500
     28 N8         -3.8330  -12.9100  -15.4350 n4        1 LAP     -0.582800
     29 P9         -0.4190  -11.0640  -14.2180 p5        1 LAP      1.444800
     30 H21        -2.1330  -10.5470  -11.1430 hc        1 LAP      0.093700
     31 H22        -2.6560   -9.0550  -10.2360 hc        1 LAP      0.093700
     32 H31        -4.0990  -10.7040   -9.3390 hc        1 LAP      0.045700
     33 H32        -5.1260   -9.9650  -10.6350 hc        1 LAP      0.045700
     34 H41        -3.4970  -12.5930  -10.7880 hc        1 LAP      0.049200
     35 H42        -4.2520  -11.7970  -12.2220 hc        1 LAP      0.049200
     36 H51        -5.7070  -12.7940   -9.6670 hc        1 LAP      0.044200
     37 H52        -6.5070  -11.8830  -11.0050 hc        1 LAP      0.044200
     38 H61        -4.9800  -14.5570  -11.3450 hc        1 LAP      0.025200
     39 H62        -5.8540  -13.6510  -12.6410 hc        1 LAP      0.025200
     40 H71        -8.0040  -13.8760  -11.3430 hc        1 LAP      0.045700
     41 H72        -7.1300  -14.8020  -10.0640 hc        1 LAP      0.045700
     42 H81        -7.3290  -15.6100  -13.0490 hc        1 LAP      0.032200
     43 H82        -6.4720  -16.5380  -11.7590 hc        1 LAP      0.032200
     44 H91        -8.6330  -16.7600  -10.4850 hc        1 LAP      0.042700
     45 H92        -9.4900  -15.8340  -11.7750 hc        1 LAP      0.042700
     46 H101       -7.9630  -18.5000  -12.1780 hc        1 LAP      0.037200
     47 H102       -8.8190  -17.5740  -13.4690 hc        1 LAP      0.037200
     48 H111      -10.9790  -17.7940  -12.1940 hc        1 LAP      0.040200
     49 H112      -10.1210  -18.7200  -10.9030 hc        1 LAP      0.040200
     50 H121      -10.3440  -19.5520  -13.8810 hc        1 LAP      0.033367
     51 H122      -11.2780  -20.2520  -12.4960 hc        1 LAP      0.033367
     52 H123       -9.4830  -20.4800  -12.5880 hc        1 LAP      0.033367
     53 H131       -2.6880   -8.4820  -14.6530 h1        1 LAP      0.059200
     54 H132       -2.9340   -6.8070  -13.9350 h1        1 LAP      0.059200
     55 H14        -0.8230   -6.9780  -15.3430 h1        1 LAP      0.083700
     56 H151        0.1730   -8.8760  -13.0710 h1        1 LAP      0.041200
     57 H152        1.1490   -8.1970  -14.4730 h1        1 LAP      0.041200
     58 H161       -1.4900  -11.1860  -17.3550 h1        1 LAP      0.058700
     59 H162       -2.3400  -10.5620  -15.8440 h1        1 LAP      0.058700
     60 H171       -2.3520  -13.5180  -16.8390 hx        1 LAP      0.081200
     61 H172       -3.5560  -12.2580  -17.4390 hx        1 LAP      0.081200
     62 H181       -5.3420  -11.9800  -14.2330 hx        1 LAP      0.101478
     63 H182       -3.7500  -11.0770  -14.2890 hx        1 LAP      0.101478
     64 H183       -4.8730  -11.0660  -15.7550 hx        1 LAP      0.101478
     65 H191       -5.5420  -14.1590  -15.1010 hx        1 LAP      0.101478
     66 H192       -5.5050  -13.3070  -16.7210 hx        1 LAP      0.101478
     67 H193       -4.3990  -14.7360  -16.4100 hx        1 LAP      0.101478
     68 H201       -3.8030  -13.8260  -13.5020 hx        1 LAP      0.101478
     69 H202       -2.6290  -14.5370  -14.7340 hx        1 LAP      0.101478
     70 H203       -2.2830  -12.8960  -13.9570 hx        1 LAP      0.101478
     71 HO3        -0.4280   -6.5640  -12.5750 ho        1 LAP      0.408000
@<TRIPOS>BOND
     1    1    3 1   
     2    1   15 1   
     3    2    3 2   
     4    3    4 1   
     5    4    5 1   
     6    4   30 1   
     7    4   31 1   
     8    5    6 1   
     9    5   32 1   
    10    5   33 1   
    11    6    7 1   
    12    6   34 1   
    13    6   35 1   
    14    7    8 1   
    15    7   36 1   
    16    7   37 1   
    17    8    9 1   
    18    8   38 1   
    19    8   39 1   
    20    9   10 1   
    21    9   40 1   
    22    9   41 1   
    23   10   11 1   
    24   10   42 1   
    25   10   43 1   
    26   11   12 1   
    27   11   44 1   
    28   11   45 1   
    29   12   13 1   
    30   12   46 1   
    31   12   47 1   
    32   13   14 1   
    33   13   48 1   
    34   13   49 1   
    35   14   50 1   
    36   14   51 1   
    37   14   52 1   
    38   15   16 1   
    39   15   53 1   
    40   15   54 1   
    41   16   17 1   
    42   16   23 1   
    43   16   55 1   
    44   17   24 1   
    45   17   56 1   
    46   17   57 1   
    47   18   19 1   
    48   18   26 1   
    49   18   58 1   
    50   18   59 1   
    51   19   28 1   
    52   19   60 1   
    53   19   61 1   
    54   20   28 1   
    55   20   62 1   
    56   20   63 1   
    57   20   64 1   
    58   21   28 1   
    59   21   65 1   
    60   21   66 1   
    61   21   67 1   
    62   22   28 1   
    63   22   68 1   
    64   22   69 1   
    65   22   70 1   
    66   23   71 1   
    67   24   29 1   
    68   25   29 1   
    69   26   29 1   
    70   27   29 1   
@<TRIPOS>SUBSTRUCTURE
     1 LAP         1 TEMP              0 ****  ****    0 ROOT
