@<TRIPOS>MOLECULE
LAP
   71    70     1     0     0
SMALL
bcc


@<TRIPOS>ATOM
      1 O1         -0.0060   -0.0610   -0.5370 os        1 LAP     -0.451900
      2 O2          1.7620    1.0310   -1.3630 o         1 LAP     -0.600000
      3 C1          1.1600    0.6360   -0.3580 c         1 LAP      0.700100
      4 C2          1.5300    0.7580    1.0870 c3        1 LAP     -0.130400
      5 C3          2.9680    1.1880    1.2820 c3        1 LAP     -0.066400
      6 C4          3.1200    2.6860    1.1100 c3        1 LAP     -0.085400
      7 C5          4.5740    3.1010    1.0770 c3        1 LAP     -0.083400
      8 C6          4.7130    4.5770    0.7700 c3        1 LAP     -0.072400
      9 C7          6.1620    5.0150    0.7940 c3        1 LAP     -0.083400
     10 C8          6.2980    6.4860    0.4640 c3        1 LAP     -0.076400
     11 C9          7.7480    6.9200    0.4740 c3        1 LAP     -0.080400
     12 C10         7.8850    8.3910    0.1450 c3        1 LAP     -0.078400
     13 C11         9.3350    8.8250    0.1550 c3        1 LAP     -0.080400
     14 C12         9.4770   10.2890   -0.1720 c3        1 LAP     -0.093100
     15 C13        -0.5890   -0.0360   -1.8470 c3        1 LAP      0.113400
     16 C14        -2.1030   -0.1690   -1.6750 c3        1 LAP      0.115100
     17 C15        -2.7100    0.9150   -0.7710 c3        1 LAP      0.167400
     18 C16        -1.1130    4.3480   -2.4790 c3        1 LAP      0.196400
     19 C17        -0.0420    5.4220   -2.7460 c3        1 LAP      0.091800
     20 C18         1.8360    3.8900   -2.2630 c3        1 LAP      0.076100
     21 C19         2.2310    6.2620   -2.6050 c3        1 LAP      0.076100
     22 C20         1.1320    5.5090   -0.5790 c3        1 LAP      0.076100
     23 O3         -2.4420   -1.4510   -1.1770 oh        1 LAP     -0.598800
     24 O4         -2.4360    2.1860   -1.2800 os        1 LAP     -0.587200
     25 O5         -2.6090    3.5150    0.9260 o         1 LAP     -0.823500
     26 O6         -1.7090    4.5540   -1.2470 os        1 LAP     -0.558200
     27 O7         -0.3080    2.8790   -0.1790 o         1 LAP     -0.823500
     28 N8          1.2800    5.2580   -2.0430 n4        1 LAP     -0.582800
     29 P9         -1.7500    3.2430   -0.2240 p5        1 LAP      1.444800
     30 H21         0.8260    1.5210    1.5250 hc        1 LAP      0.093700
     31 H22         1.3430   -0.2250    1.5920 hc        1 LAP      0.093700
     32 H31         3.6260    0.6550    0.5460 hc        1 LAP      0.045700
     33 H32         3.3010    0.8930    2.3120 hc        1 LAP      0.045700
     34 H41         2.5930    3.2160    1.9460 hc        1 LAP      0.049200
     35 H42         2.6090    2.9900    0.1550 hc        1 LAP      0.049200
     36 H51         5.1230    2.5050    0.3010 hc        1 LAP      0.044200
     37 H52         5.0540    2.8760    2.0660 hc        1 LAP      0.044200
     38 H61         4.2770    4.7900   -0.2430 hc        1 LAP      0.025200
     39 H62         4.1250    5.1750    1.5150 hc        1 LAP      0.025200
     40 H71         6.5960    4.8170    1.8100 hc        1 LAP      0.045700
     41 H72         6.7510    4.4070    0.0590 hc        1 LAP      0.045700
     42 H81         5.7190    7.0950    1.2070 hc        1 LAP      0.032200
     43 H82         5.8540    6.6880   -0.5470 hc        1 LAP      0.032200
     44 H91         8.3280    6.3120   -0.2700 hc        1 LAP      0.042700
     45 H92         8.1930    6.7180    1.4840 hc        1 LAP      0.042700
     46 H101        7.3060    8.9990    0.8890 hc        1 LAP      0.037200
     47 H102        7.4410    8.5940   -0.8650 hc        1 LAP      0.037200
     48 H111        9.9140    8.2140   -0.5880 hc        1 LAP      0.040200
     49 H112        9.7790    8.6200    1.1660 hc        1 LAP      0.040200
     50 H121        8.9280   10.9150    0.5720 hc        1 LAP      0.033367
     51 H122       10.5530   10.5870   -0.1580 hc        1 LAP      0.033367
     52 H123        9.0640   10.5080   -1.1870 hc        1 LAP      0.033367
     53 H131       -0.3370    0.9210   -2.3710 h1        1 LAP      0.059200
     54 H132       -0.1760   -0.9110   -2.4130 h1        1 LAP      0.059200
     55 H14        -2.5780   -0.1230   -2.6950 h1        1 LAP      0.083700
     56 H151       -3.8260    0.7610   -0.7480 h1        1 LAP      0.041200
     57 H152       -2.2990    0.8130    0.2720 h1        1 LAP      0.041200
     58 H161       -1.8850    4.5000   -3.2910 h1        1 LAP      0.058700
     59 H162       -0.6840    3.3110   -2.5570 h1        1 LAP      0.058700
     60 H171        0.1760    5.4290   -3.8510 hx        1 LAP      0.081200
     61 H172       -0.4620    6.4200   -2.4330 hx        1 LAP      0.081200
     62 H181        2.9110    3.8730   -1.9420 hx        1 LAP      0.101478
     63 H182        1.2640    3.1320   -1.6380 hx        1 LAP      0.101478
     64 H183        1.7560    3.6280   -3.3480 hx        1 LAP      0.101478
     65 H191        3.2010    6.2070   -2.0420 hx        1 LAP      0.101478
     66 H192        2.4160    6.0380   -3.6880 hx        1 LAP      0.101478
     67 H193        1.7960    7.2890   -2.5010 hx        1 LAP      0.101478
     68 H201        0.3980    4.7530   -0.1570 hx        1 LAP      0.101478
     69 H202        2.1280    5.3710   -0.0820 hx        1 LAP      0.101478
     70 H203        0.7500    6.5480   -0.4180 hx        1 LAP      0.101478
     71 HO3        -2.0170   -1.5390   -0.3140 ho        1 LAP      0.408000
@<TRIPOS>BOND
     1    1    3 1   
     2    1   15 1   
     3    2    3 2   
     4    3    4 1   
     5    4    5 1   
     6    4   30 1   
     7    4   31 1   
     8    5    6 1   
     9    5   32 1   
    10    5   33 1   
    11    6    7 1   
    12    6   34 1   
    13    6   35 1   
    14    7    8 1   
    15    7   36 1   
    16    7   37 1   
    17    8    9 1   
    18    8   38 1   
    19    8   39 1   
    20    9   10 1   
    21    9   40 1   
    22    9   41 1   
    23   10   11 1   
    24   10   42 1   
    25   10   43 1   
    26   11   12 1   
    27   11   44 1   
    28   11   45 1   
    29   12   13 1   
    30   12   46 1   
    31   12   47 1   
    32   13   14 1   
    33   13   48 1   
    34   13   49 1   
    35   14   50 1   
    36   14   51 1   
    37   14   52 1   
    38   15   16 1   
    39   15   53 1   
    40   15   54 1   
    41   16   17 1   
    42   16   23 1   
    43   16   55 1   
    44   17   24 1   
    45   17   56 1   
    46   17   57 1   
    47   18   19 1   
    48   18   26 1   
    49   18   58 1   
    50   18   59 1   
    51   19   28 1   
    52   19   60 1   
    53   19   61 1   
    54   20   28 1   
    55   20   62 1   
    56   20   63 1   
    57   20   64 1   
    58   21   28 1   
    59   21   65 1   
    60   21   66 1   
    61   21   67 1   
    62   22   28 1   
    63   22   68 1   
    64   22   69 1   
    65   22   70 1   
    66   23   71 1   
    67   24   29 1   
    68   25   29 1   
    69   26   29 1   
    70   27   29 1   
@<TRIPOS>SUBSTRUCTURE
     1 LAP         1 TEMP              0 ****  ****    0 ROOT
