@<TRIPOS>MOLECULE
LAP
   71    70     1     0     0
SMALL
bcc


@<TRIPOS>ATOM
      1 O1         -0.0130   -0.0570   -0.4820 os        1 LAP     -0.451900
      2 O2          1.7700    1.0130   -1.3040 o         1 LAP     -0.600000
      3 C1          1.1520    0.6420   -0.3010 c         1 LAP      0.700100
      4 C2          1.4980    0.7970    1.1470 c3        1 LAP     -0.130400
      5 C3          2.9340    1.2310    1.3550 c3        1 LAP     -0.066400
      6 C4          3.0910    2.7230    1.1510 c3        1 LAP     -0.085400
      7 C5          4.5460    3.1360    1.1320 c3        1 LAP     -0.083400
      8 C6          4.6930    4.6040    0.7930 c3        1 LAP     -0.072400
      9 C7          6.1410    5.0410    0.8310 c3        1 LAP     -0.083400
     10 C8          6.2860    6.5030    0.4680 c3        1 LAP     -0.076400
     11 C9          7.7360    6.9350    0.4930 c3        1 LAP     -0.080400
     12 C10         7.8810    8.3980    0.1310 c3        1 LAP     -0.078400
     13 C11         9.3320    8.8310    0.1570 c3        1 LAP     -0.080400
     14 C12         9.4810   10.2860   -0.2030 c3        1 LAP     -0.093100
     15 C13        -0.5750   -0.0620   -1.8010 c3        1 LAP      0.113400
     16 C14        -2.0910   -0.1880   -1.6510 c3        1 LAP      0.115100
     17 C15        -2.7110    0.9180   -0.7830 c3        1 LAP      0.167400
     18 C16        -1.0800    4.3080   -2.5440 c3        1 LAP      0.196400
     19 C17        -0.0020    5.3730   -2.8200 c3        1 LAP      0.091800
     20 C18         1.8650    3.8500   -2.2700 c3        1 LAP      0.076100
     21 C19         2.2690    6.2120   -2.6610 c3        1 LAP      0.076100
     22 C20         1.1370    5.5090   -0.6360 c3        1 LAP      0.076100
     23 O3         -2.4410   -1.4570   -1.1290 oh        1 LAP     -0.598800
     24 O4         -2.4260    2.1760   -1.3170 os        1 LAP     -0.587200
     25 O5         -2.6330    3.5570    0.8550 o         1 LAP     -0.823500
     26 O6         -1.6960    4.5430   -1.3280 os        1 LAP     -0.558200
     27 O7         -0.3150    2.8920   -0.1980 o         1 LAP     -0.823500
     28 N8          1.3070    5.2230   -2.0910 n4        1 LAP     -0.582800
     29 P9         -1.7560    3.2570   -0.2750 p5        1 LAP      1.444800
     30 H21         0.7880    1.5720    1.5560 hc        1 LAP      0.093700
     31 H22         1.3010   -0.1730    1.6720 hc        1 LAP      0.093700
     32 H31         3.6020    0.6790    0.6430 hc        1 LAP      0.045700
     33 H32         3.2490    0.9590    2.3970 hc        1 LAP      0.045700
     34 H41         2.5960    3.0060    0.1810 hc        1 LAP      0.049200
     35 H42         2.5510    3.2730    1.9660 hc        1 LAP      0.049200
     36 H51         5.0090    2.9330    2.1340 hc        1 LAP      0.044200
     37 H52         5.1060    2.5210    0.3790 hc        1 LAP      0.044200
     38 H61         4.0930    5.2200    1.5140 hc        1 LAP      0.025200
     39 H62         4.2740    4.7930   -0.2330 hc        1 LAP      0.025200
     40 H71         6.7420    4.4140    0.1200 hc        1 LAP      0.045700
     41 H72         6.5580    4.8660    1.8580 hc        1 LAP      0.045700
     42 H81         5.6950    7.1300    1.1870 hc        1 LAP      0.032200
     43 H82         5.8590    6.6820   -0.5540 hc        1 LAP      0.032200
     44 H91         8.3280    6.3090   -0.2260 hc        1 LAP      0.042700
     45 H92         8.1630    6.7570    1.5150 hc        1 LAP      0.042700
     46 H101        7.4540    8.5780   -0.8910 hc        1 LAP      0.037200
     47 H102        7.2900    9.0240    0.8510 hc        1 LAP      0.037200
     48 H111        9.7570    8.6490    1.1790 hc        1 LAP      0.040200
     49 H112        9.9220    8.2020   -0.5620 hc        1 LAP      0.040200
     50 H121       10.5570   10.5830   -0.1770 hc        1 LAP      0.033367
     51 H122        9.0860   10.4820   -1.2290 hc        1 LAP      0.033367
     52 H123        8.9200   10.9300    0.5160 hc        1 LAP      0.033367
     53 H131       -0.3130    0.8820   -2.3440 h1        1 LAP      0.059200
     54 H132       -0.1540   -0.9500   -2.3410 h1        1 LAP      0.059200
     55 H14        -2.5500   -0.1650   -2.6800 h1        1 LAP      0.083700
     56 H151       -3.8280    0.7660   -0.7740 h1        1 LAP      0.041200
     57 H152       -2.3170    0.8390    0.2680 h1        1 LAP      0.041200
     58 H161       -1.8380    4.4410   -3.3720 h1        1 LAP      0.058700
     59 H162       -0.6520    3.2680   -2.5920 h1        1 LAP      0.058700
     60 H171        0.2330    5.3540   -3.9200 hx        1 LAP      0.081200
     61 H172       -0.4250    6.3780   -2.5370 hx        1 LAP      0.081200
     62 H181        1.2810    3.1080   -1.6370 hx        1 LAP      0.101478
     63 H182        2.9340    3.8400   -1.9310 hx        1 LAP      0.101478
     64 H183        1.8020    3.5630   -3.3500 hx        1 LAP      0.101478
     65 H191        1.8350    7.2430   -2.5880 hx        1 LAP      0.101478
     66 H192        2.4710    5.9630   -3.7350 hx        1 LAP      0.101478
     67 H193        3.2300    6.1690   -2.0810 hx        1 LAP      0.101478
     68 H201        0.3940    4.7650   -0.2080 hx        1 LAP      0.101478
     69 H202        0.7540    6.5530   -0.5060 hx        1 LAP      0.101478
     70 H203        2.1240    5.3810   -0.1190 hx        1 LAP      0.101478
     71 HO3        -2.0300   -1.5260   -0.2580 ho        1 LAP      0.408000
@<TRIPOS>BOND
     1    1    3 1   
     2    1   15 1   
     3    2    3 2   
     4    3    4 1   
     5    4    5 1   
     6    4   30 1   
     7    4   31 1   
     8    5    6 1   
     9    5   32 1   
    10    5   33 1   
    11    6    7 1   
    12    6   34 1   
    13    6   35 1   
    14    7    8 1   
    15    7   36 1   
    16    7   37 1   
    17    8    9 1   
    18    8   38 1   
    19    8   39 1   
    20    9   10 1   
    21    9   40 1   
    22    9   41 1   
    23   10   11 1   
    24   10   42 1   
    25   10   43 1   
    26   11   12 1   
    27   11   44 1   
    28   11   45 1   
    29   12   13 1   
    30   12   46 1   
    31   12   47 1   
    32   13   14 1   
    33   13   48 1   
    34   13   49 1   
    35   14   50 1   
    36   14   51 1   
    37   14   52 1   
    38   15   16 1   
    39   15   53 1   
    40   15   54 1   
    41   16   17 1   
    42   16   23 1   
    43   16   55 1   
    44   17   24 1   
    45   17   56 1   
    46   17   57 1   
    47   18   19 1   
    48   18   26 1   
    49   18   58 1   
    50   18   59 1   
    51   19   28 1   
    52   19   60 1   
    53   19   61 1   
    54   20   28 1   
    55   20   62 1   
    56   20   63 1   
    57   20   64 1   
    58   21   28 1   
    59   21   65 1   
    60   21   66 1   
    61   21   67 1   
    62   22   28 1   
    63   22   68 1   
    64   22   69 1   
    65   22   70 1   
    66   23   71 1   
    67   24   29 1   
    68   25   29 1   
    69   26   29 1   
    70   27   29 1   
@<TRIPOS>SUBSTRUCTURE
     1 LAP         1 TEMP              0 ****  ****    0 ROOT
