@<TRIPOS>MOLECULE
LAP
   71    70     1     0     0
SMALL
bcc


@<TRIPOS>ATOM
      1 O1         -0.0180   -0.0540   -0.4710 os        1 LAP     -0.451900
      2 O2          1.7670    1.0090   -1.2960 o         1 LAP     -0.600000
      3 C1          1.1470    0.6440   -0.2910 c         1 LAP      0.700100
      4 C2          1.4920    0.8050    1.1560 c3        1 LAP     -0.130400
      5 C3          2.9280    1.2370    1.3650 c3        1 LAP     -0.066400
      6 C4          3.0870    2.7290    1.1550 c3        1 LAP     -0.085400
      7 C5          4.5430    3.1400    1.1370 c3        1 LAP     -0.083400
      8 C6          4.6910    4.6070    0.7930 c3        1 LAP     -0.072400
      9 C7          6.1400    5.0430    0.8330 c3        1 LAP     -0.083400
     10 C8          6.2860    6.5040    0.4670 c3        1 LAP     -0.076400
     11 C9          7.7360    6.9360    0.4940 c3        1 LAP     -0.080400
     12 C10         7.8820    8.3980    0.1310 c3        1 LAP     -0.078400
     13 C11         9.3330    8.8300    0.1580 c3        1 LAP     -0.080400
     14 C12         9.4840   10.2850   -0.2030 c3        1 LAP     -0.093100
     15 C13        -0.5790   -0.0650   -1.7900 c3        1 LAP      0.113400
     16 C14        -2.0950   -0.1880   -1.6420 c3        1 LAP      0.115100
     17 C15        -2.7150    0.9230   -0.7790 c3        1 LAP      0.167400
     18 C16        -1.0750    4.3020   -2.5540 c3        1 LAP      0.196400
     19 C17         0.0050    5.3640   -2.8330 c3        1 LAP      0.091800
     20 C18         1.8690    3.8420   -2.2720 c3        1 LAP      0.076100
     21 C19         2.2770    6.2020   -2.6740 c3        1 LAP      0.076100
     22 C20         1.1390    5.5100   -0.6480 c3        1 LAP      0.076100
     23 O3         -2.4480   -1.4540   -1.1130 oh        1 LAP     -0.598800
     24 O4         -2.4260    2.1790   -1.3190 os        1 LAP     -0.587200
     25 O5         -2.6340    3.5700    0.8460 o         1 LAP     -0.823500
     26 O6         -1.6920    4.5440   -1.3400 os        1 LAP     -0.558200
     27 O7         -0.3160    2.8960   -0.2000 o         1 LAP     -0.823500
     28 N8          1.3130    5.2170   -2.1010 n4        1 LAP     -0.582800
     29 P9         -1.7560    3.2630   -0.2810 p5        1 LAP      1.444800
     30 H21         0.7830    1.5820    1.5610 hc        1 LAP      0.093700
     31 H22         1.2930   -0.1640    1.6850 hc        1 LAP      0.093700
     32 H31         3.5970    0.6820    0.6540 hc        1 LAP      0.045700
     33 H32         3.2420    0.9680    2.4070 hc        1 LAP      0.045700
     34 H41         2.5470    3.2820    1.9680 hc        1 LAP      0.049200
     35 H42         2.5930    3.0090    0.1840 hc        1 LAP      0.049200
     36 H51         5.0040    2.9390    2.1390 hc        1 LAP      0.044200
     37 H52         5.1030    2.5220    0.3860 hc        1 LAP      0.044200
     38 H61         4.2740    4.7940   -0.2330 hc        1 LAP      0.025200
     39 H62         4.0900    5.2250    1.5120 hc        1 LAP      0.025200
     40 H71         6.5550    4.8690    1.8600 hc        1 LAP      0.045700
     41 H72         6.7410    4.4150    0.1230 hc        1 LAP      0.045700
     42 H81         5.6940    7.1330    1.1840 hc        1 LAP      0.032200
     43 H82         5.8610    6.6810   -0.5560 hc        1 LAP      0.032200
     44 H91         8.1620    6.7580    1.5170 hc        1 LAP      0.042700
     45 H92         8.3290    6.3090   -0.2240 hc        1 LAP      0.042700
     46 H101        7.4580    8.5770   -0.8920 hc        1 LAP      0.037200
     47 H102        7.2910    9.0250    0.8490 hc        1 LAP      0.037200
     48 H111        9.9240    8.2000   -0.5580 hc        1 LAP      0.040200
     49 H112        9.7570    8.6500    1.1820 hc        1 LAP      0.040200
     50 H121        8.9220   10.9300    0.5160 hc        1 LAP      0.033367
     51 H122       10.5600   10.5820   -0.1750 hc        1 LAP      0.033367
     52 H123        9.0910   10.4800   -1.2290 hc        1 LAP      0.033367
     53 H131       -0.3140    0.8760   -2.3370 h1        1 LAP      0.059200
     54 H132       -0.1590   -0.9560   -2.3250 h1        1 LAP      0.059200
     55 H14        -2.5530   -0.1690   -2.6710 h1        1 LAP      0.083700
     56 H151       -2.3220    0.8490    0.2730 h1        1 LAP      0.041200
     57 H152       -3.8310    0.7740   -0.7720 h1        1 LAP      0.041200
     58 H161       -1.8320    4.4320   -3.3840 h1        1 LAP      0.058700
     59 H162       -0.6480    3.2610   -2.5960 h1        1 LAP      0.058700
     60 H171        0.2420    5.3390   -3.9330 hx        1 LAP      0.081200
     61 H172       -0.4180    6.3720   -2.5570 hx        1 LAP      0.081200
     62 H181        1.2830    3.1040   -1.6370 hx        1 LAP      0.101478
     63 H182        1.8080    3.5500   -3.3510 hx        1 LAP      0.101478
     64 H183        2.9370    3.8320   -1.9310 hx        1 LAP      0.101478
     65 H191        2.4810    5.9470   -3.7470 hx        1 LAP      0.101478
     66 H192        3.2360    6.1610   -2.0930 hx        1 LAP      0.101478
     67 H193        1.8430    7.2330   -2.6070 hx        1 LAP      0.101478
     68 H201        0.7570    6.5540   -0.5240 hx        1 LAP      0.101478
     69 H202        2.1260    5.3840   -0.1290 hx        1 LAP      0.101478
     70 H203        0.3960    4.7680   -0.2180 hx        1 LAP      0.101478
     71 HO3        -2.0380   -1.5190   -0.2410 ho        1 LAP      0.408000
@<TRIPOS>BOND
     1    1    3 1   
     2    1   15 1   
     3    2    3 2   
     4    3    4 1   
     5    4    5 1   
     6    4   30 1   
     7    4   31 1   
     8    5    6 1   
     9    5   32 1   
    10    5   33 1   
    11    6    7 1   
    12    6   34 1   
    13    6   35 1   
    14    7    8 1   
    15    7   36 1   
    16    7   37 1   
    17    8    9 1   
    18    8   38 1   
    19    8   39 1   
    20    9   10 1   
    21    9   40 1   
    22    9   41 1   
    23   10   11 1   
    24   10   42 1   
    25   10   43 1   
    26   11   12 1   
    27   11   44 1   
    28   11   45 1   
    29   12   13 1   
    30   12   46 1   
    31   12   47 1   
    32   13   14 1   
    33   13   48 1   
    34   13   49 1   
    35   14   50 1   
    36   14   51 1   
    37   14   52 1   
    38   15   16 1   
    39   15   53 1   
    40   15   54 1   
    41   16   17 1   
    42   16   23 1   
    43   16   55 1   
    44   17   24 1   
    45   17   56 1   
    46   17   57 1   
    47   18   19 1   
    48   18   26 1   
    49   18   58 1   
    50   18   59 1   
    51   19   28 1   
    52   19   60 1   
    53   19   61 1   
    54   20   28 1   
    55   20   62 1   
    56   20   63 1   
    57   20   64 1   
    58   21   28 1   
    59   21   65 1   
    60   21   66 1   
    61   21   67 1   
    62   22   28 1   
    63   22   68 1   
    64   22   69 1   
    65   22   70 1   
    66   23   71 1   
    67   24   29 1   
    68   25   29 1   
    69   26   29 1   
    70   27   29 1   
@<TRIPOS>SUBSTRUCTURE
     1 LAP         1 TEMP              0 ****  ****    0 ROOT
