@<TRIPOS>MOLECULE
LAQ
   59    62     1     0     0
SMALL
bcc


@<TRIPOS>ATOM
      1 O2P         8.5620   -6.6140   -2.0480 o         1 LAQ     -0.830500
      2 P           9.2850   -5.5430   -1.3270 p5        1 LAQ      1.493800
      3 O1P        10.5210   -4.8890   -1.7580 o         1 LAQ     -0.830500
      4 O3P         8.1450   -4.3460   -1.1360 os        1 LAQ     -0.595500
      5 C10         6.8570   -4.3430   -1.4980 c         1 LAQ      0.727100
      6 C11         6.5200   -3.9080   -2.9060 c3        1 LAQ     -0.155400
      7 C12         5.5250   -4.8380   -3.5700 c3        1 LAQ     -0.066400
      8 C13         6.2050   -5.9980   -4.2650 c3        1 LAQ     -0.101400
      9 C14         5.1860   -6.8860   -4.9530 c3        1 LAQ     -0.061400
     10 C15         5.8530   -8.0450   -5.6590 c3        1 LAQ      0.043400
     11 S15         4.5560   -9.2020   -6.1420 ss        1 LAQ     -0.240100
     12 S17         5.4470   -9.7520   -8.0350 ss        1 LAQ     -0.223100
     13 C17         6.9150   -8.7850   -7.8020 c3        1 LAQ      0.000700
     14 C16         6.6410   -7.6210   -6.8820 c3        1 LAQ     -0.088400
     15 O10         6.0040   -4.5370   -0.6240 o         1 LAQ     -0.557000
     16 O5'         9.4720   -6.0510    0.2280 os        1 LAQ     -0.565200
     17 C5'         9.4030   -7.4170    0.4800 c3        1 LAQ      0.173400
     18 C4'         8.3560   -7.6990    1.5660 c3        1 LAQ      0.109100
     19 C3'         8.6690   -8.9920    2.3460 c3        1 LAQ      0.126100
     20 O3'         8.4650   -8.7200    3.7190 oh        1 LAQ     -0.590800
     21 C2'         7.7010  -10.0460    1.7680 c3        1 LAQ      0.073100
     22 O2'         7.1300  -10.7760    2.8330 oh        1 LAQ     -0.611800
     23 C1'         6.6200   -9.2130    1.0060 c3        1 LAQ      0.229800
     24 O4'         7.0490   -7.8530    0.9820 os        1 LAQ     -0.380600
     25 N9          6.3610   -9.6900   -0.3350 na        1 LAQ     -0.291000
     26 C8          6.6160   -9.0470   -1.5740 cc        1 LAQ      0.453700
     27 N7          6.0750   -9.6890   -2.6190 nd        1 LAQ     -0.586100
     28 C5          5.4100  -10.7980   -2.0790 ca        1 LAQ     -0.209200
     29 C6          4.6340  -11.8490   -2.6700 ca        1 LAQ      0.740200
     30 N6          4.4920  -11.9130   -4.0370 nh        1 LAQ     -0.948500
     31 N1          4.0840  -12.8060   -1.8470 nb        1 LAQ     -0.807000
     32 C2          4.3320  -12.7030   -0.5140 ca        1 LAQ      0.668900
     33 N3          5.0390  -11.7800    0.1790 nb        1 LAQ     -0.760000
     34 C4          5.5730  -10.8140   -0.6310 ca        1 LAQ      0.428800
     35 H111        7.4450   -3.8130   -3.5300 hc        1 LAQ      0.060200
     36 H112        6.0700   -2.8820   -2.8150 hc        1 LAQ      0.060200
     37 H121        4.9290   -4.2540   -4.3210 hc        1 LAQ      0.041200
     38 H122        4.8060   -5.2260   -2.7990 hc        1 LAQ      0.041200
     39 H131        6.7990   -6.5960   -3.5160 hc        1 LAQ      0.073700
     40 H132        6.9320   -5.6070   -5.0250 hc        1 LAQ      0.073700
     41 H141        4.5870   -6.2850   -5.6870 hc        1 LAQ      0.050200
     42 H142        4.4730   -7.2900   -4.1840 hc        1 LAQ      0.050200
     43 H15         6.5260   -8.5870   -4.9410 h1        1 LAQ      0.124700
     44 H171        7.2320   -8.4260   -8.8120 h1        1 LAQ      0.079700
     45 H172        7.7240   -9.4340   -7.3860 h1        1 LAQ      0.079700
     46 H161        7.6160   -7.1740   -6.5430 hc        1 LAQ      0.074700
     47 H162        6.0820   -6.8200   -7.4360 hc        1 LAQ      0.074700
     48 H5'1        9.1490   -7.9890   -0.4550 h1        1 LAQ      0.039700
     49 H5'2       10.4090   -7.7470    0.8730 h1        1 LAQ      0.039700
     50 H4'         8.2580   -6.8120    2.2520 h1        1 LAQ      0.119700
     51 H3'         9.7320   -9.3250    2.2000 h1        1 LAQ      0.053700
     52 HO3'        8.2920   -9.5600    4.1630 ho        1 LAQ      0.418000
     53 H2'         8.2510  -10.7460    1.0830 h1        1 LAQ      0.063700
     54 HO2'        6.4450  -11.3420    2.4510 ho        1 LAQ      0.436000
     55 H1'         5.6420   -9.2280    1.5780 h2        1 LAQ      0.091700
     56 H8          7.2160   -8.1090   -1.6340 h5        1 LAQ      0.163800
     57 HN61        4.7230  -11.0960   -4.5680 hn        1 LAQ      0.441800
     58 HN62        3.8260  -12.5390   -4.4200 hn        1 LAQ      0.441800
     59 H2          3.8730  -13.5050    0.1010 h5        1 LAQ      0.035100
@<TRIPOS>BOND
     1    1    2 1   
     2    2    3 1   
     3    2    4 1   
     4    2   16 1   
     5    4    5 1   
     6    5    6 1   
     7    5   15 2   
     8    6    7 1   
     9    6   35 1   
    10    6   36 1   
    11    7    8 1   
    12    7   37 1   
    13    7   38 1   
    14    8    9 1   
    15    8   39 1   
    16    8   40 1   
    17    9   10 1   
    18    9   41 1   
    19    9   42 1   
    20   10   11 1   
    21   10   14 1   
    22   10   43 1   
    23   11   12 1   
    24   12   13 1   
    25   13   14 1   
    26   13   44 1   
    27   13   45 1   
    28   14   46 1   
    29   14   47 1   
    30   16   17 1   
    31   17   18 1   
    32   17   48 1   
    33   17   49 1   
    34   18   19 1   
    35   18   24 1   
    36   18   50 1   
    37   19   20 1   
    38   19   21 1   
    39   19   51 1   
    40   20   52 1   
    41   21   22 1   
    42   21   23 1   
    43   21   53 1   
    44   22   54 1   
    45   23   24 1   
    46   23   25 1   
    47   23   55 1   
    48   25   26 1   
    49   25   34 1   
    50   26   27 2   
    51   26   56 1   
    52   27   28 1   
    53   28   29 ar  
    54   28   34 ar  
    55   29   30 1   
    56   29   31 ar  
    57   30   57 1   
    58   30   58 1   
    59   31   32 ar  
    60   32   33 ar  
    61   32   59 1   
    62   33   34 ar  
@<TRIPOS>SUBSTRUCTURE
     1 LAQ         1 TEMP              0 ****  ****    0 ROOT
