@<TRIPOS>MOLECULE
LAQ
   59    58     1     0     0
SMALL
bcc


@<TRIPOS>ATOM
      1 O2P        -0.7260   -1.3750    1.5820 o         1 LAQ     -0.830000
      2 P           0.4900   -0.5510    1.4770 p5        1 LAQ      1.497800
      3 O1P         0.1180    0.9220    1.5850 o         1 LAQ     -0.830000
      4 O3P         1.4890   -0.9340    2.6560 os        1 LAQ     -0.601500
      5 C10         1.3020   -0.3460    3.9060 c         1 LAQ      0.746100
      6 C11         1.2990   -1.2150    5.1540 c3        1 LAQ     -0.154400
      7 C12        -0.1350   -1.8560    5.3410 c3        1 LAQ     -0.074400
      8 C13        -0.0400   -3.4290    5.1750 c3        1 LAQ     -0.102400
      9 C14        -0.9520   -3.8790    4.0250 c3        1 LAQ     -0.059400
     10 C15        -0.5160   -5.0930    3.5380 c3        1 LAQ      0.052400
     11 S15        -1.7930   -6.2280    3.5410 ss        1 LAQ     -0.249100
     12 S17        -2.1700   -6.4180    1.9700 ss        1 LAQ     -0.240100
     13 C17        -0.6840   -6.0460    1.0810 c3        1 LAQ      0.016700
     14 C16         0.0010   -4.9260    1.8390 c3        1 LAQ     -0.117400
     15 O10         1.3130    0.8420    4.0100 o         1 LAQ     -0.601000
     16 O5'         1.1790   -0.8150    0.1020 os        1 LAQ     -0.570200
     17 C5'         0.4800   -0.5200   -1.0390 c3        1 LAQ      0.174400
     18 C4'         1.1940    0.5870   -1.8010 c3        1 LAQ      0.096100
     19 C3'         1.0490    2.0190   -0.9920 c3        1 LAQ      0.086100
     20 O3'         2.0950    2.1130    0.0740 oh        1 LAQ     -0.617800
     21 C2'         1.2190    2.9200   -1.8400 c3        1 LAQ      0.102100
     22 O2'         2.6570    3.3300   -1.8900 oh        1 LAQ     -0.593800
     23 C1'         0.7770    2.2720   -3.2280 c3        1 LAQ      0.215800
     24 O4'         0.6450    0.7610   -2.9490 os        1 LAQ     -0.420600
     25 N9         -0.3510    2.7610   -3.6120 n3        1 LAQ     -0.121400
     26 C8         -1.6380    2.3260   -3.4860 c1        1 LAQ      0.195400
     27 N7         -2.4290    3.1440   -4.2220 ne        1 LAQ     -0.415400
     28 C5         -1.6340    4.0910   -4.8080 cg        1 LAQ     -0.172000
     29 C6         -1.9080    5.0950   -5.7110 c1        1 LAQ      0.582600
     30 N6         -3.1770    5.4620   -6.1260 n3        1 LAQ     -0.804400
     31 N1         -0.8980    5.8440   -6.2200 n1        1 LAQ     -0.597800
     32 C2          0.3860    5.6050   -5.8400 c1        1 LAQ      0.381300
     33 N3          0.6600    4.6060   -4.9420 n1        1 LAQ     -0.520800
     34 C4         -0.3520    3.8530   -4.4300 c1        1 LAQ      0.005700
     35 H111        1.9850   -1.9480    5.0550 hc        1 LAQ      0.062700
     36 H112        1.5130   -0.6740    5.9260 hc        1 LAQ      0.062700
     37 H121       -0.4850   -1.6360    6.2610 hc        1 LAQ      0.048200
     38 H122       -0.7560   -1.4870    4.6530 hc        1 LAQ      0.048200
     39 H131       -0.3220   -3.8570    5.9960 hc        1 LAQ      0.066200
     40 H132        0.8790   -3.6810    4.9780 hc        1 LAQ      0.066200
     41 H141       -1.8250   -3.9640    4.3370 hc        1 LAQ      0.051700
     42 H142       -0.9280   -3.2400    3.3380 hc        1 LAQ      0.051700
     43 H15         0.2270   -5.4230    4.0780 h1        1 LAQ      0.077700
     44 H171       -0.1140   -6.8250    1.0500 h1        1 LAQ      0.077200
     45 H172       -0.8970   -5.7560    0.1850 h1        1 LAQ      0.077200
     46 H161        0.9850   -5.0210    1.7740 hc        1 LAQ      0.115700
     47 H162       -0.2710   -4.0890    1.4950 hc        1 LAQ      0.115700
     48 H5'1        0.4200   -1.3460   -1.6200 h1        1 LAQ      0.042700
     49 H5'2       -0.3960   -0.2300   -0.8060 h1        1 LAQ      0.042700
     50 H4'         2.1580    0.3540   -1.9140 h1        1 LAQ      0.088700
     51 H3'         0.1580    2.0920   -0.6000 h1        1 LAQ      0.117700
     52 HO3'        1.8300    2.7140    0.7130 ho        1 LAQ      0.444000
     53 H2'         0.6540    3.6910   -1.6310 h1        1 LAQ      0.101700
     54 HO2'        2.7540    4.1590   -1.4920 ho        1 LAQ      0.422000
     55 H1'         1.4760    2.4320   -3.9190 h2        1 LAQ      0.113700
     56 H8         -1.9330    1.5370   -2.9920 DU        1 LAQ      0.276000
     57 HN61       -3.8850    4.8990   -5.9850 hn        1 LAQ      0.424300
     58 HN62       -3.2960    6.2310   -6.5880 hn        1 LAQ      0.424300
     59 H2          1.1170    6.1480   -6.2100 ha        1 LAQ      0.117500
@<TRIPOS>BOND
     1    1    2 1   
     2    2    3 1   
     3    2    4 1   
     4    2   16 1   
     5    4    5 1   
     6    5    6 1   
     7    5   15 2   
     8    6    7 1   
     9    6   35 1   
    10    6   36 1   
    11    7    8 1   
    12    7   37 1   
    13    7   38 1   
    14    8    9 1   
    15    8   39 1   
    16    8   40 1   
    17    9   10 1   
    18    9   41 1   
    19    9   42 1   
    20   10   11 1   
    21   10   14 1   
    22   10   43 1   
    23   11   12 1   
    24   12   13 1   
    25   13   14 1   
    26   13   44 1   
    27   13   45 1   
    28   14   46 1   
    29   14   47 1   
    30   16   17 1   
    31   17   18 1   
    32   17   48 1   
    33   17   49 1   
    34   18   19 1   
    35   18   24 1   
    36   18   50 1   
    37   19   20 1   
    38   19   21 1   
    39   19   51 1   
    40   20   52 1   
    41   21   22 1   
    42   21   23 1   
    43   21   53 1   
    44   22   54 1   
    45   23   24 1   
    46   23   25 1   
    47   23   55 1   
    48   25   26 2   
    49   25   34 1   
    50   26   27 2   
    51   27   28 1   
    52   28   34 3   
    53   29   30 1   
    54   29   31 3   
    55   30   57 1   
    56   30   58 1   
    57   32   33 3   
    58   32   59 1   
@<TRIPOS>SUBSTRUCTURE
     1 LAQ         1 TEMP              0 ****  ****    0 ROOT
