@<TRIPOS>MOLECULE
LAQ
   60    63     1     0     0
SMALL
bcc


@<TRIPOS>ATOM
      1 O2P         2.5110   -1.9230   -4.3550 o         1 LAQ     -0.830500
      2 P           2.8430   -1.9320   -2.9170 p5        1 LAQ      1.489800
      3 O1P         2.6130   -3.0510   -1.9970 o         1 LAQ     -0.830500
      4 O3P         4.5020   -1.7120   -2.8390 os        1 LAQ     -0.581500
      5 C10         5.4460   -2.5090   -2.3470 c         1 LAQ      0.750100
      6 C11         5.4080   -3.0050   -0.9240 c3        1 LAQ     -0.169400
      7 C12         5.9060   -4.4330   -0.8080 c3        1 LAQ     -0.069400
      8 C13         4.8330   -5.4680   -1.1050 c3        1 LAQ     -0.105400
      9 C14         5.1990   -6.4010   -2.2470 c3        1 LAQ     -0.057400
     10 C15         5.0320   -5.7200   -3.5870 c3        1 LAQ      0.036400
     11 S15         6.2750   -6.3330   -4.7320 ss        1 LAQ     -0.254100
     12 S17         5.1540   -5.7220   -6.4780 ss        1 LAQ     -0.264100
     13 C17         3.6200   -5.3760   -5.6140 c3        1 LAQ      0.013700
     14 C16         3.6660   -5.9190   -4.2070 c3        1 LAQ     -0.098400
     15 O10         6.3940   -2.7350   -3.1280 o         1 LAQ     -0.662000
     16 O5'         2.3480   -0.4920   -2.3120 os        1 LAQ     -0.551200
     17 C5'         1.5140    0.2840   -3.1130 c3        1 LAQ      0.167400
     18 C4'         2.1640    1.6040   -3.5500 c3        1 LAQ      0.081100
     19 C3'         1.3320    2.2430   -4.6810 c3        1 LAQ      0.077100
     20 O3'         1.2920    3.6560   -4.5820 oh        1 LAQ     -0.604800
     21 C2'         2.1030    1.8980   -5.9770 c3        1 LAQ      0.134100
     22 O2'         2.1310    2.9260   -6.9280 oh        1 LAQ     -0.571800
     23 C1'         3.5450    1.5600   -5.4770 c3        1 LAQ      0.210800
     24 O4'         3.4980    1.4460   -4.0470 os        1 LAQ     -0.389600
     25 N9          4.1460    0.3800   -6.0640 na        1 LAQ     -0.280000
     26 C8          3.5510   -0.8820   -6.3530 cc        1 LAQ      0.586700
     27 N7          4.4310   -1.8870   -6.5030 nd        1 LAQ     -0.600100
     28 C5          5.6770   -1.3280   -6.2000 ca        1 LAQ     -0.093200
     29 C6          6.9570   -1.8600   -5.9840 ca        1 LAQ      0.537200
     30 N6          7.1110   -3.3170   -5.8970 n4        1 LAQ     -0.837300
     31 N1          8.0320   -1.0540   -5.7420 nb        1 LAQ     -0.697000
     32 C2          7.7800    0.2750   -5.6350 ca        1 LAQ      0.651900
     33 N3          6.5850    0.9310   -5.6890 nb        1 LAQ     -0.647000
     34 C4          5.5340    0.1250   -5.9480 ca        1 LAQ      0.469800
     35 H111        6.0690   -2.3200   -0.3290 hc        1 LAQ      0.093200
     36 H112        4.3580   -2.9240   -0.5270 hc        1 LAQ      0.093200
     37 H121        6.2760   -4.5850    0.2410 hc        1 LAQ      0.046200
     38 H122        6.7870   -4.5720   -1.4890 hc        1 LAQ      0.046200
     39 H131        3.8530   -4.9590   -1.3360 hc        1 LAQ      0.076200
     40 H132        4.6670   -6.0940   -0.1890 hc        1 LAQ      0.076200
     41 H141        6.2630   -6.7440   -2.1310 hc        1 LAQ      0.054700
     42 H142        4.5490   -7.3140   -2.2020 hc        1 LAQ      0.054700
     43 H15         5.2300   -4.6200   -3.4690 h1        1 LAQ      0.096700
     44 H171        2.8030   -5.8590   -6.2020 h1        1 LAQ      0.111700
     45 H172        3.4590   -4.2670   -5.6170 h1        1 LAQ      0.111700
     46 H161        2.9010   -5.3850   -3.5720 hc        1 LAQ      0.096200
     47 H162        3.4000   -7.0100   -4.2050 hc        1 LAQ      0.096200
     48 H5'1        1.1820   -0.2930   -4.0220 h1        1 LAQ      0.046200
     49 H5'2        0.6110    0.5580   -2.4930 h1        1 LAQ      0.046200
     50 H4'         2.2820    2.2850   -2.6630 h1        1 LAQ      0.087700
     51 H3'         0.2860    1.8380   -4.7130 h1        1 LAQ      0.069700
     52 HO3'        0.9080    3.8690   -3.7230 ho        1 LAQ      0.422000
     53 H2'         1.6140    1.0310   -6.4990 h1        1 LAQ      0.096700
     54 HO2'        2.3320    3.7580   -6.4750 ho        1 LAQ      0.430000
     55 H1'         4.2480    2.4220   -5.6950 h2        1 LAQ      0.109700
     56 H8          2.4570   -1.0100   -6.4200 h5        1 LAQ      0.115800
     57 HN61        8.0030   -3.6190   -6.2920 hn        1 LAQ      0.480467
     58 HN62        7.0770   -3.5800   -4.8910 hn        1 LAQ      0.480467
     59 H2          8.6690    0.9140   -5.4440 h5        1 LAQ      0.070100
     60 H63         6.3170   -3.8040   -6.3800 hn        1 LAQ      0.480467
@<TRIPOS>BOND
     1    1    2 1   
     2    2    3 1   
     3    2    4 1   
     4    2   16 1   
     5    4    5 1   
     6    5    6 1   
     7    5   15 2   
     8    6    7 1   
     9    6   35 1   
    10    6   36 1   
    11    7    8 1   
    12    7   37 1   
    13    7   38 1   
    14    8    9 1   
    15    8   39 1   
    16    8   40 1   
    17    9   10 1   
    18    9   41 1   
    19    9   42 1   
    20   10   11 1   
    21   10   14 1   
    22   10   43 1   
    23   11   12 1   
    24   12   13 1   
    25   13   14 1   
    26   13   44 1   
    27   13   45 1   
    28   14   46 1   
    29   14   47 1   
    30   16   17 1   
    31   17   18 1   
    32   17   48 1   
    33   17   49 1   
    34   18   19 1   
    35   18   24 1   
    36   18   50 1   
    37   19   20 1   
    38   19   21 1   
    39   19   51 1   
    40   20   52 1   
    41   21   22 1   
    42   21   23 1   
    43   21   53 1   
    44   22   54 1   
    45   23   24 1   
    46   23   25 1   
    47   23   55 1   
    48   25   26 1   
    49   25   34 1   
    50   26   27 2   
    51   26   56 1   
    52   27   28 1   
    53   28   29 ar  
    54   28   34 ar  
    55   29   30 1   
    56   29   31 ar  
    57   30   57 1   
    58   30   58 1   
    59   30   60 1   
    60   31   32 ar  
    61   32   33 ar  
    62   32   59 1   
    63   33   34 ar  
@<TRIPOS>SUBSTRUCTURE
     1 LAQ         1 TEMP              0 ****  ****    0 ROOT
