@<TRIPOS>MOLECULE
LAQ
   59    62     1     0     0
SMALL
bcc


@<TRIPOS>ATOM
      1 O2P         1.8310   -1.1770   -3.3020 o         1 LAQ     -0.825000
      2 P           1.8270   -0.9070   -1.8480 p5        1 LAQ      1.481800
      3 O1P         0.7530   -1.1850   -0.8910 o         1 LAQ     -0.825000
      4 O3P         3.1840   -1.6970   -1.2870 os        1 LAQ     -0.613500
      5 C10         3.4250   -2.2770   -0.1070 c         1 LAQ      0.730100
      6 C11         3.0250   -3.7240    0.0690 c3        1 LAQ     -0.159400
      7 C12         4.0770   -4.6520   -0.5060 c3        1 LAQ     -0.064400
      8 C13         4.0700   -4.6400   -2.0190 c3        1 LAQ     -0.095400
      9 C14         5.2210   -5.4480   -2.5860 c3        1 LAQ     -0.063400
     10 C15         5.2180   -5.3990   -4.0980 c3        1 LAQ      0.029400
     11 S15         6.8310   -5.9400   -4.6870 ss        1 LAQ     -0.242100
     12 S17         6.0840   -7.2020   -6.2750 ss        1 LAQ     -0.209100
     13 C17         4.4200   -6.6110   -6.1410 c3        1 LAQ     -0.004300
     14 C16         4.1170   -6.2420   -4.7090 c3        1 LAQ     -0.083400
     15 O10         4.0760   -1.6440    0.7330 o         1 LAQ     -0.559000
     16 O5'         2.3720    0.6350   -1.7140 os        1 LAQ     -0.567200
     17 C5'         3.5020    0.9600   -2.4670 c3        1 LAQ      0.182400
     18 C4'         3.1760    2.0240   -3.5280 c3        1 LAQ      0.109100
     19 C3'         1.9240    1.6990   -4.3580 c3        1 LAQ      0.070100
     20 O3'         1.0940    2.8490   -4.3680 oh        1 LAQ     -0.601800
     21 C2'         2.4240    1.4100   -5.7910 c3        1 LAQ      0.086100
     22 O2'         1.9440    2.3480   -6.7260 oh        1 LAQ     -0.595800
     23 C1'         3.9820    1.5040   -5.6960 c3        1 LAQ      0.221800
     24 O4'         4.2850    2.1230   -4.4380 os        1 LAQ     -0.419600
     25 N9          4.6430    0.2300   -5.8480 na        1 LAQ     -0.282000
     26 C8          4.2230   -1.0400   -5.3680 cc        1 LAQ      0.427700
     27 N7          5.1110   -2.0160   -5.6010 nd        1 LAQ     -0.583100
     28 C5          6.1950   -1.3920   -6.2390 ca        1 LAQ     -0.219200
     29 C6          7.4480   -1.8850   -6.7260 ca        1 LAQ      0.736200
     30 N6          7.7370   -3.2310   -6.6680 nh        1 LAQ     -0.946500
     31 N1          8.3280   -0.9970   -7.3010 nb        1 LAQ     -0.806000
     32 C2          7.9350    0.3020   -7.3940 ca        1 LAQ      0.665900
     33 N3          6.7940    0.9040   -6.9890 nb        1 LAQ     -0.731000
     34 C4          5.9230    0.0330   -6.3950 ca        1 LAQ      0.455800
     35 H111        2.9200   -3.9150    1.1690 hc        1 LAQ      0.067200
     36 H112        2.0320   -3.9190   -0.4110 hc        1 LAQ      0.067200
     37 H121        5.0890   -4.3470   -0.1290 hc        1 LAQ      0.038200
     38 H122        3.8820   -5.6940   -0.1370 hc        1 LAQ      0.038200
     39 H131        3.0990   -5.0570   -2.3950 hc        1 LAQ      0.065700
     40 H132        4.1370   -3.5770   -2.3810 hc        1 LAQ      0.065700
     41 H141        6.1920   -5.0270   -2.2070 hc        1 LAQ      0.050200
     42 H142        5.1580   -6.5100   -2.2320 hc        1 LAQ      0.050200
     43 H15         5.1090   -4.3320   -4.4370 h1        1 LAQ      0.126700
     44 H171        4.2740   -5.7310   -6.8140 h1        1 LAQ      0.085200
     45 H172        3.7530   -7.4380   -6.4880 h1        1 LAQ      0.085200
     46 H161        3.9680   -7.1740   -4.1010 hc        1 LAQ      0.073700
     47 H162        3.1550   -5.6590   -4.6690 hc        1 LAQ      0.073700
     48 H5'1        4.2770    1.3900   -1.7730 h1        1 LAQ      0.046700
     49 H5'2        3.9190    0.0420   -2.9690 h1        1 LAQ      0.046700
     50 H4'         3.0880    3.0380   -3.0530 h1        1 LAQ      0.088700
     51 H3'         1.3900    0.8020   -3.9280 h1        1 LAQ      0.123700
     52 HO3'        0.2310    2.5570   -4.6840 ho        1 LAQ      0.407000
     53 H2'         2.0660    0.4140   -6.1640 h1        1 LAQ      0.109700
     54 HO2'        2.0230    3.2260   -6.3260 ho        1 LAQ      0.416000
     55 H1'         4.4020    2.2080   -6.4750 h2        1 LAQ      0.110700
     56 H8          3.2450   -1.1740   -4.8520 h5        1 LAQ      0.148800
     57 HN61        8.6650   -3.5260   -6.8550 hn        1 LAQ      0.437300
     58 HN62        7.1960   -3.7990   -6.0500 hn        1 LAQ      0.437300
     59 H2          8.6780    0.9730   -7.8740 h5        1 LAQ      0.037100
@<TRIPOS>BOND
     1    1    2 1   
     2    2    3 1   
     3    2    4 1   
     4    2   16 1   
     5    4    5 1   
     6    5    6 1   
     7    5   15 2   
     8    6    7 1   
     9    6   35 1   
    10    6   36 1   
    11    7    8 1   
    12    7   37 1   
    13    7   38 1   
    14    8    9 1   
    15    8   39 1   
    16    8   40 1   
    17    9   10 1   
    18    9   41 1   
    19    9   42 1   
    20   10   11 1   
    21   10   14 1   
    22   10   43 1   
    23   11   12 1   
    24   12   13 1   
    25   13   14 1   
    26   13   44 1   
    27   13   45 1   
    28   14   46 1   
    29   14   47 1   
    30   16   17 1   
    31   17   18 1   
    32   17   48 1   
    33   17   49 1   
    34   18   19 1   
    35   18   24 1   
    36   18   50 1   
    37   19   20 1   
    38   19   21 1   
    39   19   51 1   
    40   20   52 1   
    41   21   22 1   
    42   21   23 1   
    43   21   53 1   
    44   22   54 1   
    45   23   24 1   
    46   23   25 1   
    47   23   55 1   
    48   25   26 1   
    49   25   34 1   
    50   26   27 2   
    51   26   56 1   
    52   27   28 1   
    53   28   29 ar  
    54   28   34 ar  
    55   29   30 1   
    56   29   31 ar  
    57   30   57 1   
    58   30   58 1   
    59   31   32 ar  
    60   32   33 ar  
    61   32   59 1   
    62   33   34 ar  
@<TRIPOS>SUBSTRUCTURE
     1 LAQ         1 TEMP              0 ****  ****    0 ROOT
