@<TRIPOS>MOLECULE
LAQ
   59    62     1     0     0
SMALL
bcc


@<TRIPOS>ATOM
      1 O2P         2.0770   -2.2020   -2.8710 o         1 LAQ     -0.830500
      2 P           1.1150   -1.6780   -1.8760 p5        1 LAQ      1.493800
      3 O1P        -0.1990   -2.2410   -1.5590 o         1 LAQ     -0.830500
      4 O3P         1.9820   -1.6440   -0.4560 os        1 LAQ     -0.595500
      5 C10         3.2640   -1.9650   -0.2440 c         1 LAQ      0.727100
      6 C11         3.5910   -3.4130    0.0390 c3        1 LAQ     -0.155400
      7 C12         4.7880   -3.8940   -0.7550 c3        1 LAQ     -0.066400
      8 C13         4.3930   -4.4200   -2.1190 c3        1 LAQ     -0.101400
      9 C14         5.6070   -4.9310   -2.8710 c3        1 LAQ     -0.061400
     10 C15         5.2250   -5.4660   -4.2330 c3        1 LAQ      0.043400
     11 S15         6.7510   -5.7260   -5.1590 ss        1 LAQ     -0.240100
     12 S17         6.1010   -7.5350   -6.1520 ss        1 LAQ     -0.223100
     13 C17         4.4600   -7.4980   -5.4810 c3        1 LAQ      0.000700
     14 C16         4.4440   -6.7620   -4.1630 c3        1 LAQ     -0.088400
     15 O10         4.0840   -1.0470   -0.1290 o         1 LAQ     -0.557000
     16 O5'         0.9400   -0.0690   -2.1770 os        1 LAQ     -0.565200
     17 C5'         1.2620    0.3950   -3.4480 c3        1 LAQ      0.173400
     18 C4'         2.2780    1.5410   -3.3470 c3        1 LAQ      0.109100
     19 C3'         2.1790    2.5040   -4.5480 c3        1 LAQ      0.126100
     20 O3'         2.2440    3.8230   -4.0410 oh        1 LAQ     -0.590800
     21 C2'         3.3700    2.1260   -5.4550 c3        1 LAQ      0.073100
     22 O2'         4.0090    3.3080   -5.8890 oh        1 LAQ     -0.611800
     23 C1'         4.3080    1.2740   -4.5400 c3        1 LAQ      0.229800
     24 O4'         3.6210    1.0260   -3.3150 os        1 LAQ     -0.380600
     25 N9          4.7360    0.0320   -5.1460 na        1 LAQ     -0.291000
     26 C8          4.4330   -1.2990   -4.7580 cc        1 LAQ      0.453700
     27 N7          5.1520   -2.2150   -5.4230 nd        1 LAQ     -0.586100
     28 C5          5.9890   -1.4900   -6.2810 ca        1 LAQ     -0.209200
     29 C6          6.9910   -1.8870   -7.2260 ca        1 LAQ      0.740200
     30 N6          7.2250   -3.2230   -7.4600 nv        1 LAQ     -0.948500
     31 N1          7.6690   -0.9090   -7.9190 nb        1 LAQ     -0.807000
     32 C2          7.3260    0.3840   -7.6740 ca        1 LAQ      0.668900
     33 N3          6.4110    0.9030   -6.8240 nb        1 LAQ     -0.760000
     34 C4          5.7470   -0.0620   -6.1170 ca        1 LAQ      0.428800
     35 H111        2.7050   -4.0700   -0.1500 hc        1 LAQ      0.060200
     36 H112        3.8240   -3.4700    1.1370 hc        1 LAQ      0.060200
     37 H121        5.3010   -4.7100   -0.1780 hc        1 LAQ      0.041200
     38 H122        5.5220   -3.0520   -0.8710 hc        1 LAQ      0.041200
     39 H131        3.6500   -5.2520   -2.0000 hc        1 LAQ      0.073700
     40 H132        3.8860   -3.6030   -2.7080 hc        1 LAQ      0.073700
     41 H141        6.1180   -5.7320   -2.2750 hc        1 LAQ      0.050200
     42 H142        6.3380   -4.0880   -3.0040 hc        1 LAQ      0.050200
     43 H15         4.6300   -4.6930   -4.7890 h1        1 LAQ      0.124700
     44 H171        4.1390   -8.5590   -5.3470 h1        1 LAQ      0.079700
     45 H172        3.7720   -7.0090   -6.2130 h1        1 LAQ      0.079700
     46 H161        4.8660   -7.4190   -3.3560 hc        1 LAQ      0.074700
     47 H162        3.3810   -6.5260   -3.8800 hc        1 LAQ      0.074700
     48 H5'1        0.3190    0.8060   -3.9150 h1        1 LAQ      0.039700
     49 H5'2        1.6790   -0.4320   -4.0880 h1        1 LAQ      0.039700
     50 H4'         2.1570    2.0820   -2.3680 h1        1 LAQ      0.119700
     51 H3'         1.2140    2.3820   -5.1090 h1        1 LAQ      0.053700
     52 HO3'        2.5530    4.3970   -4.7530 ho        1 LAQ      0.418000
     53 H2'         3.0110    1.5430   -6.3450 h1        1 LAQ      0.063700
     54 HO2'        4.8140    3.0390   -6.3520 ho        1 LAQ      0.436000
     55 H1'         5.2340    1.8690   -4.2710 h2        1 LAQ      0.091700
     56 H8          3.6650   -1.5220   -3.9820 h5        1 LAQ      0.163800
     57 HN61        6.8690   -3.8810   -6.7950 hn        1 LAQ      0.441800
     58 HN62        8.0220   -3.4840   -7.9870 hn        1 LAQ      0.441800
     59 H2          7.8980    1.1290   -8.2670 h5        1 LAQ      0.035100
@<TRIPOS>BOND
     1    1    2 1   
     2    2    3 1   
     3    2    4 1   
     4    2   16 1   
     5    4    5 1   
     6    5    6 1   
     7    5   15 2   
     8    6    7 1   
     9    6   35 1   
    10    6   36 1   
    11    7    8 1   
    12    7   37 1   
    13    7   38 1   
    14    8    9 1   
    15    8   39 1   
    16    8   40 1   
    17    9   10 1   
    18    9   41 1   
    19    9   42 1   
    20   10   11 1   
    21   10   14 1   
    22   10   43 1   
    23   11   12 1   
    24   12   13 1   
    25   13   14 1   
    26   13   44 1   
    27   13   45 1   
    28   14   46 1   
    29   14   47 1   
    30   16   17 1   
    31   17   18 1   
    32   17   48 1   
    33   17   49 1   
    34   18   19 1   
    35   18   24 1   
    36   18   50 1   
    37   19   20 1   
    38   19   21 1   
    39   19   51 1   
    40   20   52 1   
    41   21   22 1   
    42   21   23 1   
    43   21   53 1   
    44   22   54 1   
    45   23   24 1   
    46   23   25 1   
    47   23   55 1   
    48   25   26 1   
    49   25   34 1   
    50   26   27 2   
    51   26   56 1   
    52   27   28 1   
    53   28   29 ar  
    54   28   34 ar  
    55   29   30 1   
    56   29   31 ar  
    57   30   57 1   
    58   30   58 1   
    59   31   32 ar  
    60   32   33 ar  
    61   32   59 1   
    62   33   34 ar  
@<TRIPOS>SUBSTRUCTURE
     1 LAQ         1 TEMP              0 ****  ****    0 ROOT
