@<TRIPOS>MOLECULE
LAR
   60    62     1     0     0
SMALL
bcc


@<TRIPOS>ATOM
      1 S1          0.4530   -0.3870   -0.5460 ss        1 LAR     -0.222700
      2 N1          0.6980    0.0960    2.0140 n         1 LAR     -0.543900
      3 O1          5.5320   -1.8050    5.0320 o         1 LAR     -0.547000
      4 O2          4.8230    0.3130    5.1950 os        1 LAR     -0.427900
      5 O3          4.1030    1.2800    1.1680 os        1 LAR     -0.459600
      6 O4          2.3450    2.4070    1.8170 oh        1 LAR     -0.599800
      7 C1          5.4810   -0.7780    5.7160 c         1 LAR      0.646300
      8 C2          6.0220   -0.5510    7.0600 ce        1 LAR     -0.227200
      9 C3          7.3130   -0.7760    7.3630 c2        1 LAR     -0.026400
     10 C4          8.3220   -1.1990    6.3480 c3        1 LAR     -0.058200
     11 C5          8.3070   -2.7040    6.1090 c3        1 LAR     -0.047200
     12 C6          8.9170   -3.0280    4.7950 c2        1 LAR     -0.167200
     13 C7          8.1790   -3.2920    3.7070 ce        1 LAR     -0.132000
     14 C8          8.7520   -3.5900    2.4100 ce        1 LAR     -0.133000
     15 C9          8.1770   -3.4130    1.2130 c2        1 LAR     -0.155200
     16 C10         6.8320   -2.8530    0.8910 c3        1 LAR     -0.027500
     17 C11         6.6260   -1.4960    1.5510 c3        1 LAR     -0.082400
     18 C12         5.4090   -0.7630    1.0270 c3        1 LAR     -0.106400
     19 C13         5.3560    0.6840    1.5170 c3        1 LAR      0.164100
     20 C14         5.6610    0.8440    2.9960 c3        1 LAR     -0.133400
     21 C15         4.5090    0.2500    3.7940 c3        1 LAR      0.138100
     22 C16         3.2670    1.0850    3.5440 c3        1 LAR     -0.099400
     23 C17         2.9830    1.1650    2.0350 c3        1 LAR      0.346600
     24 C18         2.0730   -0.0250    1.5700 c3        1 LAR      0.046700
     25 C19         2.1200   -0.2210    0.0450 c3        1 LAR     -0.036300
     26 C20        -0.2720    0.0220    1.0090 c         1 LAR      0.714100
     27 C21         7.8240   -0.5790    8.7410 c3        1 LAR     -0.073900
     28 C22         5.7340   -3.8320    1.2560 c3        1 LAR     -0.089100
     29 HN1         0.5240    0.6970    2.7900 hn        1 LAR      0.326500
     30 HO4         2.4640    2.6490    0.8870 ho        1 LAR      0.432000
     31 H21         5.2940   -0.1810    7.7980 ha        1 LAR      0.161000
     32 H41         9.3470   -0.8810    6.6750 hc        1 LAR      0.054700
     33 H42         8.1030   -0.6760    5.3760 hc        1 LAR      0.054700
     34 H51         7.2440   -3.0700    6.1410 hc        1 LAR      0.059200
     35 H52         8.8700   -3.2200    6.9310 hc        1 LAR      0.059200
     36 H61        10.0180   -3.0220    4.7620 ha        1 LAR      0.118000
     37 H71         7.0750   -3.2900    3.7760 ha        1 LAR      0.147000
     38 H81         9.7770   -4.0070    2.4430 ha        1 LAR      0.119000
     39 H91         8.7500   -3.7090    0.3150 ha        1 LAR      0.116000
     40 H101        6.7900   -2.6960   -0.2280 hc        1 LAR      0.045700
     41 H111        7.5400   -0.8680    1.3780 hc        1 LAR      0.055200
     42 H112        6.5160   -1.6470    2.6600 hc        1 LAR      0.055200
     43 H121        4.4780   -1.3030    1.3430 hc        1 LAR      0.048700
     44 H122        5.4140   -0.7530   -0.0950 hc        1 LAR      0.048700
     45 H131        6.0880    1.3010    0.9150 h1        1 LAR      0.078700
     46 H141        5.7670    1.9330    3.2440 hc        1 LAR      0.071700
     47 H142        6.6250    0.3430    3.2630 hc        1 LAR      0.071700
     48 H151        4.3270   -0.8210    3.4920 h1        1 LAR      0.084700
     49 H161        2.3900    0.6440    4.0800 hc        1 LAR      0.082200
     50 H162        3.4160    2.1250    3.9400 hc        1 LAR      0.082200
     51 H181        2.4920   -0.9540    2.0640 h1        1 LAR      0.078700
     52 H191        2.7040   -1.1370   -0.2070 h1        1 LAR      0.092200
     53 H192        2.6090    0.6480   -0.4580 h1        1 LAR      0.092200
     54 H211        8.5550    0.2690    8.7570 hc        1 LAR      0.054700
     55 H212        7.0020   -0.3520    9.4620 hc        1 LAR      0.054700
     56 H213        8.3540   -1.5040    9.0820 hc        1 LAR      0.054700
     57 H221        4.7520   -3.4710    0.8660 hc        1 LAR      0.039033
     58 H222        5.6530   -3.9490    2.3630 hc        1 LAR      0.039033
     59 H223        5.9460   -4.8330    0.8080 hc        1 LAR      0.039033
     60 O5         -1.4780    0.1810    1.2300 o         1 LAR     -0.572500
@<TRIPOS>BOND
     1    1   25 1   
     2    1   26 1   
     3    2   24 1   
     4    2   26 1   
     5    2   29 1   
     6    3    7 2   
     7    4    7 1   
     8    4   21 1   
     9    5   19 1   
    10    5   23 1   
    11    6   23 1   
    12    6   30 1   
    13    7    8 1   
    14    8    9 2   
    15    8   31 1   
    16    9   10 1   
    17    9   27 1   
    18   10   11 1   
    19   10   32 1   
    20   10   33 1   
    21   11   12 1   
    22   11   34 1   
    23   11   35 1   
    24   12   13 2   
    25   12   36 1   
    26   13   14 1   
    27   13   37 1   
    28   14   15 2   
    29   14   38 1   
    30   15   16 1   
    31   15   39 1   
    32   16   17 1   
    33   16   28 1   
    34   16   40 1   
    35   17   18 1   
    36   17   41 1   
    37   17   42 1   
    38   18   19 1   
    39   18   43 1   
    40   18   44 1   
    41   19   20 1   
    42   19   45 1   
    43   20   21 1   
    44   20   46 1   
    45   20   47 1   
    46   21   22 1   
    47   21   48 1   
    48   22   23 1   
    49   22   49 1   
    50   22   50 1   
    51   23   24 1   
    52   24   25 1   
    53   24   51 1   
    54   25   52 1   
    55   25   53 1   
    56   26   60 2   
    57   27   54 1   
    58   27   55 1   
    59   27   56 1   
    60   28   57 1   
    61   28   58 1   
    62   28   59 1   
@<TRIPOS>SUBSTRUCTURE
     1 LAR         1 TEMP              0 ****  ****    0 ROOT
