@<TRIPOS>MOLECULE
LAR
   60    62     1     0     0
SMALL
bcc


@<TRIPOS>ATOM
      1 S1          5.3750   -1.1940   -0.6570 ss        1 LAR     -0.222700
      2 N1          3.9920    1.0120   -0.9120 n         1 LAR     -0.543900
      3 O1         -2.0080    0.8460   -1.1670 o         1 LAR     -0.547000
      4 O2         -0.9450    2.2450    0.2210 os        1 LAR     -0.427900
      5 O3          1.9660   -0.2770    1.9060 os        1 LAR     -0.459600
      6 O4          3.3690    1.3980    1.8370 oh        1 LAR     -0.599800
      7 C1         -2.0410    1.9090   -0.5400 c         1 LAR      0.646300
      8 C2         -3.1110    2.9120   -0.5040 ce        1 LAR     -0.227200
      9 C3         -4.3790    2.5990   -0.1860 c2        1 LAR     -0.026400
     10 C4         -4.7950    1.2290    0.2340 c3        1 LAR     -0.058200
     11 C5         -5.0640    0.3160   -0.9560 c3        1 LAR     -0.047200
     12 C6         -4.9760   -1.1090   -0.5480 c2        1 LAR     -0.167200
     13 C7         -3.8860   -1.8560   -0.7820 ce        1 LAR     -0.132000
     14 C8         -3.7690   -3.2410   -0.3750 ce        1 LAR     -0.133000
     15 C9         -2.6390   -3.9190   -0.1330 c2        1 LAR     -0.155200
     16 C10        -1.2260   -3.4410   -0.1920 c3        1 LAR     -0.027500
     17 C11        -1.0320   -2.1840    0.6450 c3        1 LAR     -0.082400
     18 C12         0.4250   -1.8300    0.8500 c3        1 LAR     -0.106400
     19 C13         0.6050   -0.7190    1.8850 c3        1 LAR      0.164100
     20 C14        -0.3590    0.4420    1.7150 c3        1 LAR     -0.133400
     21 C15         0.0120    1.1960    0.4460 c3        1 LAR      0.138100
     22 C16         1.3780    1.8300    0.6420 c3        1 LAR     -0.099400
     23 C17         2.4040    0.7530    1.0310 c3        1 LAR      0.346600
     24 C18         3.0660    0.1200   -0.2420 c3        1 LAR      0.046700
     25 C19         3.7570   -1.2170    0.0750 c3        1 LAR     -0.036300
     26 C20         5.2790    0.5050   -1.1200 c         1 LAR      0.714100
     27 C21        -5.4500    3.6250   -0.2000 c3        1 LAR     -0.073900
     28 C22        -0.7800   -3.2400   -1.6270 c3        1 LAR     -0.089100
     29 HN1         3.8970    1.9860   -0.7250 hn        1 LAR      0.326500
     30 HO4         3.8140    0.7260    2.3730 ho        1 LAR      0.432000
     31 H21        -2.7960    3.9360   -0.7560 ha        1 LAR      0.161000
     32 H41        -3.9790    0.7760    0.8610 hc        1 LAR      0.054700
     33 H42        -5.7140    1.2900    0.8750 hc        1 LAR      0.054700
     34 H51        -6.0830    0.5320   -1.3730 hc        1 LAR      0.059200
     35 H52        -4.3110    0.5330   -1.7630 hc        1 LAR      0.059200
     36 H61        -5.8550   -1.5140   -0.0240 ha        1 LAR      0.118000
     37 H71        -3.0200   -1.4160   -1.3130 ha        1 LAR      0.147000
     38 H81        -4.7340   -3.7720   -0.2580 ha        1 LAR      0.119000
     39 H91        -2.7250   -4.9830    0.1550 ha        1 LAR      0.116000
     40 H101       -0.5770   -4.2510    0.2560 hc        1 LAR      0.045700
     41 H111       -1.5520   -1.3270    0.1350 hc        1 LAR      0.055200
     42 H112       -1.5210   -2.3370    1.6440 hc        1 LAR      0.055200
     43 H121        0.9990   -2.7290    1.1980 hc        1 LAR      0.048700
     44 H122        0.8780   -1.5140   -0.1260 hc        1 LAR      0.048700
     45 H131        0.4820   -1.1580    2.9190 h1        1 LAR      0.078700
     46 H141       -1.4170    0.0810    1.6630 hc        1 LAR      0.071700
     47 H142       -0.2810    1.1300    2.5970 hc        1 LAR      0.071700
     48 H151        0.0290    0.4990   -0.4410 h1        1 LAR      0.084700
     49 H161        1.7000    2.3520   -0.2930 hc        1 LAR      0.082200
     50 H162        1.3320    2.5980    1.4590 hc        1 LAR      0.082200
     51 H181        2.2220   -0.0770   -0.9720 h1        1 LAR      0.078700
     52 H191        3.1650   -2.0650   -0.3430 h1        1 LAR      0.092200
     53 H192        3.8490   -1.3710    1.1770 h1        1 LAR      0.092200
     54 H211       -5.0880    4.6000   -0.6080 hc        1 LAR      0.054700
     55 H212       -6.3040    3.2690   -0.8290 hc        1 LAR      0.054700
     56 H213       -5.8270    3.7950    0.8400 hc        1 LAR      0.054700
     57 H221       -1.3130   -2.3780   -2.0950 hc        1 LAR      0.039033
     58 H222        0.3180   -3.0390   -1.6630 hc        1 LAR      0.039033
     59 H223       -0.9920   -4.1570   -2.2280 hc        1 LAR      0.039033
     60 O5          6.1920    1.1780   -1.6120 o         1 LAR     -0.572500
@<TRIPOS>BOND
     1    1   25 1   
     2    1   26 1   
     3    2   24 1   
     4    2   26 1   
     5    2   29 1   
     6    3    7 2   
     7    4    7 1   
     8    4   21 1   
     9    5   19 1   
    10    5   23 1   
    11    6   23 1   
    12    6   30 1   
    13    7    8 1   
    14    8    9 2   
    15    8   31 1   
    16    9   10 1   
    17    9   27 1   
    18   10   11 1   
    19   10   32 1   
    20   10   33 1   
    21   11   12 1   
    22   11   34 1   
    23   11   35 1   
    24   12   13 2   
    25   12   36 1   
    26   13   14 1   
    27   13   37 1   
    28   14   15 2   
    29   14   38 1   
    30   15   16 1   
    31   15   39 1   
    32   16   17 1   
    33   16   28 1   
    34   16   40 1   
    35   17   18 1   
    36   17   41 1   
    37   17   42 1   
    38   18   19 1   
    39   18   43 1   
    40   18   44 1   
    41   19   20 1   
    42   19   45 1   
    43   20   21 1   
    44   20   46 1   
    45   20   47 1   
    46   21   22 1   
    47   21   48 1   
    48   22   23 1   
    49   22   49 1   
    50   22   50 1   
    51   23   24 1   
    52   24   25 1   
    53   24   51 1   
    54   25   52 1   
    55   25   53 1   
    56   26   60 2   
    57   27   54 1   
    58   27   55 1   
    59   27   56 1   
    60   28   57 1   
    61   28   58 1   
    62   28   59 1   
@<TRIPOS>SUBSTRUCTURE
     1 LAR         1 TEMP              0 ****  ****    0 ROOT
