@<TRIPOS>MOLECULE
LAR
   60    59     1     0     0
SMALL
bcc


@<TRIPOS>ATOM
      1 S1         -0.1560   -5.9730    0.6720 ss        1 LAR      0.151000
      2 N1          1.0580   -5.3710   -1.2990 n         1 LAR     -0.401000
      3 O1         -3.1900    0.5300   -0.5030 o         1 LAR     -0.347000
      4 O2         -1.6720    0.0060   -2.1140 os        1 LAR     -0.281000
      5 O3          1.2190   -2.8290   -0.9550 os        1 LAR     -0.317000
      6 O4         -0.4990   -3.1460    0.6160 oh        1 LAR     -0.339000
      7 O5          2.3720   -6.2560    0.3840 o         1 LAR     -0.312000
      8 C1         -2.5270    0.9090   -1.4460 c2        1 LAR      0.351000
      9 C2         -2.6990    2.3450   -1.9810 c2        1 LAR     -0.207000
     10 C3         -2.7200    3.5600   -0.9800 c1        1 LAR     -0.012000
     11 C4         -2.5940    3.3070    0.5600 c2        1 LAR     -0.150000
     12 C5         -1.6070    4.3090    1.1660 c3        1 LAR     -0.127000
     13 C6         -0.2690    4.2450    0.3980 c2        1 LAR     -0.155000
     14 C7          0.9470    3.4150    0.9910 c1        1 LAR     -0.134000
     15 C8          0.7670    2.6110    2.2690 c1        1 LAR     -0.142000
     16 C9          1.6270    1.3010    2.5090 c1        1 LAR     -0.142000
     17 C10         2.6340    0.8540    1.4700 c2        1 LAR     -0.086000
     18 C11         2.6580   -0.6690    1.4040 c3        1 LAR     -0.151000
     19 C12         1.3160   -1.1880    0.7980 c3        1 LAR     -0.184000
     20 C13         1.4880   -1.4220   -0.6600 c3        1 LAR      0.051000
     21 C14         0.5530   -0.4810   -1.4010 c3        1 LAR     -0.210000
     22 C15        -0.8720   -0.8370   -1.2110 c3        1 LAR      0.036000
     23 C16        -1.1390   -2.2540   -1.5110 c3        1 LAR     -0.172000
     24 C17        -0.1940   -3.1910   -0.7670 c3        1 LAR      0.192000
     25 C18        -0.3990   -4.5460   -1.2510 c3        1 LAR      0.016000
     26 C19        -1.2060   -5.2420   -0.3860 c3        1 LAR     -0.301000
     27 C20         1.3250   -5.7720   -0.0140 c2        1 LAR      0.203000
     28 C21        -2.8910    4.9890   -1.5120 c3        1 LAR     -0.198000
     29 C22         4.0060    1.3630    1.8460 c3        1 LAR     -0.206000
     30 HN1         1.6470   -5.3840   -2.0000 hn        1 LAR      0.263000
     31 HO4         0.0390   -3.7130    1.0600 ho        1 LAR      0.223000
     32 H21        -2.7780    2.5040   -2.9490 ha        1 LAR      0.155000
     33 H41        -3.4740    3.4190    0.9830 ha        1 LAR      0.109000
     34 H42        -2.2730    2.4020    0.7160 ha        1 LAR      0.109000
     35 H51        -1.4550    4.0890    2.1040 hc        1 LAR      0.088500
     36 H52        -1.9760    5.2090    1.0990 hc        1 LAR      0.088500
     37 H61        -0.1540    4.7570   -0.4180 ha        1 LAR      0.119000
     38 H71         1.7910    3.3750    0.5060 ha        1 LAR      0.121000
     39 H81         0.1160    2.9000    2.9420 ha        1 LAR      0.125500
     40 H91         1.5120    0.7850    3.3300 ha        1 LAR      0.125500
     41 H101        2.3810    1.2130    0.5980 ha        1 LAR      0.089000
     42 H111        2.7700   -1.0310    2.3030 hc        1 LAR      0.084500
     43 H112        3.4060   -0.9590    0.8390 hc        1 LAR      0.084500
     44 H121        1.0640   -2.0240    1.2350 hc        1 LAR      0.098000
     45 H122        0.6140   -0.5200    0.9410 hc        1 LAR      0.098000
     46 H131        2.4040   -1.2180   -0.9080 h1        1 LAR      0.113000
     47 H141        0.6980    0.4290   -1.0760 hc        1 LAR      0.108500
     48 H142        0.7640   -0.5130   -2.3570 hc        1 LAR      0.108500
     49 H151       -1.1270   -0.6530   -0.2920 h1        1 LAR      0.143000
     50 H161       -1.0370   -2.3990   -2.4750 hc        1 LAR      0.113000
     51 H162       -2.0630   -2.4640   -1.2540 hc        1 LAR      0.113000
     52 H181       -0.8010   -4.5270   -2.1410 h1        1 LAR      0.115000
     53 H191       -1.7950   -4.6350    0.0890 h1        1 LAR      0.135000
     54 H192       -1.7280   -5.9180   -0.8720 h1        1 LAR      0.135000
     55 H211       -2.9130    5.6200   -0.7580 hc        1 LAR      0.091667
     56 H212       -3.7310    5.0530   -2.0150 hc        1 LAR      0.091667
     57 H213       -2.1440    5.2100   -2.0980 hc        1 LAR      0.091667
     58 H221        4.5250    0.6380    2.2360 hc        1 LAR      0.077333
     59 H222        3.9180    2.0910    2.4990 hc        1 LAR      0.077333
     60 H223        4.4630    1.6980    1.0420 hc        1 LAR      0.077333
@<TRIPOS>BOND
     1    1   26 1   
     2    1   27 1   
     3    2   25 1   
     4    2   27 1   
     5    2   30 1   
     6    3    8 1   
     7    4    8 1   
     8    4   22 1   
     9    5   20 1   
    10    5   24 1   
    11    6   24 1   
    12    6   31 1   
    13    7   27 1   
    14    8    9 1   
    15    9   10 1   
    16    9   32 1   
    17   10   28 1   
    18   11   12 1   
    19   11   33 1   
    20   11   34 1   
    21   12   13 1   
    22   12   35 1   
    23   12   36 1   
    24   13   14 1   
    25   13   37 1   
    26   14   38 1   
    27   15   16 1   
    28   15   39 1   
    29   16   40 1   
    30   17   18 1   
    31   17   29 1   
    32   17   41 1   
    33   18   19 1   
    34   18   42 1   
    35   18   43 1   
    36   19   20 1   
    37   19   44 1   
    38   19   45 1   
    39   20   21 1   
    40   20   46 1   
    41   21   22 1   
    42   21   47 1   
    43   21   48 1   
    44   22   23 1   
    45   22   49 1   
    46   23   24 1   
    47   23   50 1   
    48   23   51 1   
    49   24   25 1   
    50   25   26 1   
    51   25   52 1   
    52   26   53 1   
    53   26   54 1   
    54   28   55 1   
    55   28   56 1   
    56   28   57 1   
    57   29   58 1   
    58   29   59 1   
    59   29   60 1   
@<TRIPOS>SUBSTRUCTURE
     1 LAR         1 TEMP              0 ****  ****    0 ROOT
