@<TRIPOS>MOLECULE
LAS
   49    45     1     0     0
SMALL
bcc


@<TRIPOS>ATOM
      1 C18         1.3950   -0.7150   -0.3850 c2        1 LAS      0.160000
      2 O19         2.2700    0.1350   -0.1940 o         1 LAS     -0.323000
      3 C9         -0.0600   -0.4680    0.0450 c3        1 LAS      0.013000
      4 C10        -1.2580    0.0250    2.2280 c3        1 LAS      0.030000
      5 C11        -0.2640   -0.9150    1.5190 c3        1 LAS     -0.138000
      6 C16         1.0400   -0.9230    2.2880 c3        1 LAS     -0.225000
      7 C12        -1.9520   -0.6880    3.3750 c3        1 LAS     -0.247000
      8 O17        -2.2140    0.5840    1.3430 oh        1 LAS     -0.330000
      9 N8         -1.0280   -1.0720   -0.8310 n         1 LAS     -0.354000
     10 C6         -1.6770   -0.4110   -1.8670 c2        1 LAS      0.318000
     11 O7         -2.2890   -1.1050   -2.7060 o         1 LAS     -0.374000
     12 C5         -1.7320    1.1010   -1.9290 c3        1 LAS     -0.158000
     13 C20        -0.5720    1.6550   -2.7310 c3        1 LAS     -0.232000
     14 C3          0.7130    1.0590   -2.2670 c1        1 LAS     -0.058000
     15 O2          1.7440    1.8590   -2.4090 oh        1 LAS     -0.215000
     16 H10        -0.7020    0.9300    2.6120 h1        1 LAS      0.115000
     17 H11        -0.6880   -1.9590    1.5340 hc        1 LAS      0.102000
     18 H16         0.8460   -1.1230    3.3700 hc        1 LAS      0.087333
     19 H16A        1.7190   -1.7210    1.9000 hc        1 LAS      0.087333
     20 H16B        1.5620    0.0610    2.1950 hc        1 LAS      0.087333
     21 H12        -1.2030   -1.0440    4.1210 hc        1 LAS      0.084333
     22 H12A       -2.6610    0.0130    3.8780 hc        1 LAS      0.084333
     23 H12B       -2.5310   -1.5660    3.0000 hc        1 LAS      0.084333
     24 HO17       -2.7500   -0.1410    0.9980 ho        1 LAS      0.207000
     25 HN8        -0.9480   -2.0630   -0.9390 hn        1 LAS      0.228000
     26 H5         -1.7590    1.5460   -0.8990 hc        1 LAS      0.116000
     27 H20        -2.6940    1.3780   -2.4400 hc        1 LAS      0.116000
     28 H20A       -0.5910    2.7760   -2.6900 hc        1 LAS      0.112500
     29 H20B       -0.6860    1.3550   -3.8110 hc        1 LAS      0.112500
     30 H3         -0.1900    0.6600    0.0210 h1        1 LAS      0.145000
     31 HO2         2.5420    1.3780   -2.0940 ho        1 LAS      0.280000
     32 S1          1.6830   -2.2780   -1.0760 sh        1 LAS     -0.023000
     33 C111        5.9020   -2.5270    0.8860 c1        1 LAS     -0.205000
     34 C121        6.1310   -2.9650   -0.2060 c1        1 LAS     -0.076000
     35 C13         4.1470   -0.4120   -4.5900 c1        1 LAS      0.442000
     36 O5          3.7370    0.4010   -3.8260 o         1 LAS     -0.221500
     37 O6          4.5610   -1.2050   -5.3760 o         1 LAS     -0.221500
     38 N2          6.3920   -3.4640   -1.4280 n         1 LAS     -0.258000
     39 C14         5.8100   -2.9880   -2.6030 c2        1 LAS      0.325000
     40 C15         6.2480   -3.6530   -3.8830 c3        1 LAS     -0.251000
     41 O71         4.9690   -2.0690   -2.5860 o         1 LAS     -0.372000
     42 H181        5.7020   -2.1380    1.8500 ha        1 LAS      0.240000
     43 H19         2.9710   -2.1440   -1.4240 hs        1 LAS      0.099000
     44 H201        4.4500    0.7220   -1.4600 ha        1 LAS      0.003000
     45 H22         7.0650   -4.1970   -1.4790 hn        1 LAS      0.247000
     46 H23         7.3570   -3.6000   -4.0020 hc        1 LAS      0.118000
     47 H24         5.9280   -4.7240   -3.8910 hc        1 LAS      0.118000
     48 H25         5.7630   -3.1220   -4.7420 hc        1 LAS      0.118000
     49 H221        4.2940    0.0650   -1.5230 ha        1 LAS      0.003000
@<TRIPOS>BOND
     1    1    2 1   
     2    1    3 1   
     3    1   32 1   
     4    3    5 1   
     5    3    9 1   
     6    3   30 1   
     7    4    5 1   
     8    4    7 1   
     9    4    8 1   
    10    4   16 1   
    11    5    6 1   
    12    5   17 1   
    13    6   18 1   
    14    6   19 1   
    15    6   20 1   
    16    7   21 1   
    17    7   22 1   
    18    7   23 1   
    19    8   24 1   
    20    9   10 1   
    21    9   25 1   
    22   10   11 1   
    23   10   12 1   
    24   12   13 1   
    25   12   26 1   
    26   12   27 1   
    27   13   14 1   
    28   13   28 1   
    29   13   29 1   
    30   14   15 1   
    31   15   31 1   
    32   32   43 1   
    33   33   34 1   
    34   33   42 1   
    35   34   38 1   
    36   35   36 1   
    37   35   37 1   
    38   38   39 1   
    39   38   45 1   
    40   39   40 1   
    41   39   41 1   
    42   40   46 1   
    43   40   47 1   
    44   40   48 1   
    45   44   49 1   
@<TRIPOS>SUBSTRUCTURE
     1 LAS         1 TEMP              0 ****  ****    0 ROOT
