@<TRIPOS>MOLECULE
LAS
   48    47     1     0     0
SMALL
bcc


@<TRIPOS>ATOM
      1 C18         0.0050    0.3880    0.5940 c1        1 LAS      0.089000
      2 O19         0.5010    1.2910    1.2290 o         1 LAS     -0.311000
      3 C9         -1.5340    0.1070    0.7050 c2        1 LAS     -0.033000
      4 C10        -1.6210    0.0740    2.2120 c3        1 LAS      0.051000
      5 C11        -3.0170   -0.3370    2.6280 c3        1 LAS     -0.094000
      6 C16        -3.5910    0.7020    3.5470 c3        1 LAS     -0.203000
      7 C12        -2.9590   -1.6650    3.3440 c3        1 LAS     -0.203000
      8 O17        -1.3370    1.3540    2.7250 oh        1 LAS     -0.343000
      9 N8         -1.9640   -1.0830    0.0630 n         1 LAS     -0.353000
     10 C6         -2.5240   -0.7150   -1.2690 c2        1 LAS      0.303000
     11 O7         -2.4800   -1.3950   -2.2760 o         1 LAS     -0.355000
     12 C5         -3.1650    0.5600   -1.1400 c3        1 LAS     -0.172000
     13 C20        -3.0220    1.3420   -2.4810 c3        1 LAS     -0.200000
     14 C3         -2.4560    1.2000    0.0150 c3        1 LAS      0.035000
     15 O2         -1.6880    2.2330   -0.4320 oh        1 LAS     -0.315000
     16 H10        -0.9740   -0.5680    2.5620 h1        1 LAS      0.097000
     17 H11        -3.5820   -0.4180    1.8360 hc        1 LAS      0.088000
     18 H16        -4.5280    0.4880    3.7350 hc        1 LAS      0.074500
     19 H16A       -3.5360    1.5760    3.1240 hc        1 LAS      0.074500
     20 H16B       -3.0830    0.7130    4.3860 hc        1 LAS      0.074500
     21 H12        -2.4320   -1.5720    4.1610 hc        1 LAS      0.074500
     22 H12A       -2.5410   -2.3330    2.7610 hc        1 LAS      0.074500
     23 H12B       -3.8660   -1.9520    3.5710 hc        1 LAS      0.074500
     24 HO17       -0.9170    1.2750    3.4960 ho        1 LAS      0.227000
     25 HN8        -1.9590   -1.9240    0.4300 hn        1 LAS      0.286000
     26 H5         -4.1400    0.5750   -1.0110 hc        1 LAS      0.118000
     27 H20        -3.5540    0.9030   -3.1740 hc        1 LAS      0.087000
     28 H20A       -3.3410    2.2630   -2.3580 hc        1 LAS      0.087000
     29 H20B       -2.0800    1.3560   -2.7520 hc        1 LAS      0.087000
     30 H3         -3.1130    1.5340    0.6610 h1        1 LAS      0.147000
     31 HO2        -2.1760    2.9820   -0.4500 ho        1 LAS      0.214000
     32 S1          1.0450   -0.6680   -0.4340 ss        1 LAS      0.090000
     33 C111        2.6990    0.0710   -0.5830 c3        1 LAS     -0.239000
     34 C121        3.5800   -0.8290   -1.4200 c3        1 LAS     -0.089000
     35 C13         2.9710   -0.9950   -2.7880 c2        1 LAS      0.339000
     36 O5          2.5950   -2.1260   -3.1740 o         1 LAS     -0.548500
     37 O6          2.8530    0.0020   -3.5500 o         1 LAS     -0.548500
     38 N2          4.8730   -0.2490   -1.5430 n         1 LAS     -0.324000
     39 C14         5.9410   -1.0080   -2.0970 c2        1 LAS      0.293000
     40 C15         7.2660   -0.3600   -2.3490 c3        1 LAS     -0.245000
     41 O71         5.8040   -2.1910   -2.2840 o         1 LAS     -0.435000
     42 H181        3.0930    0.1760    0.3120 h1        1 LAS      0.141000
     43 H19         2.6270    0.9450   -1.0120 h1        1 LAS      0.141000
     44 H201        3.6550   -1.7040   -0.9890 h1        1 LAS      0.117000
     45 H22         5.0020    0.6410   -1.3310 hn        1 LAS      0.241000
     46 H23         7.5780    0.0840   -1.5240 hc        1 LAS      0.094667
     47 H24         7.1760    0.2970   -3.0570 hc        1 LAS      0.094667
     48 H25         7.9150   -1.0400   -2.6170 hc        1 LAS      0.094667
@<TRIPOS>BOND
     1    1    2 1   
     2    1   32 1   
     3    3    4 1   
     4    3    9 1   
     5    3   14 1   
     6    4    5 1   
     7    4    8 1   
     8    4   16 1   
     9    5    6 1   
    10    5    7 1   
    11    5   17 1   
    12    6   18 1   
    13    6   19 1   
    14    6   20 1   
    15    7   21 1   
    16    7   22 1   
    17    7   23 1   
    18    8   24 1   
    19    9   10 1   
    20    9   25 1   
    21   10   11 1   
    22   10   12 1   
    23   12   13 1   
    24   12   14 1   
    25   12   26 1   
    26   13   27 1   
    27   13   28 1   
    28   13   29 1   
    29   14   15 1   
    30   14   30 1   
    31   15   31 1   
    32   32   33 1   
    33   33   34 1   
    34   33   42 1   
    35   33   43 1   
    36   34   35 1   
    37   34   38 1   
    38   34   44 1   
    39   35   36 1   
    40   35   37 1   
    41   38   39 1   
    42   38   45 1   
    43   39   40 1   
    44   39   41 1   
    45   40   46 1   
    46   40   47 1   
    47   40   48 1   
@<TRIPOS>SUBSTRUCTURE
     1 LAS         1 TEMP              0 ****  ****    0 ROOT
