@<TRIPOS>MOLECULE
LAS
   49    46     1     0     0
SMALL
bcc


@<TRIPOS>ATOM
      1 C18         0.7350   -1.8920    1.3210 c2        1 LAS      0.114000
      2 O19         1.6660   -1.4080    1.9790 o         1 LAS     -0.293000
      3 C9         -0.2650   -0.9120    0.6690 c3        1 LAS     -0.030000
      4 C10        -0.6880    0.1240    1.7590 c3        1 LAS     -0.005000
      5 C11        -1.7010   -0.3740    2.8040 c3        1 LAS     -0.229000
      6 C16        -1.3750   -1.5500    3.6040 c1        1 LAS     -0.040000
      7 C12        -1.9960    0.7510    3.8000 c3        1 LAS     -0.192000
      8 O17        -1.2520    1.2180    1.0420 oh        1 LAS     -0.332000
      9 N8         -1.3790   -1.5830    0.0300 n         1 LAS     -0.369000
     10 C6         -1.4850   -1.2470   -1.3350 c2        1 LAS      0.301000
     11 O7         -2.4420   -1.5980   -2.0340 o         1 LAS     -0.315000
     12 C5         -0.2700   -0.4480   -1.7900 c3        1 LAS     -0.119000
     13 C20         0.5160   -1.1910   -2.8400 c3        1 LAS     -0.202000
     14 C3          0.5160   -0.1500   -0.4950 c3        1 LAS      0.046000
     15 O2          1.8380   -0.6140   -0.6360 oh        1 LAS     -0.319000
     16 H10         0.2550    0.4580    2.2810 h1        1 LAS      0.107000
     17 H11        -2.6780   -0.6060    2.2790 hc        1 LAS      0.148000
     18 H16        -0.3770   -1.9950    3.4750 ha        1 LAS      0.055000
     19 H16A       -2.6210   -3.2000    2.6880 ha        1 LAS      0.009500
     20 H16B       -2.0930   -3.2990    2.2690 ha        1 LAS      0.009500
     21 H12        -2.5710    0.3510    4.6720 hc        1 LAS      0.092333
     22 H12A       -2.6100    1.5420    3.3070 hc        1 LAS      0.092333
     23 H12B       -1.0460    1.2040    4.1700 hc        1 LAS      0.092333
     24 HO17       -1.3460    1.9460    1.6680 ho        1 LAS      0.213000
     25 HN8        -2.2110   -1.7180    0.5580 hn        1 LAS      0.229000
     26 H5         -0.6450    0.5220   -2.2170 hc        1 LAS      0.136000
     27 H20        -0.1520   -1.4580   -3.6940 hc        1 LAS      0.097333
     28 H20A        1.3530   -0.5490   -3.2110 hc        1 LAS      0.097333
     29 H20B        0.9590   -2.1260   -2.4190 hc        1 LAS      0.097333
     30 H3          0.5130    0.9520   -0.2770 h1        1 LAS      0.117000
     31 HO2         2.3430   -0.2770    0.1190 ho        1 LAS      0.224000
     32 S1          0.6150   -3.6020    1.1590 sh        1 LAS      0.107000
     33 C111        5.0980   -2.0730   -2.9070 c2        1 LAS     -0.209000
     34 C121        4.2670   -1.0140   -2.9790 c2        1 LAS     -0.107000
     35 C13         9.2650    0.7810   -3.9500 c1        1 LAS      0.432000
     36 O5          9.6250    1.6850   -4.6320 o         1 LAS     -0.215000
     37 O6          8.9210   -0.1310   -3.2650 o         1 LAS     -0.215000
     38 N2          4.2650    0.0560   -3.8720 n2        1 LAS     -0.236000
     39 C14         5.2770    0.7950   -4.1620 c2        1 LAS      0.081000
     40 C15         6.2880   -2.3140   -3.7400 c3        1 LAS     -0.197000
     41 O71         6.5700    0.7750   -3.6880 oh        1 LAS     -0.322000
     42 H181        4.8710   -2.8660   -2.1750 ha        1 LAS      0.133000
     43 H19        -0.3790   -3.7610    0.3000 hs        1 LAS      0.063000
     44 H201        3.3730   -0.9730   -2.3140 h4        1 LAS      0.168000
     45 H22         6.2970   -1.6790   -4.6610 hc        1 LAS      0.085333
     46 H23         5.1680    1.6290   -4.8870 h5        1 LAS      0.194000
     47 H24         7.2230   -2.0930   -3.1600 hc        1 LAS      0.085333
     48 H25         6.3260   -3.3860   -4.0580 hc        1 LAS      0.085333
     49 H221        6.6920    0.0600   -3.0420 ho        1 LAS      0.238000
@<TRIPOS>BOND
     1    1    2 1   
     2    1    3 1   
     3    1   32 1   
     4    3    4 1   
     5    3    9 1   
     6    3   14 1   
     7    4    5 1   
     8    4    8 1   
     9    4   16 1   
    10    5    6 1   
    11    5    7 1   
    12    5   17 1   
    13    6   18 1   
    14    7   21 1   
    15    7   22 1   
    16    7   23 1   
    17    8   24 1   
    18    9   10 1   
    19    9   25 1   
    20   10   11 1   
    21   10   12 1   
    22   12   13 1   
    23   12   14 1   
    24   12   26 1   
    25   13   27 1   
    26   13   28 1   
    27   13   29 1   
    28   14   15 1   
    29   14   30 1   
    30   15   31 1   
    31   19   20 1   
    32   32   43 1   
    33   33   34 1   
    34   33   40 1   
    35   33   42 1   
    36   34   38 1   
    37   34   44 1   
    38   35   36 1   
    39   35   37 1   
    40   38   39 1   
    41   39   41 1   
    42   39   46 1   
    43   40   45 1   
    44   40   47 1   
    45   40   48 1   
    46   41   49 1   
@<TRIPOS>SUBSTRUCTURE
     1 LAS         1 TEMP              0 ****  ****    0 ROOT
