@<TRIPOS>MOLECULE
LAS
   48    48     1     0     0
SMALL
bcc


@<TRIPOS>ATOM
      1 C18         0.6350   -0.3020   -0.8550 c         1 LAS      0.570700
      2 O19         0.4250   -1.4310   -1.3170 o         1 LAS     -0.544100
      3 C9          2.0400    0.0270   -0.3050 c3        1 LAS     -0.012600
      4 C10         2.5490   -1.2140    0.5060 c3        1 LAS      0.148100
      5 C11         1.9090   -1.3930    1.8900 c3        1 LAS     -0.089700
      6 C16         0.4120   -1.5840    1.8070 c3        1 LAS     -0.100100
      7 C12         2.5410   -2.5900    2.5780 c3        1 LAS     -0.100100
      8 O17         3.9630   -1.1530    0.6320 oh        1 LAS     -0.609800
      9 N8          2.1150    1.2440    0.4930 n         1 LAS     -0.546900
     10 C6          2.9870    2.1870   -0.0480 c         1 LAS      0.696500
     11 O7          3.1680    3.3190    0.4250 o         1 LAS     -0.624500
     12 C5          3.7440    1.5900   -1.2360 c3        1 LAS     -0.180700
     13 C20         3.7580    2.5420   -2.4010 c3        1 LAS     -0.087100
     14 C3          3.0340    0.2470   -1.5180 c3        1 LAS      0.142100
     15 O2          2.2770    0.2690   -2.7110 oh        1 LAS     -0.576800
     16 H10         2.3620   -2.1270   -0.1290 h1        1 LAS      0.102700
     17 H11         2.1270   -0.4790    2.5110 hc        1 LAS      0.054700
     18 H16         0.1520   -2.3430    1.0300 hc        1 LAS      0.042533
     19 H16A        0.0150   -1.9320    2.7920 hc        1 LAS      0.042533
     20 H16B       -0.1040   -0.6230    1.5500 hc        1 LAS      0.042533
     21 H12         2.2960   -3.5290    2.0260 hc        1 LAS      0.042533
     22 H12A        3.6520   -2.4800    2.6120 hc        1 LAS      0.042533
     23 H12B        2.1550   -2.6790    3.6210 hc        1 LAS      0.042533
     24 HO17        4.1670   -0.4390    1.2470 ho        1 LAS      0.403000
     25 HN8         1.3160    1.5200    1.0200 hn        1 LAS      0.346500
     26 H5          4.7950    1.3820   -0.8980 hc        1 LAS      0.077700
     27 H20         4.1540    3.5340   -2.0720 hc        1 LAS      0.049033
     28 H20A        4.4080    2.1430   -3.2160 hc        1 LAS      0.049033
     29 H20B        2.7260    2.6870   -2.8060 hc        1 LAS      0.049033
     30 H3          3.7790   -0.5940   -1.5560 h1        1 LAS      0.071700
     31 HO2         2.9110    0.3110   -3.4380 ho        1 LAS      0.403000
     32 S1         -0.4740    0.9920   -0.7560 ss        1 LAS     -0.242700
     33 C111       -2.0360    0.3530   -1.3390 c3        1 LAS      0.016700
     34 C121       -3.1280    0.4580   -0.2860 c3        1 LAS     -0.064300
     35 C13        -4.5100    0.4610   -1.0710 c         1 LAS      0.915600
     36 O5         -5.3090   -0.4900   -0.8640 o         1 LAS     -0.816800
     37 O6         -4.6920    1.4300   -1.8490 o         1 LAS     -0.816800
     38 N2         -3.0700   -0.5990    0.7030 n         1 LAS     -0.512900
     39 C14        -2.8270   -0.3470    2.0370 c         1 LAS      0.639100
     40 C15        -3.1620   -1.4560    3.0140 c3        1 LAS     -0.178100
     41 O71        -2.2770    0.6990    2.4500 o         1 LAS     -0.643100
     42 H181       -2.3290    1.0140   -2.1970 h1        1 LAS      0.099200
     43 H19        -1.9040   -0.6920   -1.7090 h1        1 LAS      0.099200
     44 H201       -3.0430    1.4580    0.2300 h1        1 LAS      0.081700
     45 H22        -3.7170   -1.3390    0.5020 hn        1 LAS      0.318500
     46 H23        -3.0150   -1.0790    4.0530 hc        1 LAS      0.053033
     47 H24        -4.2200   -1.7890    2.8920 hc        1 LAS      0.053033
     48 H25        -2.4820   -2.3260    2.8440 hc        1 LAS      0.053033
@<TRIPOS>BOND
     1    1    2 2   
     2    1    3 1   
     3    1   32 1   
     4    3    4 1   
     5    3    9 1   
     6    3   14 1   
     7    4    5 1   
     8    4    8 1   
     9    4   16 1   
    10    5    6 1   
    11    5    7 1   
    12    5   17 1   
    13    6   18 1   
    14    6   19 1   
    15    6   20 1   
    16    7   21 1   
    17    7   22 1   
    18    7   23 1   
    19    8   24 1   
    20    9   10 1   
    21    9   25 1   
    22   10   11 2   
    23   10   12 1   
    24   12   13 1   
    25   12   14 1   
    26   12   26 1   
    27   13   27 1   
    28   13   28 1   
    29   13   29 1   
    30   14   15 1   
    31   14   30 1   
    32   15   31 1   
    33   32   33 1   
    34   33   34 1   
    35   33   42 1   
    36   33   43 1   
    37   34   35 1   
    38   34   38 1   
    39   34   44 1   
    40   35   36 1   
    41   35   37 1   
    42   38   39 1   
    43   38   45 1   
    44   39   40 1   
    45   39   41 2   
    46   40   46 1   
    47   40   47 1   
    48   40   48 1   
@<TRIPOS>SUBSTRUCTURE
     1 LAS         1 TEMP              0 ****  ****    0 ROOT
