@<TRIPOS>MOLECULE
LAS
   49    44     1     0     0
SMALL
bcc


@<TRIPOS>ATOM
      1 C18         1.3810   -0.7350   -0.2630 c2        1 LAS      0.061000
      2 O19         2.1580    0.1840    0.0280 o         1 LAS     -0.321000
      3 C9         -0.1030   -0.6270    0.1530 c3        1 LAS      0.005000
      4 C10        -2.6250    1.3730    2.8400 c1        1 LAS     -0.024000
      5 C11        -0.3490   -1.6690    1.2770 c3        1 LAS     -0.119000
      6 C16         0.3910   -1.2300    2.5250 c3        1 LAS     -0.212500
      7 C12        -1.8200   -1.8430    1.5840 c3        1 LAS     -0.212500
      8 O17        -3.5770    1.3020    1.9870 oh        1 LAS     -0.158000
      9 N8         -0.9820   -0.7710   -0.9700 ns        1 LAS     -0.366000
     10 C6         -1.6380    0.2350   -1.6470 c2        1 LAS      0.333000
     11 O7         -2.4650   -0.0900   -2.5230 o         1 LAS     -0.365000
     12 C5         -1.3500    1.7100   -1.4000 c3        1 LAS     -0.194000
     13 C20         0.0170    2.0890   -1.9270 c3        1 LAS     -0.223000
     14 C3         -1.6250    2.0910    0.0140 c1        1 LAS     -0.052000
     15 O2         -0.9830    3.1760    0.3960 oh        1 LAS     -0.204000
     16 H10        -1.5840    1.4780    2.4310 ha        1 LAS     -0.026000
     17 H11         0.0670   -2.6590    0.9320 hc        1 LAS      0.108000
     18 H16         1.4600   -1.0030    2.2930 hc        1 LAS      0.082667
     19 H16A        0.3560   -2.0420    3.2910 hc        1 LAS      0.082667
     20 H16B       -0.0810   -0.3150    2.9590 hc        1 LAS      0.082667
     21 H12        -1.9410   -2.4540    2.5130 hc        1 LAS      0.082667
     22 H12A       -2.3500   -2.3680    0.7530 hc        1 LAS      0.082667
     23 H12B       -2.3120   -0.8530    1.7500 hc        1 LAS      0.082667
     24 HO17       -3.3150    1.3490    1.0300 ho        1 LAS      0.192000
     25 HN8        -1.2010   -1.7060   -1.2430 hn        1 LAS      0.243000
     26 H5         -2.1350    2.2720   -2.0040 hc        1 LAS      0.163000
     27 H20         0.1180    1.7880   -2.9970 hc        1 LAS      0.096000
     28 H20A        0.1560    3.1950   -1.8490 hc        1 LAS      0.096000
     29 H20B        0.8230    1.5920   -1.3330 hc        1 LAS      0.096000
     30 H3         -0.2410    0.4040    0.6070 h1        1 LAS      0.118000
     31 HO2        -1.2460    3.3700    1.3170 ho        1 LAS      0.259000
     32 S1          1.7660   -2.1790   -1.0930 sh        1 LAS      0.081000
     33 C111        5.0800   -0.3330   -0.9090 c1        1 LAS     -0.218000
     34 C121        5.7000   -1.1730   -1.4990 c1        1 LAS     -0.087000
     35 C13         9.6270   -1.0970   -4.6230 c1        1 LAS      0.426000
     36 O5         10.3520   -0.4080   -5.2620 o         1 LAS     -0.212500
     37 O6          8.9010   -1.7940   -3.9830 o         1 LAS     -0.212500
     38 N2          6.3800   -2.1300   -2.1570 ns        1 LAS     -0.262000
     39 C14         5.7790   -3.2990   -2.6270 c2        1 LAS      0.317000
     40 C15         6.6760   -4.2740   -3.3450 c3        1 LAS     -0.241000
     41 O71         4.5690   -3.5210   -2.4410 o         1 LAS     -0.357000
     42 H181        4.5170    0.4020   -0.3860 ha        1 LAS      0.255000
     43 H19         3.0790   -2.0000   -1.3210 hs        1 LAS      0.098000
     44 H201        2.1290   -4.0210   -2.5130 ha        1 LAS      0.014000
     45 H22         7.3400   -1.9520   -2.3600 hn        1 LAS      0.255000
     46 H23         6.0420   -4.9460   -3.9730 hc        1 LAS      0.113000
     47 H24         7.2220   -4.8920   -2.5900 hc        1 LAS      0.113000
     48 H25         7.4210   -3.7560   -3.9970 hc        1 LAS      0.113000
     49 H221        2.2650   -4.3260   -1.9180 ha        1 LAS      0.014000
@<TRIPOS>BOND
     1    1    2 1   
     2    1    3 1   
     3    1   32 1   
     4    3    5 1   
     5    3    9 1   
     6    3   30 1   
     7    4    8 1   
     8    4   16 1   
     9    5    6 1   
    10    5    7 1   
    11    5   17 1   
    12    6   18 1   
    13    6   19 1   
    14    6   20 1   
    15    7   21 1   
    16    7   22 1   
    17    7   23 1   
    18    8   24 1   
    19    9   10 1   
    20    9   25 1   
    21   10   11 1   
    22   10   12 1   
    23   12   13 1   
    24   12   14 1   
    25   12   26 1   
    26   13   27 1   
    27   13   28 1   
    28   13   29 1   
    29   14   15 1   
    30   15   31 1   
    31   32   43 1   
    32   33   34 1   
    33   33   42 1   
    34   34   38 1   
    35   35   36 1   
    36   35   37 1   
    37   38   39 1   
    38   38   45 1   
    39   39   40 1   
    40   39   41 1   
    41   40   46 1   
    42   40   47 1   
    43   40   48 1   
    44   44   49 1   
@<TRIPOS>SUBSTRUCTURE
     1 LAS         1 TEMP              0 ****  ****    0 ROOT
