@<TRIPOS>MOLECULE
LAT
   45    46     1     0     0
SMALL
bcc


@<TRIPOS>ATOM
      1 C1         -0.5230   -0.2460   -1.2230 c3        1 LAT      0.311900
      2 C2         -1.2620    0.5250   -2.3330 c3        1 LAT      0.083100
      3 C3         -0.9820   -0.1640   -3.6780 c3        1 LAT      0.111100
      4 C4          0.5370   -0.2540   -3.9130 c3        1 LAT      0.123100
      5 C5          1.2140   -0.9180   -2.7070 c3        1 LAT      0.109100
      6 C6          2.7440   -0.8100   -2.7780 c3        1 LAT      0.149400
      7 O1         -0.5990    0.5430   -0.0530 os        1 LAT     -0.412600
      8 O2         -2.6610    0.4730   -2.1260 oh        1 LAT     -0.606800
      9 O3         -1.5140    0.5940   -4.7500 oh        1 LAT     -0.605800
     10 O4          1.1080    1.0280   -4.1030 oh        1 LAT     -0.588800
     11 O5          0.8710   -0.3010   -1.4660 os        1 LAT     -0.415600
     12 O6          3.3390   -1.4030   -1.6460 oh        1 LAT     -0.607800
     13 C1'        -0.0570    0.3390    4.0060 c3        1 LAT      0.313900
     14 C2'         1.2440    0.2050    3.1980 c3        1 LAT      0.080100
     15 C3'         1.0160    0.5990    1.7270 c3        1 LAT      0.143100
     16 C4'        -0.2130   -0.1260    1.1540 c3        1 LAT      0.128100
     17 C5'        -1.4260   -0.0030    2.0940 c3        1 LAT      0.093100
     18 C6'        -2.5630   -0.9210    1.6310 c3        1 LAT      0.135400
     19 O1'         0.1330   -0.2900    5.2480 oh        1 LAT     -0.604800
     20 O2'         2.2250    1.0960    3.6970 oh        1 LAT     -0.599800
     21 O3'         2.1380    0.1810    0.9680 oh        1 LAT     -0.588800
     22 O5'        -1.1090   -0.4190    3.4210 os        1 LAT     -0.461600
     23 O6'        -3.7560   -0.6470    2.3310 oh        1 LAT     -0.591800
     24 H1         -0.9520   -1.2760   -1.0720 h2        1 LAT      0.047700
     25 H2         -0.9000    1.5900   -2.3620 h1        1 LAT      0.088700
     26 H3         -1.4370   -1.1920   -3.6800 h1        1 LAT      0.057700
     27 H4          0.7240   -0.8790   -4.8320 h1        1 LAT      0.057700
     28 H5          0.8950   -1.9980   -2.6710 h1        1 LAT      0.049700
     29 H61         3.0380    0.2690   -2.8650 h1        1 LAT      0.063200
     30 H62         3.1220   -1.3910   -3.6590 h1        1 LAT      0.063200
     31 HO2        -2.8360    0.9500   -1.3030 ho        1 LAT      0.424000
     32 HO3        -2.4400    0.7670   -4.5350 ho        1 LAT      0.430000
     33 HO4         0.5720    1.4750   -4.7730 ho        1 LAT      0.424000
     34 HO6         3.0060   -0.9330   -0.8660 ho        1 LAT      0.430000
     35 H1'        -0.3620    1.4140    4.1380 h2        1 LAT      0.056700
     36 H2'         1.6170   -0.8550    3.2590 h1        1 LAT      0.076700
     37 H3'         0.8810    1.7120    1.6400 h1        1 LAT      0.070700
     38 H4'         0.0450   -1.2020    0.9650 h1        1 LAT      0.083700
     39 H5'        -1.7790    1.0660    2.1170 h1        1 LAT      0.071700
     40 H6'1       -2.7930   -0.7050    0.5520 h1        1 LAT      0.059700
     41 H6'2       -2.2670   -1.9950    1.7600 h1        1 LAT      0.059700
     42 HO1'       -0.7270   -0.6010    5.5620 ho        1 LAT      0.434000
     43 HO2'        2.3910    0.8370    4.6140 ho        1 LAT      0.425000
     44 HO3'        2.8860    0.7070    1.2810 ho        1 LAT      0.420000
     45 HO6'       -3.5810   -0.8140    3.2660 ho        1 LAT      0.411000
@<TRIPOS>BOND
     1    1    2 1   
     2    1    7 1   
     3    1   11 1   
     4    1   24 1   
     5    2    3 1   
     6    2    8 1   
     7    2   25 1   
     8    3    4 1   
     9    3    9 1   
    10    3   26 1   
    11    4    5 1   
    12    4   10 1   
    13    4   27 1   
    14    5    6 1   
    15    5   11 1   
    16    5   28 1   
    17    6   12 1   
    18    6   29 1   
    19    6   30 1   
    20    7   16 1   
    21    8   31 1   
    22    9   32 1   
    23   10   33 1   
    24   12   34 1   
    25   13   14 1   
    26   13   19 1   
    27   13   22 1   
    28   13   35 1   
    29   14   15 1   
    30   14   20 1   
    31   14   36 1   
    32   15   16 1   
    33   15   21 1   
    34   15   37 1   
    35   16   17 1   
    36   16   38 1   
    37   17   18 1   
    38   17   22 1   
    39   17   39 1   
    40   18   23 1   
    41   18   40 1   
    42   18   41 1   
    43   19   42 1   
    44   20   43 1   
    45   21   44 1   
    46   23   45 1   
@<TRIPOS>SUBSTRUCTURE
     1 LAT         1 TEMP              0 ****  ****    0 ROOT
