@<TRIPOS>MOLECULE
LAU
   37    36     1     0     0
SMALL
bcc


@<TRIPOS>ATOM
      1 O1          0.2300    0.9440   -0.1300 o         1 LAU     -0.853800
      2 O2          1.5670   -0.6190   -0.9950 o         1 LAU     -0.853800
      3 C1          1.1850    0.1190   -0.0420 c         1 LAU      0.907600
      4 C2          1.9470    0.0170    1.2920 c3        1 LAU     -0.193400
      5 C3          0.9980   -0.0560    2.4620 c3        1 LAU     -0.065400
      6 C4          1.7270    0.0290    3.7870 c3        1 LAU     -0.078400
      7 C5          0.7680   -0.0630    4.9550 c3        1 LAU     -0.078400
      8 C6          1.4950    0.0300    6.2800 c3        1 LAU     -0.078400
      9 C7          0.5330   -0.0620    7.4450 c3        1 LAU     -0.079400
     10 C8          1.2610    0.0290    8.7700 c3        1 LAU     -0.078400
     11 C9          0.2990   -0.0610    9.9350 c3        1 LAU     -0.079400
     12 C10         1.0260    0.0290   11.2590 c3        1 LAU     -0.079400
     13 C11         0.0640   -0.0610   12.4250 c3        1 LAU     -0.080400
     14 C12         0.7840    0.0280   13.7450 c3        1 LAU     -0.091100
     15 H21         2.5990    0.9230    1.3830 hc        1 LAU      0.018700
     16 H22         2.6110   -0.8830    1.2720 hc        1 LAU      0.018700
     17 H31         0.4190   -1.0150    2.4150 hc        1 LAU      0.043700
     18 H32         0.2560    0.7830    2.3760 hc        1 LAU      0.043700
     19 H41         2.2930    0.9960    3.8430 hc        1 LAU      0.025700
     20 H42         2.4820   -0.7980    3.8560 hc        1 LAU      0.025700
     21 H51         0.2050   -1.0320    4.9020 hc        1 LAU      0.036700
     22 H52         0.0110    0.7620    4.8820 hc        1 LAU      0.036700
     23 H61         2.2520   -0.7950    6.3510 hc        1 LAU      0.034200
     24 H62         2.0570    0.9990    6.3320 hc        1 LAU      0.034200
     25 H71        -0.2230    0.7630    7.3740 hc        1 LAU      0.037200
     26 H72        -0.0300   -1.0310    7.3920 hc        1 LAU      0.037200
     27 H81         2.0170   -0.7970    8.8410 hc        1 LAU      0.036700
     28 H82         1.8250    0.9980    8.8220 hc        1 LAU      0.036700
     29 H91        -0.2660   -1.0300    9.8810 hc        1 LAU      0.038200
     30 H92        -0.4570    0.7650    9.8630 hc        1 LAU      0.038200
     31 H101        1.5910    0.9970   11.3120 hc        1 LAU      0.037700
     32 H102        1.7810   -0.7980   11.3300 hc        1 LAU      0.037700
     33 H111       -0.6910    0.7660   12.3500 hc        1 LAU      0.037700
     34 H112       -0.5010   -1.0290   12.3680 hc        1 LAU      0.037700
     35 H121        1.3330    0.9970   13.8300 hc        1 LAU      0.029367
     36 H122        0.0570   -0.0410   14.5900 hc        1 LAU      0.029367
     37 H123        1.5240   -0.8030   13.8480 hc        1 LAU      0.029367
@<TRIPOS>BOND
     1    1    3 1   
     2    2    3 1   
     3    3    4 1   
     4    4    5 1   
     5    4   15 1   
     6    4   16 1   
     7    5    6 1   
     8    5   17 1   
     9    5   18 1   
    10    6    7 1   
    11    6   19 1   
    12    6   20 1   
    13    7    8 1   
    14    7   21 1   
    15    7   22 1   
    16    8    9 1   
    17    8   23 1   
    18    8   24 1   
    19    9   10 1   
    20    9   25 1   
    21    9   26 1   
    22   10   11 1   
    23   10   27 1   
    24   10   28 1   
    25   11   12 1   
    26   11   29 1   
    27   11   30 1   
    28   12   13 1   
    29   12   31 1   
    30   12   32 1   
    31   13   14 1   
    32   13   33 1   
    33   13   34 1   
    34   14   35 1   
    35   14   36 1   
    36   14   37 1   
@<TRIPOS>SUBSTRUCTURE
     1 LAU         1 TEMP              0 ****  ****    0 ROOT
