@<TRIPOS>MOLECULE
LAV
   38    36     1     0     0
SMALL
bcc


@<TRIPOS>ATOM
      1 C          -0.4220   -0.0950    0.5580 c3        1 LAV     -0.060700
      2 N          -1.3470   -1.9970   -0.5930 n3        1 LAV     -0.926800
      3 O           0.3620    2.0540    3.2720 o         1 LAV     -0.811500
      4 C1          1.0160    1.8230    2.2070 c1        1 LAV      0.764000
      5 N1          1.0210    0.0640    0.5640 nh        1 LAV     -0.372100
      6 C2          2.9390    0.3230    1.9420 c3        1 LAV     -0.127000
      7 C3          1.4580    0.4060    1.8790 c2        1 LAV      0.157200
      8 CA         -0.8680   -0.6840   -0.7890 c3        1 LAV      0.149500
      9 CB         -1.9830    0.1850   -1.3820 c3        1 LAV     -0.064400
     10 CG         -2.4200   -0.3970   -2.7520 c3        1 LAV     -0.069700
     11 CD1        -1.9750    0.5350   -3.8650 c3        1 LAV     -0.085600
     12 CD2        -3.9600   -0.5360   -2.7840 c3        1 LAV     -0.085600
     13 CG1         3.4640    1.3600    2.9140 c3        1 LAV     -0.079100
     14 CG2         3.3570   -1.0970    2.4220 c3        1 LAV     -0.079100
     15 H          -0.8480    0.7790    0.6890 h1        1 LAV      0.041700
     16 HA         -0.6850   -0.6970    1.2800 h1        1 LAV      0.041700
     17 HN         -0.7100   -2.5890   -0.8360 hn        1 LAV      0.379300
     18 HNA        -1.5550   -2.1170    0.2950 hn        1 LAV      0.379300
     19 OXT         1.2930    2.7730    1.4130 o         1 LAV     -0.811500
     20 HN1         1.4180   -0.7260    0.3050 hn        1 LAV      0.195700
     21 H2          3.3100    0.4890    1.0620 hc        1 LAV      0.063700
     22 H3          1.0720   -0.2120    2.5210 h4        1 LAV     -0.047200
     23 HAA        -0.1060   -0.7040   -1.4060 h1        1 LAV      0.030700
     24 HB         -2.7510    0.1930   -0.7700 hc        1 LAV      0.034700
     25 HBA        -1.6530    1.1020   -1.5060 hc        1 LAV      0.034700
     26 HG         -1.9990   -1.2990   -2.8830 hc        1 LAV      0.076700
     27 HD1        -0.9930    0.5700   -3.8900 hc        1 LAV      0.023867
     28 HD1A       -2.3290    1.4290   -3.7020 hc        1 LAV      0.023867
     29 HD1B       -2.3130    0.2010   -4.7280 hc        1 LAV      0.023867
     30 HD2        -4.3690    0.3410   -2.6460 hc        1 LAV      0.023867
     31 HD2A       -4.2420   -0.8980   -3.6650 hc        1 LAV      0.023867
     32 HD2B       -4.2480   -1.1470   -2.0720 hc        1 LAV      0.023867
     33 HG1         3.4120    2.2490    2.5020 hc        1 LAV      0.021367
     34 HG1A        4.3940    1.1570    3.1370 hc        1 LAV      0.021367
     35 HG1B        2.9180    1.3470    3.7360 hc        1 LAV      0.021367
     36 HG2         3.1030   -1.7560    1.7460 hc        1 LAV      0.021367
     37 HG2A        2.9020   -1.3040    3.2670 hc        1 LAV      0.021367
     38 HG2B        4.3370   -1.1250    2.5590 hc        1 LAV      0.021367
@<TRIPOS>BOND
     1    1    5 1   
     2    1    8 1   
     3    1   15 1   
     4    1   16 1   
     5    2    8 1   
     6    2   17 1   
     7    2   18 1   
     8    3    4 2   
     9    4   19 2   
    10    5    7 2   
    11    5   20 1   
    12    6    7 1   
    13    6   13 1   
    14    6   14 1   
    15    6   21 1   
    16    7   22 1   
    17    8    9 1   
    18    8   23 1   
    19    9   10 1   
    20    9   24 1   
    21    9   25 1   
    22   10   11 1   
    23   10   12 1   
    24   10   26 1   
    25   11   27 1   
    26   11   28 1   
    27   11   29 1   
    28   12   30 1   
    29   12   31 1   
    30   12   32 1   
    31   13   33 1   
    32   13   34 1   
    33   13   35 1   
    34   14   36 1   
    35   14   37 1   
    36   14   38 1   
@<TRIPOS>SUBSTRUCTURE
     1 LAV         1 TEMP              0 ****  ****    0 ROOT
