@<TRIPOS>MOLECULE
LAV
   38    37     1     0     0
SMALL
bcc


@<TRIPOS>ATOM
      1 C           0.4590   -0.3150   -0.5670 c3        1 LAV      0.112800
      2 N           2.0310   -1.9410    0.5930 n3        1 LAV     -0.907800
      3 O          -2.5760    1.6220    1.1560 o         1 LAV     -0.836800
      4 C1         -2.0020    1.2610    0.0960 c         1 LAV      0.925600
      5 N1         -0.6840   -0.8720    0.1240 n3        1 LAV     -0.798200
      6 C2         -3.1670   -0.9810    0.3680 c3        1 LAV     -0.060700
      7 C3         -1.9560   -0.2690   -0.2670 c3        1 LAV      0.052500
      8 CA          1.7950   -0.5640    0.1900 c3        1 LAV      0.153500
      9 CB          2.9190   -0.0200   -0.7050 c3        1 LAV     -0.066400
     10 CG          4.2390    0.1570    0.0300 c3        1 LAV     -0.067700
     11 CD1         5.3800    0.2390   -0.9650 c3        1 LAV     -0.087600
     12 CD2         4.2220    1.3970    0.8990 c3        1 LAV     -0.087600
     13 H           0.5670   -0.7300   -1.6130 h1        1 LAV      0.052700
     14 HA          0.3160    0.8030   -0.6610 h1        1 LAV      0.052700
     15 HN          1.3780   -2.1920    1.3120 hn        1 LAV      0.337300
     16 HNA         1.8870   -2.5530   -0.1870 hn        1 LAV      0.337300
     17 OXT        -1.4710    2.0490   -0.7390 o         1 LAV     -0.836800
     18 HN1        -0.7250   -1.8610   -0.0530 hn        1 LAV      0.311800
     19 H2         -3.1640   -0.7240    1.4650 hc        1 LAV      0.082700
     20 H3         -2.0820   -0.3290   -1.3930 h1        1 LAV      0.000700
     21 HAA         1.7680    0.0520    1.1380 h1        1 LAV      0.071700
     22 HB          3.0700   -0.7090   -1.5780 hc        1 LAV      0.039700
     23 HBA         2.5880    0.9720   -1.1140 hc        1 LAV      0.039700
     24 HG          4.4110   -0.7390    0.6910 hc        1 LAV      0.062700
     25 HD1         5.2230    1.0890   -1.6720 hc        1 LAV      0.027033
     26 HD1A        6.3490    0.3970   -0.4330 hc        1 LAV      0.027033
     27 HD1B        5.4510   -0.7050   -1.5570 hc        1 LAV      0.027033
     28 HD2         3.3930    1.3400    1.6460 hc        1 LAV      0.027033
     29 HD2A        5.1890    1.4980    1.4490 hc        1 LAV      0.027033
     30 HD2B        4.0710    2.3120    0.2770 hc        1 LAV      0.027033
     31 HG1        -4.4910   -0.6650   -1.3350 hc        1 LAV      0.020867
     32 HG1A       -5.3340   -0.8760    0.2540 hc        1 LAV      0.020867
     33 HG1B       -4.4650    0.6800   -0.1100 hc        1 LAV      0.020867
     34 HG2        -2.3820   -2.9490    0.8910 hc        1 LAV      0.020867
     35 HG2A       -4.1280   -2.9270    0.4400 hc        1 LAV      0.020867
     36 HG2B       -2.8670   -2.7640   -0.8470 hc        1 LAV      0.020867
     37 CG1        -4.4400   -0.4300   -0.2450 c3        1 LAV     -0.085100
     38 CG2        -3.1290   -2.4860    0.2030 c3        1 LAV     -0.085100
@<TRIPOS>BOND
     1    1    5 1   
     2    1    8 1   
     3    1   13 1   
     4    1   14 1   
     5    2    8 1   
     6    2   15 1   
     7    2   16 1   
     8    3    4 1   
     9    4    7 1   
    10    4   17 1   
    11    5    7 1   
    12    5   18 1   
    13    6    7 1   
    14    6   19 1   
    15    6   37 1   
    16    6   38 1   
    17    7   20 1   
    18    8    9 1   
    19    8   21 1   
    20    9   10 1   
    21    9   22 1   
    22    9   23 1   
    23   10   11 1   
    24   10   12 1   
    25   10   24 1   
    26   11   25 1   
    27   11   26 1   
    28   11   27 1   
    29   12   28 1   
    30   12   29 1   
    31   12   30 1   
    32   31   37 1   
    33   32   37 1   
    34   33   37 1   
    35   34   38 1   
    36   35   38 1   
    37   36   38 1   
@<TRIPOS>SUBSTRUCTURE
     1 LAV         1 TEMP              0 ****  ****    0 ROOT
