@<TRIPOS>MOLECULE
LAX
   55    54     1     0     0
SMALL
bcc


@<TRIPOS>ATOM
      1 C1         -1.8930    1.8940   -0.7540 c         1 LAX      0.907600
      2 O1         -1.1320    2.8990   -0.6440 o         1 LAX     -0.853300
      3 O2         -2.9460    1.7320   -0.0730 o         1 LAX     -0.853300
      4 C2         -1.5110    0.7880   -1.7540 c3        1 LAX     -0.194400
      5 C3         -1.0870    1.3710   -3.0800 c3        1 LAX     -0.065400
      6 C4         -0.5330    0.3150   -4.0130 c3        1 LAX     -0.078400
      7 C5         -0.1220    0.9120   -5.3420 c3        1 LAX     -0.079400
      8 C6          0.4380   -0.1400   -6.2750 c3        1 LAX     -0.077400
      9 C7          0.8520    0.4670   -7.6000 c3        1 LAX     -0.054200
     10 C8          1.4030   -0.5370   -8.5390 c2        1 LAX     -0.156200
     11 C9          1.8980   -0.2360   -9.7450 c2        1 LAX     -0.191200
     12 C10         1.9570    1.1460  -10.2780 c3        1 LAX     -0.019000
     13 C11         2.4610    1.2320  -11.6690 c2        1 LAX     -0.163200
     14 C12         2.6050    2.3850  -12.3320 c2        1 LAX     -0.180200
     15 C13         2.2750    3.7080  -11.7500 c3        1 LAX     -0.020000
     16 C14         2.5100    4.8450  -12.6720 c2        1 LAX     -0.170200
     17 C15         2.2530    6.1180  -12.3510 c2        1 LAX     -0.176200
     18 C16         1.7050    6.5420  -11.0410 c3        1 LAX     -0.051200
     19 C17         1.5360    8.0440  -10.9470 c3        1 LAX     -0.075400
     20 C18         0.9750    8.4460   -9.6000 c3        1 LAX     -0.082400
     21 C19         0.8030    9.9470   -9.4990 c3        1 LAX     -0.078400
     22 C20         0.2440   10.3500   -8.1590 c3        1 LAX     -0.094100
     23 H21        -0.6690    0.2000   -1.3090 hc        1 LAX      0.018700
     24 H22        -2.3780    0.0960   -1.8920 hc        1 LAX      0.018700
     25 H31        -1.9660    1.8740   -3.5640 hc        1 LAX      0.044200
     26 H32        -0.3150    2.1650   -2.8930 hc        1 LAX      0.044200
     27 H41         0.3520   -0.1810   -3.5350 hc        1 LAX      0.026700
     28 H42        -1.3050   -0.4820   -4.1820 hc        1 LAX      0.026700
     29 H51        -1.0080    1.4060   -5.8200 hc        1 LAX      0.036700
     30 H52         0.6470    1.7100   -5.1700 hc        1 LAX      0.036700
     31 H61         1.3220   -0.6360   -5.7960 hc        1 LAX      0.036700
     32 H62        -0.3330   -0.9360   -6.4500 hc        1 LAX      0.036700
     33 H71         1.6170    1.2720   -7.4190 hc        1 LAX      0.047700
     34 H72        -0.0360    0.9710   -8.0740 hc        1 LAX      0.047700
     35 H8          1.3880   -1.5820   -8.1900 ha        1 LAX      0.121000
     36 H9          2.2940   -1.0300  -10.3980 ha        1 LAX      0.115000
     37 H101        0.9280    1.6080  -10.2280 hc        1 LAX      0.057700
     38 H102        2.6120    1.7730   -9.6060 hc        1 LAX      0.057700
     39 H11         2.7230    0.2780  -12.1550 ha        1 LAX      0.120000
     40 H12         2.9840    2.3870  -13.3670 ha        1 LAX      0.118000
     41 H131        2.8830    3.8620  -10.8110 hc        1 LAX      0.059200
     42 H132        1.1950    3.7110  -11.4230 hc        1 LAX      0.059200
     43 H14         2.9170    4.5940  -13.6640 ha        1 LAX      0.118000
     44 H15         2.4480    6.9240  -13.0770 ha        1 LAX      0.118000
     45 H161        0.7120    6.0410  -10.8730 hc        1 LAX      0.050700
     46 H162        2.3860    6.1890  -10.2180 hc        1 LAX      0.050700
     47 H171        2.5260    8.5460  -11.1070 hc        1 LAX      0.037700
     48 H172        0.8500    8.3980  -11.7610 hc        1 LAX      0.037700
     49 H181       -0.0160    7.9440   -9.4390 hc        1 LAX      0.044700
     50 H182        1.6600    8.0920   -8.7850 hc        1 LAX      0.044700
     51 H191        0.1190   10.3000  -10.3160 hc        1 LAX      0.034200
     52 H192        1.7950   10.4480   -9.6610 hc        1 LAX      0.034200
     53 H201       -0.7540    9.8800   -7.9910 hc        1 LAX      0.034367
     54 H202        0.1260   11.4590   -8.1050 hc        1 LAX      0.034367
     55 H203        0.9250   10.0270   -7.3350 hc        1 LAX      0.034367
@<TRIPOS>BOND
     1    1    2 1   
     2    1    3 1   
     3    1    4 1   
     4    4    5 1   
     5    4   23 1   
     6    4   24 1   
     7    5    6 1   
     8    5   25 1   
     9    5   26 1   
    10    6    7 1   
    11    6   27 1   
    12    6   28 1   
    13    7    8 1   
    14    7   29 1   
    15    7   30 1   
    16    8    9 1   
    17    8   31 1   
    18    8   32 1   
    19    9   10 1   
    20    9   33 1   
    21    9   34 1   
    22   10   11 2   
    23   10   35 1   
    24   11   12 1   
    25   11   36 1   
    26   12   13 1   
    27   12   37 1   
    28   12   38 1   
    29   13   14 2   
    30   13   39 1   
    31   14   15 1   
    32   14   40 1   
    33   15   16 1   
    34   15   41 1   
    35   15   42 1   
    36   16   17 2   
    37   16   43 1   
    38   17   18 1   
    39   17   44 1   
    40   18   19 1   
    41   18   45 1   
    42   18   46 1   
    43   19   20 1   
    44   19   47 1   
    45   19   48 1   
    46   20   21 1   
    47   20   49 1   
    48   20   50 1   
    49   21   22 1   
    50   21   51 1   
    51   21   52 1   
    52   22   53 1   
    53   22   54 1   
    54   22   55 1   
@<TRIPOS>SUBSTRUCTURE
     1 LAX         1 TEMP              0 ****  ****    0 ROOT
