@<TRIPOS>MOLECULE
LAX
   55    54     1     0     0
SMALL
bcc


@<TRIPOS>ATOM
      1 C1          3.5420    1.3550    6.1220 c         1 LAX      0.907600
      2 O1          4.1010    2.1130    5.2780 o         1 LAX     -0.853300
      3 O2          4.1590    0.7750    7.0630 o         1 LAX     -0.853300
      4 C2          2.0220    1.1370    6.0220 c3        1 LAX     -0.194400
      5 C3          1.6000    0.8690    4.5990 c3        1 LAX     -0.065400
      6 C4          0.0930    0.8360    4.4520 c3        1 LAX     -0.078400
      7 C5         -0.3170    0.5570    3.0220 c3        1 LAX     -0.079400
      8 C6         -1.8230    0.5280    2.8690 c3        1 LAX     -0.077400
      9 C7         -2.2220    0.2540    1.4340 c3        1 LAX     -0.054200
     10 C8         -3.6920    0.2190    1.2490 c2        1 LAX     -0.156200
     11 C9         -4.2900    0.0620    0.0630 c2        1 LAX     -0.191200
     12 C10        -3.5450   -0.0870   -1.2100 c3        1 LAX     -0.019000
     13 C11        -4.4110   -0.3400   -2.3860 c2        1 LAX     -0.163200
     14 C12        -3.9420   -0.4820   -3.6310 c2        1 LAX     -0.180200
     15 C13        -2.5020   -0.3990   -3.9750 c3        1 LAX     -0.020000
     16 C14        -2.2170   -0.6030   -5.4150 c2        1 LAX     -0.170200
     17 C15        -0.9830   -0.5830   -5.9310 c2        1 LAX     -0.176200
     18 C16         0.2410   -0.3550   -5.1280 c3        1 LAX     -0.051200
     19 C17         1.4970   -0.3700   -5.9750 c3        1 LAX     -0.075400
     20 C18         2.7290   -0.1350   -5.1280 c3        1 LAX     -0.082400
     21 C19         3.9880   -0.1480   -5.9690 c3        1 LAX     -0.078400
     22 C20         5.2160    0.0850   -5.1280 c3        1 LAX     -0.094100
     23 H21         1.5190    2.0610    6.4030 hc        1 LAX      0.018700
     24 H22         1.7250    0.2860    6.6840 hc        1 LAX      0.018700
     25 H31         2.0300   -0.1100    4.2600 hc        1 LAX      0.044200
     26 H32         2.0350    1.6660    3.9390 hc        1 LAX      0.044200
     27 H41        -0.3380    1.8180    4.7800 hc        1 LAX      0.026700
     28 H42        -0.3350    0.0470    5.1250 hc        1 LAX      0.026700
     29 H51         0.1130   -0.4270    2.6950 hc        1 LAX      0.036700
     30 H52         0.1150    1.3440    2.3500 hc        1 LAX      0.036700
     31 H61        -2.2520    1.5110    3.1980 hc        1 LAX      0.036700
     32 H62        -2.2540   -0.2620    3.5380 hc        1 LAX      0.036700
     33 H71        -1.7830   -0.7280    1.1040 hc        1 LAX      0.047700
     34 H72        -1.7800    1.0430    0.7650 hc        1 LAX      0.047700
     35 H8         -4.2950    0.3300    2.1650 ha        1 LAX      0.121000
     36 H9         -5.3890    0.0430   -0.0080 ha        1 LAX      0.115000
     37 H101       -2.8010   -0.9290   -1.1090 hc        1 LAX      0.057700
     38 H102       -2.9350    0.8460   -1.3920 hc        1 LAX      0.057700
     39 H11        -5.4930   -0.4120   -2.1910 ha        1 LAX      0.120000
     40 H12        -4.6350   -0.6700   -4.4670 ha        1 LAX      0.118000
     41 H131       -1.9310   -1.1620   -3.3720 hc        1 LAX      0.059200
     42 H132       -2.1030    0.6090   -3.6580 hc        1 LAX      0.059200
     43 H14        -3.0880   -0.7780   -6.0670 ha        1 LAX      0.118000
     44 H15        -0.8290   -0.7410   -7.0110 ha        1 LAX      0.118000
     45 H161        0.3170   -1.1460   -4.3310 hc        1 LAX      0.051200
     46 H162        0.1600    0.6310   -4.5940 hc        1 LAX      0.051200
     47 H171        1.4270    0.4230   -6.7660 hc        1 LAX      0.037700
     48 H172        1.5850   -1.3560   -6.5020 hc        1 LAX      0.037700
     49 H181        2.7990   -0.9270   -4.3360 hc        1 LAX      0.044700
     50 H182        2.6410    0.8510   -4.6000 hc        1 LAX      0.044700
     51 H191        3.9160    0.6440   -6.7610 hc        1 LAX      0.034700
     52 H192        4.0740   -1.1340   -6.4970 hc        1 LAX      0.034700
     53 H201        6.1320    0.0720   -5.7660 hc        1 LAX      0.034700
     54 H202        5.1590    1.0740   -4.6120 hc        1 LAX      0.034700
     55 H203        5.3170   -0.7090   -4.3490 hc        1 LAX      0.034700
@<TRIPOS>BOND
     1    1    2 1   
     2    1    3 1   
     3    1    4 1   
     4    4    5 1   
     5    4   23 1   
     6    4   24 1   
     7    5    6 1   
     8    5   25 1   
     9    5   26 1   
    10    6    7 1   
    11    6   27 1   
    12    6   28 1   
    13    7    8 1   
    14    7   29 1   
    15    7   30 1   
    16    8    9 1   
    17    8   31 1   
    18    8   32 1   
    19    9   10 1   
    20    9   33 1   
    21    9   34 1   
    22   10   11 2   
    23   10   35 1   
    24   11   12 1   
    25   11   36 1   
    26   12   13 1   
    27   12   37 1   
    28   12   38 1   
    29   13   14 2   
    30   13   39 1   
    31   14   15 1   
    32   14   40 1   
    33   15   16 1   
    34   15   41 1   
    35   15   42 1   
    36   16   17 2   
    37   16   43 1   
    38   17   18 1   
    39   17   44 1   
    40   18   19 1   
    41   18   45 1   
    42   18   46 1   
    43   19   20 1   
    44   19   47 1   
    45   19   48 1   
    46   20   21 1   
    47   20   49 1   
    48   20   50 1   
    49   21   22 1   
    50   21   51 1   
    51   21   52 1   
    52   22   53 1   
    53   22   54 1   
    54   22   55 1   
@<TRIPOS>SUBSTRUCTURE
     1 LAX         1 TEMP              0 ****  ****    0 ROOT
