@<TRIPOS>MOLECULE
LAX
   55    54     1     0     0
SMALL
bcc


@<TRIPOS>ATOM
      1 C1         -1.9670    1.9080   -0.7770 c         1 LAX      0.907600
      2 O1         -2.7340    2.7810   -1.2800 o         1 LAX     -0.853300
      3 O2         -1.6560    1.8670    0.4480 o         1 LAX     -0.853300
      4 C2         -1.3930    0.8160   -1.6980 c3        1 LAX     -0.194400
      5 C3         -0.8740    1.4040   -2.9870 c3        1 LAX     -0.065400
      6 C4         -0.4770    0.3310   -3.9790 c3        1 LAX     -0.078400
      7 C5          0.0500    0.9340   -5.2640 c3        1 LAX     -0.079400
      8 C6          0.4430   -0.1350   -6.2610 c3        1 LAX     -0.077400
      9 C7          0.9640    0.4780   -7.5450 c3        1 LAX     -0.054200
     10 C8          1.3590   -0.5420   -8.5430 c2        1 LAX     -0.156200
     11 C9          1.7810   -0.2510   -9.7790 c2        1 LAX     -0.191200
     12 C10         1.8950    1.1340  -10.2940 c3        1 LAX     -0.019000
     13 C11         2.4740    1.2230  -11.6550 c2        1 LAX     -0.163200
     14 C12         2.6380    2.3760  -12.3150 c2        1 LAX     -0.180200
     15 C13         2.2560    3.6960  -11.7570 c3        1 LAX     -0.020000
     16 C14         2.5500    4.8350  -12.6580 c2        1 LAX     -0.170200
     17 C15         2.2940    6.1090  -12.3420 c2        1 LAX     -0.176200
     18 C16         1.6890    6.5320  -11.0570 c3        1 LAX     -0.051200
     19 C17         1.5020    8.0330  -10.9750 c3        1 LAX     -0.075400
     20 C18         0.8830    8.4340   -9.6530 c3        1 LAX     -0.082400
     21 C19         0.6940    9.9340   -9.5650 c3        1 LAX     -0.078400
     22 C20         0.0780   10.3360   -8.2500 c3        1 LAX     -0.094100
     23 H21        -0.5770    0.2700   -1.1620 hc        1 LAX      0.018700
     24 H22        -2.2130    0.0850   -1.9130 hc        1 LAX      0.018700
     25 H31        -1.6710    2.0620   -3.4280 hc        1 LAX      0.044200
     26 H32         0.0100    2.0580   -2.7700 hc        1 LAX      0.044200
     27 H41         0.3070   -0.3310   -3.5260 hc        1 LAX      0.026700
     28 H42        -1.3640   -0.3170   -4.2070 hc        1 LAX      0.026700
     29 H51        -0.7350    1.5980   -5.7130 hc        1 LAX      0.036700
     30 H52         0.9380    1.5810   -5.0370 hc        1 LAX      0.036700
     31 H61         1.2310   -0.7960   -5.8130 hc        1 LAX      0.036700
     32 H62        -0.4440   -0.7830   -6.4860 hc        1 LAX      0.036700
     33 H71         1.8480    1.1340   -7.3140 hc        1 LAX      0.047700
     34 H72         0.1740    1.1480   -7.9860 hc        1 LAX      0.047700
     35 H8          1.2900   -1.5920   -8.2130 ha        1 LAX      0.121000
     36 H9          2.0630   -1.0570  -10.4750 ha        1 LAX      0.115000
     37 H101        0.8730    1.6130  -10.2930 hc        1 LAX      0.057700
     38 H102        2.5240    1.7450   -9.5840 hc        1 LAX      0.057700
     39 H11         2.7760    0.2710  -12.1220 ha        1 LAX      0.120000
     40 H12         3.0750    2.3800  -13.3250 ha        1 LAX      0.118000
     41 H131        2.7900    3.8520  -10.7750 hc        1 LAX      0.059700
     42 H132        1.1540    3.6910  -11.5130 hc        1 LAX      0.059700
     43 H14         3.0020    4.5850  -13.6320 ha        1 LAX      0.118000
     44 H15         2.5330    6.9170  -13.0520 ha        1 LAX      0.118000
     45 H161        0.6940    6.0230  -10.9270 hc        1 LAX      0.051200
     46 H162        2.3390    6.1880  -10.2070 hc        1 LAX      0.051200
     47 H171        2.4940    8.5430  -11.0960 hc        1 LAX      0.037700
     48 H172        0.8470    8.3780  -11.8180 hc        1 LAX      0.037700
     49 H181       -0.1080    7.9230   -9.5310 hc        1 LAX      0.044700
     50 H182        1.5380    8.0880   -8.8100 hc        1 LAX      0.044700
     51 H191        0.0400   10.2780  -10.4090 hc        1 LAX      0.034700
     52 H192        1.6870   10.4430   -9.6880 hc        1 LAX      0.034700
     53 H201       -0.9220    9.8570   -8.1200 hc        1 LAX      0.034700
     54 H202       -0.0530   11.4440   -8.2050 hc        1 LAX      0.034700
     55 H203        0.7280   10.0220   -7.3970 hc        1 LAX      0.034700
@<TRIPOS>BOND
     1    1    2 1   
     2    1    3 1   
     3    1    4 1   
     4    4    5 1   
     5    4   23 1   
     6    4   24 1   
     7    5    6 1   
     8    5   25 1   
     9    5   26 1   
    10    6    7 1   
    11    6   27 1   
    12    6   28 1   
    13    7    8 1   
    14    7   29 1   
    15    7   30 1   
    16    8    9 1   
    17    8   31 1   
    18    8   32 1   
    19    9   10 1   
    20    9   33 1   
    21    9   34 1   
    22   10   11 2   
    23   10   35 1   
    24   11   12 1   
    25   11   36 1   
    26   12   13 1   
    27   12   37 1   
    28   12   38 1   
    29   13   14 2   
    30   13   39 1   
    31   14   15 1   
    32   14   40 1   
    33   15   16 1   
    34   15   41 1   
    35   15   42 1   
    36   16   17 2   
    37   16   43 1   
    38   17   18 1   
    39   17   44 1   
    40   18   19 1   
    41   18   45 1   
    42   18   46 1   
    43   19   20 1   
    44   19   47 1   
    45   19   48 1   
    46   20   21 1   
    47   20   49 1   
    48   20   50 1   
    49   21   22 1   
    50   21   51 1   
    51   21   52 1   
    52   22   53 1   
    53   22   54 1   
    54   22   55 1   
@<TRIPOS>SUBSTRUCTURE
     1 LAX         1 TEMP              0 ****  ****    0 ROOT
