@<TRIPOS>MOLECULE
LAX
   55    50     1     0     0
SMALL
bcc


@<TRIPOS>ATOM
      1 C1          5.2150    5.2160    4.8590 c1        1 LAX      0.327000
      2 O1          4.6110    5.8240    5.7810 o         1 LAX     -0.590000
      3 O2          5.5410    5.8290    3.8080 os        1 LAX     -0.586000
      4 C2          5.5490    3.7490    5.0130 c3        1 LAX     -0.223000
      5 C3          4.2960    2.9240    4.8180 c3        1 LAX     -0.144000
      6 C4          4.6780    1.4940    4.5020 c3        1 LAX     -0.157000
      7 C5          3.4260    0.6550    4.3690 c3        1 LAX     -0.158000
      8 C6          3.7550   -0.6310    3.6430 c3        1 LAX     -0.156000
      9 C7          2.4720   -1.3340    3.2570 c3        1 LAX     -0.137000
     10 C8          2.7880   -2.4800    2.3210 c2        1 LAX     -0.152000
     11 C9          1.7970   -3.0790    1.6320 c1        1 LAX     -0.188000
     12 C10         0.3690   -2.6070    1.7950 c2        1 LAX     -0.104000
     13 C11        -0.4390   -3.0170    0.5830 c2        1 LAX     -0.155000
     14 C12        -1.5410   -2.3210    0.2420 c1        1 LAX     -0.175500
     15 C13        -2.3490   -2.7310   -0.9700 c2        1 LAX     -0.104000
     16 C14        -2.9520   -1.5020   -1.6130 c2        1 LAX     -0.155000
     17 C15        -3.5700   -1.6000   -2.8060 c1        1 LAX     -0.175500
     18 C16        -4.1730   -0.3710   -3.4500 c2        1 LAX     -0.130000
     19 C17        -4.3770   -0.6240   -4.9280 c3        1 LAX     -0.155000
     20 C18        -4.7300    0.6760   -5.6170 c3        1 LAX     -0.159000
     21 C19        -4.7490    0.4630   -7.1150 c3        1 LAX     -0.159000
     22 C20        -5.0580    1.7720   -7.8070 c3        1 LAX     -0.210000
     23 H21         6.2150    3.4940    4.3430 hc        1 LAX      0.058000
     24 H22         5.9090    3.5880    5.9080 hc        1 LAX      0.058000
     25 H31         3.7740    3.2930    4.0780 hc        1 LAX      0.083500
     26 H32         3.7610    2.9450    5.6370 hc        1 LAX      0.083500
     27 H41         5.2340    1.1380    5.2240 hc        1 LAX      0.066000
     28 H42         5.1780    1.4680    3.6620 hc        1 LAX      0.066000
     29 H51         3.0770    0.4480    5.2590 hc        1 LAX      0.076000
     30 H52         2.7530    1.1530    3.8620 hc        1 LAX      0.076000
     31 H61         4.2710   -0.4270    2.8380 hc        1 LAX      0.076000
     32 H62         4.2810   -1.2100    4.2300 hc        1 LAX      0.076000
     33 H71         1.8760   -0.7020    2.8090 hc        1 LAX      0.087000
     34 H72         2.0360   -1.6810    4.0610 hc        1 LAX      0.087000
     35 H8          3.7090   -2.7850    2.2160 ha        1 LAX      0.121000
     36 H9          2.0010   -3.8180    1.0280 ha        1 LAX      0.116000
     37 H101        0.3560   -1.6320    1.8810 ha        1 LAX      0.092500
     38 H102       -0.0180   -3.0100    2.5970 ha        1 LAX      0.092500
     39 H11        -0.1640   -3.7880    0.0520 ha        1 LAX      0.121500
     40 H12        -1.8210   -1.5550    0.7790 ha        1 LAX      0.122000
     41 H131       -3.0650   -3.3390   -0.6940 ha        1 LAX      0.092500
     42 H132       -1.7670   -3.1830   -1.6120 ha        1 LAX      0.092500
     43 H14        -2.8980   -0.6380   -1.1610 ha        1 LAX      0.121500
     44 H15        -3.6330   -2.4660   -3.2540 ha        1 LAX      0.122000
     45 H161       -3.5700    0.3890   -3.3290 ha        1 LAX      0.085500
     46 H162       -5.0350   -0.1730   -3.0310 ha        1 LAX      0.085500
     47 H171       -5.1030   -1.2660   -5.0520 hc        1 LAX      0.080000
     48 H172       -3.5530   -0.9840   -5.3130 hc        1 LAX      0.080000
     49 H181       -4.0630    1.3560   -5.3930 hc        1 LAX      0.079000
     50 H182       -5.6130    0.9740   -5.3190 hc        1 LAX      0.079000
     51 H191       -5.4350   -0.1960   -7.3420 hc        1 LAX      0.077500
     52 H192       -3.8740    0.1370   -7.4090 hc        1 LAX      0.077500
     53 H201       -4.4110    2.4520   -7.5230 hc        1 LAX      0.071000
     54 H202       -5.9630    2.0620   -7.5680 hc        1 LAX      0.071000
     55 H203       -4.9990    1.6500   -8.7780 hc        1 LAX      0.071000
@<TRIPOS>BOND
     1    1    2 1   
     2    1    4 1   
     3    4    5 1   
     4    4   23 1   
     5    4   24 1   
     6    5    6 1   
     7    5   25 1   
     8    5   26 1   
     9    6    7 1   
    10    6   27 1   
    11    6   28 1   
    12    7    8 1   
    13    7   29 1   
    14    7   30 1   
    15    8    9 1   
    16    8   31 1   
    17    8   32 1   
    18    9   10 1   
    19    9   33 1   
    20    9   34 1   
    21   10   11 1   
    22   10   35 1   
    23   11   36 1   
    24   12   13 1   
    25   12   37 1   
    26   12   38 1   
    27   13   14 1   
    28   13   39 1   
    29   14   40 1   
    30   15   16 1   
    31   15   41 1   
    32   15   42 1   
    33   16   17 1   
    34   16   43 1   
    35   17   44 1   
    36   18   19 1   
    37   18   45 1   
    38   18   46 1   
    39   19   20 1   
    40   19   47 1   
    41   19   48 1   
    42   20   21 1   
    43   20   49 1   
    44   20   50 1   
    45   21   22 1   
    46   21   51 1   
    47   21   52 1   
    48   22   53 1   
    49   22   54 1   
    50   22   55 1   
@<TRIPOS>SUBSTRUCTURE
     1 LAX         1 TEMP              0 ****  ****    0 ROOT
