@<TRIPOS>MOLECULE
LAZ
   23    20     1     0     0
SMALL
bcc


@<TRIPOS>ATOM
      1 O7         -2.2380    0.2150    0.0120 o         1 LAZ     -0.356000
      2 C7         -1.0240    0.2590    0.0170 c1        1 LAZ      0.341000
      3 N8         -0.3240    0.3940    1.2430 n2        1 LAZ     -0.374000
      4 C9         -0.9320   -0.0240    2.4590 c3        1 LAZ     -0.033000
      5 C10         0.1390   -0.2670    3.5010 c3        1 LAZ     -0.048000
      6 O10        -0.4570   -0.7590    4.6810 oh        1 LAZ     -0.326000
      7 C6         -0.2600    0.1790   -1.2870 c2        1 LAZ     -0.124000
      8 C5          0.0180    1.3350   -1.9980 c1        1 LAZ     -0.095000
      9 C4          0.6640    1.2580   -3.2220 c1        1 LAZ     -0.135000
     10 C3          1.0320    0.0230   -3.7340 c1        1 LAZ     -0.043000
     11 CL3         1.8800   -0.0710   -5.2550 cl        1 LAZ     -0.006000
     12 C2          0.7540   -1.1330   -3.0230 c2        1 LAZ     -0.133000
     13 C1          0.1080   -1.0550   -1.7990 c2        1 LAZ     -0.071000
     14 H8          0.5070    0.7700    1.2550 hn        1 LAZ      0.222000
     15 H9C1       -1.5420    0.6740    2.7760 h1        1 LAZ      0.116500
     16 H9C2       -1.4320   -0.8520    2.3060 h1        1 LAZ      0.116500
     17 H101        0.7810   -0.9240    3.1610 h1        1 LAZ      0.067500
     18 H102        0.6030    0.5730    3.6950 h1        1 LAZ      0.067500
     19 H10         0.1780   -1.0000    5.2550 ho        1 LAZ      0.204000
     20 H5         -0.2410    2.2050   -1.6380 ha        1 LAZ      0.143000
     21 H4          0.8600    2.0720   -3.7240 ha        1 LAZ      0.152000
     22 H2          1.0140   -2.0020   -3.3840 ha        1 LAZ      0.154000
     23 H1         -0.0870   -1.8700   -1.2980 ha        1 LAZ      0.161000
@<TRIPOS>BOND
     1    1    2 1   
     2    2    7 1   
     3    3    4 1   
     4    3   14 1   
     5    4    5 1   
     6    4   15 1   
     7    4   16 1   
     8    5    6 1   
     9    5   17 1   
    10    5   18 1   
    11    6   19 1   
    12    7    8 1   
    13    7   13 1   
    14    8   20 1   
    15    9   10 1   
    16    9   21 1   
    17   10   12 1   
    18   12   13 1   
    19   12   22 1   
    20   13   23 1   
@<TRIPOS>SUBSTRUCTURE
     1 LAZ         1 TEMP              0 ****  ****    0 ROOT
