@<TRIPOS>MOLECULE
LAZ
   24    24     1     0     0
SMALL
bcc


@<TRIPOS>ATOM
      1 O7          0.0340   -0.2370    0.0730 o         1 LAZ     -0.430100
      2 C7          1.2470   -0.1410   -0.0620 c         1 LAZ      0.574700
      3 N8          2.0460   -0.0920    1.2280 ny        1 LAZ     -0.670800
      4 C9          1.1990    0.0190    2.4500 c3        1 LAZ      0.099800
      5 C10         2.0400    0.0730    3.7320 c3        1 LAZ      0.108400
      6 O10         3.0490    1.0460    3.5310 oh        1 LAZ     -0.634800
      7 C6          2.0100   -0.0650   -1.3040 ca        1 LAZ     -0.218600
      8 C5          1.2600   -0.0110   -2.4950 ca        1 LAZ     -0.051500
      9 C4          1.9020    0.0620   -3.7260 ca        1 LAZ     -0.128500
     10 C3          3.3020    0.0800   -3.7830 ca        1 LAZ      0.084400
     11 Cl3         4.0870    0.1680   -5.2690 cl        1 LAZ     -0.003400
     12 C2          4.0550    0.0220   -2.5970 ca        1 LAZ     -0.128500
     13 C1          3.4140   -0.0490   -1.3680 ca        1 LAZ     -0.051500
     14 H8          2.6810    0.7200    1.2030 hn        1 LAZ      0.465800
     15 H9C1        0.5000   -0.8640    2.4900 hx        1 LAZ      0.120200
     16 H9C2        0.5840    0.9600    2.3510 hx        1 LAZ      0.120200
     17 H101        2.5250   -0.9200    3.9380 h1        1 LAZ      0.075200
     18 H102        1.3590    0.3400    4.5830 h1        1 LAZ      0.075200
     19 H10         3.2950    1.4060    4.3940 ho        1 LAZ      0.454000
     20 H5          0.1560   -0.0270   -2.4490 ha        1 LAZ      0.153500
     21 H4          1.3050    0.1050   -4.6540 ha        1 LAZ      0.181000
     22 H2          5.1570    0.0340   -2.6440 ha        1 LAZ      0.181000
     23 H1          4.0420   -0.0980   -0.4660 ha        1 LAZ      0.153500
     24 H82         2.6240   -0.9370    1.2900 hn        1 LAZ      0.465800
@<TRIPOS>BOND
     1    1    2 2   
     2    2    3 1   
     3    2    7 1   
     4    3    4 1   
     5    3   14 1   
     6    3   24 1   
     7    4    5 1   
     8    4   15 1   
     9    4   16 1   
    10    5    6 1   
    11    5   17 1   
    12    5   18 1   
    13    6   19 1   
    14    7    8 ar  
    15    7   13 ar  
    16    8    9 ar  
    17    8   20 1   
    18    9   10 ar  
    19    9   21 1   
    20   10   11 1   
    21   10   12 ar  
    22   12   13 ar  
    23   12   22 1   
    24   13   23 1   
@<TRIPOS>SUBSTRUCTURE
     1 LAZ         1 TEMP              0 ****  ****    0 ROOT
