@<TRIPOS>MOLECULE
LAZ
   24    24     1     0     0
SMALL
bcc


@<TRIPOS>ATOM
      1 O7          0.0320   -0.2060    0.0730 o         1 LAZ     -0.430100
      2 C7          1.2460   -0.1250   -0.0620 c         1 LAZ      0.574700
      3 N8          2.0450   -0.0800    1.2280 n4        1 LAZ     -0.670800
      4 C9          1.1970    0.0320    2.4500 c3        1 LAZ      0.099800
      5 C10         2.0390    0.0820    3.7320 c3        1 LAZ      0.108400
      6 O10         3.0500    1.0520    3.5330 oh        1 LAZ     -0.634800
      7 C6          2.0100   -0.0630   -1.3040 ca        1 LAZ     -0.218600
      8 C5          1.2610   -0.0210   -2.4960 ca        1 LAZ     -0.051500
      9 C4          1.9050    0.0380   -3.7280 ca        1 LAZ     -0.128500
     10 C3          3.3040    0.0540   -3.7830 ca        1 LAZ      0.084400
     11 CL3         4.0910    0.1260   -5.2700 cl        1 LAZ     -0.003400
     12 C2          4.0560    0.0090   -2.5960 ca        1 LAZ     -0.128500
     13 C1          3.4140   -0.0490   -1.3670 ca        1 LAZ     -0.051500
     14 H8          2.6810    0.7300    1.2040 hn        1 LAZ      0.466300
     15 H9C1        0.5850    0.9750    2.3520 hx        1 LAZ      0.120700
     16 H9C2        0.4960   -0.8500    2.4890 hx        1 LAZ      0.120700
     17 H101        2.5200   -0.9130    3.9380 h1        1 LAZ      0.075200
     18 H102        1.3580    0.3500    4.5830 h1        1 LAZ      0.075200
     19 H10         3.2960    1.4110    4.3960 ho        1 LAZ      0.454000
     20 H5          0.1570   -0.0350   -2.4510 ha        1 LAZ      0.153500
     21 H4          1.3090    0.0720   -4.6570 ha        1 LAZ      0.181000
     22 H2          5.1590    0.0200   -2.6420 ha        1 LAZ      0.181000
     23 H1          4.0420   -0.0870   -0.4630 ha        1 LAZ      0.153500
     24 H82         2.6190   -0.9270    1.2890 hn        1 LAZ      0.466300
@<TRIPOS>BOND
     1    1    2 2   
     2    2    3 1   
     3    2    7 1   
     4    3    4 1   
     5    3   14 1   
     6    3   24 1   
     7    4    5 1   
     8    4   15 1   
     9    4   16 1   
    10    5    6 1   
    11    5   17 1   
    12    5   18 1   
    13    6   19 1   
    14    7    8 ar  
    15    7   13 ar  
    16    8    9 ar  
    17    8   20 1   
    18    9   10 ar  
    19    9   21 1   
    20   10   11 1   
    21   10   12 ar  
    22   12   13 ar  
    23   12   22 1   
    24   13   23 1   
@<TRIPOS>SUBSTRUCTURE
     1 LAZ         1 TEMP              0 ****  ****    0 ROOT
