@<TRIPOS>MOLECULE
LAZ
   23    23     1     0     0
SMALL
bcc


@<TRIPOS>ATOM
      1 O7         -1.9070   -0.8970    1.6980 o         1 LAZ     -0.605100
      2 C7         -0.8980   -0.2410    1.3660 c         1 LAZ      0.663700
      3 N8         -0.1740    0.4830    2.2960 n         1 LAZ     -0.548900
      4 C9         -0.3930    0.3450    3.7070 c3        1 LAZ      0.085000
      5 C10         0.6260   -0.5480    4.4330 c3        1 LAZ      0.097400
      6 O10         1.9040    0.0470    4.2700 oh        1 LAZ     -0.611800
      7 C6         -0.4750   -0.1420   -0.0610 ca        1 LAZ     -0.139600
      8 C5         -1.4740   -0.0790   -1.0400 ca        1 LAZ     -0.083000
      9 C4         -1.1320    0.0030   -2.3880 ca        1 LAZ     -0.133500
     10 C3          0.2180    0.0140   -2.7560 ca        1 LAZ      0.035400
     11 CL3         0.6430    0.1150   -4.3980 cl        1 LAZ     -0.086400
     12 C2          1.2210   -0.0630   -1.7850 ca        1 LAZ     -0.133500
     13 C1          0.8710   -0.1400   -0.4380 ca        1 LAZ     -0.083000
     14 H8          0.7030    0.8670    2.0270 hn        1 LAZ      0.317500
     15 H9C1       -1.4190   -0.0870    3.8850 h1        1 LAZ      0.073700
     16 H9C2       -0.3420    1.3760    4.1620 h1        1 LAZ      0.073700
     17 H101        0.6300   -1.5870    4.0100 h1        1 LAZ      0.034700
     18 H102        0.3560   -0.5930    5.5210 h1        1 LAZ      0.034700
     19 H10         2.5290   -0.4970    4.7620 ho        1 LAZ      0.405000
     20 H5         -2.5330   -0.1060   -0.7340 ha        1 LAZ      0.151000
     21 H4         -1.9190    0.0560   -3.1550 ha        1 LAZ      0.152000
     22 H2          2.2820   -0.0640   -2.0790 ha        1 LAZ      0.152000
     23 H1          1.6690   -0.2150    0.3180 ha        1 LAZ      0.151000
@<TRIPOS>BOND
     1    1    2 2   
     2    2    3 1   
     3    2    7 1   
     4    3    4 1   
     5    3   14 1   
     6    4    5 1   
     7    4   15 1   
     8    4   16 1   
     9    5    6 1   
    10    5   17 1   
    11    5   18 1   
    12    6   19 1   
    13    7    8 ar  
    14    7   13 ar  
    15    8    9 ar  
    16    8   20 1   
    17    9   10 ar  
    18    9   21 1   
    19   10   11 1   
    20   10   12 ar  
    21   12   13 ar  
    22   12   22 1   
    23   13   23 1   
@<TRIPOS>SUBSTRUCTURE
     1 LAZ         1 TEMP              0 ****  ****    0 ROOT
