@<TRIPOS>MOLECULE
LAZ
   24    24     1     0     0
SMALL
bcc


@<TRIPOS>ATOM
      1 O7          0.0360   -0.2640    0.0720 o         1 LAZ     -0.430100
      2 C7          1.2480   -0.1570   -0.0620 c         1 LAZ      0.574700
      3 N8          2.0460   -0.1030    1.2280 n4        1 LAZ     -0.670800
      4 C9          1.1970    0.0170    2.4490 c3        1 LAZ      0.099800
      5 C10         2.0370    0.0750    3.7310 c3        1 LAZ      0.108400
      6 O10         3.0480    1.0450    3.5270 oh        1 LAZ     -0.634800
      7 C6          2.0110   -0.0700   -1.3040 ca        1 LAZ     -0.218600
      8 C5          1.2610    0.0010   -2.4940 ca        1 LAZ     -0.051500
      9 C4          1.9040    0.0850   -3.7240 ca        1 LAZ     -0.128500
     10 C3          3.3040    0.0950   -3.7810 ca        1 LAZ      0.084400
     11 CL3         4.0890    0.1960   -5.2660 cl        1 LAZ     -0.003400
     12 C2          4.0560    0.0190   -2.5960 ca        1 LAZ     -0.128500
     13 C1          3.4150   -0.0630   -1.3680 ca        1 LAZ     -0.051500
     14 H8          2.6820    0.7070    1.1990 hn        1 LAZ      0.465800
     15 H9C1        0.4960   -0.8640    2.4920 hx        1 LAZ      0.120700
     16 H9C2        0.5860    0.9590    2.3440 hx        1 LAZ      0.120700
     17 H101        2.5190   -0.9180    3.9430 h1        1 LAZ      0.075200
     18 H102        1.3550    0.3490    4.5800 h1        1 LAZ      0.075200
     19 H10         3.2950    1.4070    4.3880 ho        1 LAZ      0.454000
     20 H5          0.1570   -0.0100   -2.4480 ha        1 LAZ      0.154000
     21 H4          1.3080    0.1410   -4.6520 ha        1 LAZ      0.181000
     22 H2          5.1590    0.0240   -2.6420 ha        1 LAZ      0.181000
     23 H1          4.0430   -0.1270   -0.4660 ha        1 LAZ      0.154000
     24 H82         2.6210   -0.9500    1.2960 hn        1 LAZ      0.465800
@<TRIPOS>BOND
     1    1    2 2   
     2    2    3 1   
     3    2    7 1   
     4    3    4 1   
     5    3   14 1   
     6    3   24 1   
     7    4    5 1   
     8    4   15 1   
     9    4   16 1   
    10    5    6 1   
    11    5   17 1   
    12    5   18 1   
    13    6   19 1   
    14    7    8 ar  
    15    7   13 ar  
    16    8    9 ar  
    17    8   20 1   
    18    9   10 ar  
    19    9   21 1   
    20   10   11 1   
    21   10   12 ar  
    22   12   13 ar  
    23   12   22 1   
    24   13   23 1   
@<TRIPOS>SUBSTRUCTURE
     1 LAZ         1 TEMP              0 ****  ****    0 ROOT
