@<TRIPOS>MOLECULE
LB2
   45    46     1     0     0
SMALL
bcc


@<TRIPOS>ATOM
      1 O1D        -4.2190   -2.1900    1.3680 oh        1 LB2     -0.593800
      2 C1D        -3.3410   -1.1110    1.2040 c3        1 LB2      0.310900
      3 C2D        -1.9600   -1.5860    0.6990 c3        1 LB2      0.074100
      4 O2D        -1.2570   -2.2250    1.7500 oh        1 LB2     -0.594800
      5 O5D        -3.9960   -0.3060    0.2370 os        1 LB2     -0.458600
      6 C5D        -3.2740    0.8840   -0.0920 c3        1 LB2      0.110100
      7 C6D        -4.1430    1.6330   -1.1070 c3        1 LB2      0.140400
      8 O6D        -5.3310    2.1030   -0.5130 oh        1 LB2     -0.591800
      9 C4D        -1.9090    0.5220   -0.6970 c3        1 LB2      0.113100
     10 O4D        -1.2180    1.7420   -0.9030 oh        1 LB2     -0.600800
     11 C3D        -1.1160   -0.3820    0.2650 c3        1 LB2      0.113100
     12 O3D         0.0110   -0.8730   -0.4710 os        1 LB2     -0.418600
     13 C1E         1.2600   -0.6120    0.1380 c3        1 LB2      0.307900
     14 C2E         2.3280   -1.3890   -0.6550 c3        1 LB2      0.090100
     15 O2E         2.3000   -2.7640   -0.3190 oh        1 LB2     -0.600800
     16 C3E         3.7190   -0.8700   -0.2610 c3        1 LB2      0.108100
     17 O3E         4.7170   -1.4140   -1.1060 oh        1 LB2     -0.604800
     18 C4E         3.7810    0.6570   -0.4430 c3        1 LB2      0.122100
     19 O4E         4.9960    1.1650    0.0790 oh        1 LB2     -0.593800
     20 O5E         1.3810    0.7920   -0.0610 os        1 LB2     -0.470600
     21 C5E         2.6430    1.3270    0.3410 c3        1 LB2      0.112100
     22 C6E         2.5630    2.8260    0.0310 c3        1 LB2      0.141400
     23 O6E         1.4900    3.4310    0.7160 oh        1 LB2     -0.593800
     24 HO1D       -4.5900   -2.4140    0.5020 ho        1 LB2      0.428000
     25 H1D        -3.2600   -0.5970    2.2020 h2        1 LB2      0.090700
     26 H2D        -2.0890   -2.2990   -0.1620 h1        1 LB2      0.061700
     27 HO2D       -1.8430   -2.9140    2.0940 ho        1 LB2      0.421000
     28 H5D        -3.1350    1.5060    0.8350 h1        1 LB2      0.075700
     29 H6D        -3.5920    2.5500   -1.4500 h1        1 LB2      0.065200
     30 H6DA       -4.3750    0.9660   -1.9780 h1        1 LB2      0.065200
     31 HO6D       -5.8040    1.3320   -0.1740 ho        1 LB2      0.410000
     32 H4D        -2.0470   -0.0090   -1.6800 h1        1 LB2      0.061700
     33 HO4D       -0.3220    1.5050   -1.1900 ho        1 LB2      0.432000
     34 H3D        -0.7880    0.2070    1.1630 h1        1 LB2      0.087700
     35 H1E         1.2670   -0.8720    1.2310 h2        1 LB2      0.077700
     36 H2E         2.1560   -1.2580   -1.7590 h1        1 LB2      0.074700
     37 HO2E        1.4010   -3.0740   -0.4910 ho        1 LB2      0.426000
     38 H3E         3.9380   -1.1450    0.8090 h1        1 LB2      0.066700
     39 HO3E        4.6420   -2.3760   -1.0390 ho        1 LB2      0.429000
     40 H4E         3.7020    0.9040   -1.5380 h1        1 LB2      0.062700
     41 HO4E        5.7060    0.6750   -0.3580 ho        1 LB2      0.427000
     42 H5E         2.7830    1.1620    1.4450 h1        1 LB2      0.072700
     43 H6E         3.4920    3.3270    0.4130 h1        1 LB2      0.062700
     44 H6EA        2.4630    2.9820   -1.0750 h1        1 LB2      0.062700
     45 HO6E        0.6750    3.0170    0.3980 ho        1 LB2      0.416000
@<TRIPOS>BOND
     1    1    2 1   
     2    1   24 1   
     3    2    3 1   
     4    2    5 1   
     5    2   25 1   
     6    3    4 1   
     7    3   11 1   
     8    3   26 1   
     9    4   27 1   
    10    5    6 1   
    11    6    7 1   
    12    6    9 1   
    13    6   28 1   
    14    7    8 1   
    15    7   29 1   
    16    7   30 1   
    17    8   31 1   
    18    9   10 1   
    19    9   11 1   
    20    9   32 1   
    21   10   33 1   
    22   11   12 1   
    23   11   34 1   
    24   12   13 1   
    25   13   14 1   
    26   13   20 1   
    27   13   35 1   
    28   14   15 1   
    29   14   16 1   
    30   14   36 1   
    31   15   37 1   
    32   16   17 1   
    33   16   18 1   
    34   16   38 1   
    35   17   39 1   
    36   18   19 1   
    37   18   21 1   
    38   18   40 1   
    39   19   41 1   
    40   20   21 1   
    41   21   22 1   
    42   21   42 1   
    43   22   23 1   
    44   22   43 1   
    45   22   44 1   
    46   23   45 1   
@<TRIPOS>SUBSTRUCTURE
     1 LB2         1 TEMP              0 ****  ****    0 ROOT
