@<TRIPOS>MOLECULE
LBP
   35    34     1     0     0
SMALL
bcc


@<TRIPOS>ATOM
      1 N           1.2900   -1.2860    1.5540 nz        1 LBP     -0.830600
      2 P           0.2860   -0.3990    4.9610 p5        1 LBP      1.746600
      3 S           2.1290    1.4940    3.6840 s6        1 LBP      1.906900
      4 C1          2.1330   -0.8570   -0.7720 c         1 LBP      0.903600
      5 O1          2.3390   -0.0880   -1.7460 o         1 LBP     -0.841300
      6 CA          1.5440   -0.2340    0.5320 c3        1 LBP     -0.018500
      7 CB          2.4320    0.8940    1.0920 c3        1 LBP      0.116800
      8 CD          1.7240    3.1470    4.2600 c3        1 LBP     -0.225600
      9 CE          2.5790    4.1920    3.6000 c3        1 LBP     -0.044400
     10 CF          2.2730    5.5830    4.1150 c3        1 LBP     -0.076400
     11 CG          1.7840    1.5950    2.1990 c2        1 LBP     -1.499200
     12 NS          1.3120    0.6210    4.4120 n2        1 LBP     -1.201700
     13 OS          3.5570    1.3880    3.9400 o         1 LBP     -0.700200
     14 C18         3.1310    6.6260    3.4460 c3        1 LBP     -0.086100
     15 O1T         2.3260   -2.1100   -0.7950 o         1 LBP     -0.841300
     16 OP1         0.0440   -1.4780    3.9240 o         1 LBP     -0.919500
     17 OP2        -1.1880    0.3820    5.0870 oh        1 LBP     -0.818400
     18 OP3         0.4160   -0.8200    6.3870 o         1 LBP     -0.919500
     19 HN          2.1760   -1.5630    1.9700 hn        1 LBP      0.446800
     20 HNA         0.9000   -2.1050    1.0900 hn        1 LBP      0.446800
     21 HA          0.5410    0.2100    0.2720 hx        1 LBP      0.066700
     22 HB          2.6220    1.5800    0.2220 hc        1 LBP      0.026200
     23 HBA         3.4250    0.4670    1.4000 hc        1 LBP      0.026200
     24 HD          0.6460    3.3620    4.0640 h1        1 LBP      0.062700
     25 HDA         1.8690    3.1890    5.3660 h1        1 LBP      0.062700
     26 HE          3.6620    3.9520    3.7850 hc        1 LBP      0.055200
     27 HEA         2.4160    4.1560    2.4890 hc        1 LBP      0.055200
     28 HF          1.1900    5.8170    3.9360 hc        1 LBP      0.024700
     29 HFA         2.4370    5.6160    5.2240 hc        1 LBP      0.024700
     30 HG         -1.5140    0.3050    5.9740 ho        1 LBP      0.407000
     31 HGA         0.9470    2.2120    1.8530 h4        1 LBP      0.142000
     32 H18         4.2130    6.4220    3.6340 hc        1 LBP      0.018033
     33 H18A        2.8920    7.6450    3.8350 hc        1 LBP      0.018033
     34 H18B        2.9640    6.6210    2.3420 hc        1 LBP      0.018033
     35 HN3         0.6450   -0.9790    2.3410 hn        1 LBP      0.446800
@<TRIPOS>BOND
     1    1    6 1   
     2    1   19 1   
     3    1   20 1   
     4    1   35 1   
     5    2   12 1   
     6    2   16 1   
     7    2   17 1   
     8    2   18 1   
     9    3    8 1   
    10    3   11 2   
    11    3   12 2   
    12    3   13 1   
    13    4    5 1   
    14    4    6 1   
    15    4   15 1   
    16    6    7 1   
    17    6   21 1   
    18    7   11 1   
    19    7   22 1   
    20    7   23 1   
    21    8    9 1   
    22    8   24 1   
    23    8   25 1   
    24    9   10 1   
    25    9   26 1   
    26    9   27 1   
    27   10   14 1   
    28   10   28 1   
    29   10   29 1   
    30   11   31 1   
    31   14   32 1   
    32   14   33 1   
    33   14   34 1   
    34   17   30 1   
@<TRIPOS>SUBSTRUCTURE
     1 LBP         1 TEMP              0 ****  ****    0 ROOT
