@<TRIPOS>MOLECULE
LBP
   35    34     1     0     0
SMALL
bcc


@<TRIPOS>ATOM
      1 N           0.4390   -0.5470   -0.0090 n3        1 LBP     -0.893800
      2 P           1.2670   -0.4820    6.5020 p5        1 LBP      1.687600
      3 S           2.2890    0.9280    4.1220 s6        1 LBP      1.321700
      4 C1          1.7350    1.3770   -1.0410 c         1 LBP      0.889600
      5 O1          2.1550    2.5650   -0.9580 o         1 LBP     -0.852800
      6 CA          1.0270    0.7670    0.2130 c3        1 LBP      0.028500
      7 CB          1.9950    0.8160    1.3990 c3        1 LBP     -0.030400
      8 CD          1.9840    2.6410    4.3930 c3        1 LBP     -0.278600
      9 CE          2.5020    3.5530    3.3120 c3        1 LBP     -0.056400
     10 CF          2.5130    5.0000    3.7600 c3        1 LBP     -0.070400
     11 CG          1.2820    0.6910    2.7290 c3        1 LBP     -0.291600
     12 NS          1.8320    0.2230    5.1930 n2        1 LBP     -1.114700
     13 OS          3.6570    0.8440    3.7040 o         1 LBP     -0.676800
     14 C18         2.9980    5.9090    2.6600 c3        1 LBP     -0.092100
     15 O1T         1.8190    0.6720   -2.0900 o         1 LBP     -0.852800
     16 OP1         1.3410   -1.9710    6.4470 o         1 LBP     -0.892500
     17 OP2        -0.3900   -0.3060    6.3940 oh        1 LBP     -0.813400
     18 OP3         1.6770    0.2610    7.7260 o         1 LBP     -0.892500
     19 HN          0.2050   -0.6130   -0.9870 hn        1 LBP      0.329800
     20 HNA        -0.8010   -1.1560    6.2920 ho        1 LBP      0.411000
     21 HA          0.1620    1.4580    0.4400 h1        1 LBP      0.039700
     22 HB          2.5440    1.7950    1.3410 hc        1 LBP      0.057200
     23 HBA         2.7650    0.0040    1.3120 hc        1 LBP      0.057200
     24 HD          2.4710    2.9260    5.3640 h1        1 LBP      0.090700
     25 HDA         0.8910    2.8320    4.5410 h1        1 LBP      0.090700
     26 HE          3.5430    3.2420    3.0240 hc        1 LBP      0.066700
     27 HEA         1.8600    3.4590    2.3930 hc        1 LBP      0.066700
     28 HF          3.1720    5.1100    4.6610 hc        1 LBP      0.025700
     29 HFA         1.4780    5.3010    4.0720 hc        1 LBP      0.025700
     30 HG          0.8000   -0.3250    2.7570 h1        1 LBP      0.103200
     31 HGA         0.4220    1.4110    2.7300 h1        1 LBP      0.103200
     32 H18         2.3520    5.8080    1.7540 hc        1 LBP      0.028033
     33 H18A        4.0440    5.6470    2.3690 hc        1 LBP      0.028033
     34 H18B        2.9790    6.9740    2.9950 hc        1 LBP      0.028033
     35 HN3         1.1340   -1.2510    0.1650 hn        1 LBP      0.329800
@<TRIPOS>BOND
     1    1    6 1   
     2    1   19 1   
     3    1   35 1   
     4    2   12 1   
     5    2   16 1   
     6    2   17 1   
     7    2   18 1   
     8    3    8 1   
     9    3   11 1   
    10    3   12 2   
    11    3   13 2   
    12    4    5 1   
    13    4    6 1   
    14    4   15 1   
    15    6    7 1   
    16    6   21 1   
    17    7   11 1   
    18    7   22 1   
    19    7   23 1   
    20    8    9 1   
    21    8   24 1   
    22    8   25 1   
    23    9   10 1   
    24    9   26 1   
    25    9   27 1   
    26   10   14 1   
    27   10   28 1   
    28   10   29 1   
    29   11   30 1   
    30   11   31 1   
    31   14   32 1   
    32   14   33 1   
    33   14   34 1   
    34   17   20 1   
@<TRIPOS>SUBSTRUCTURE
     1 LBP         1 TEMP              0 ****  ****    0 ROOT
