@<TRIPOS>MOLECULE
LBP
   34    29     1     0     0
SMALL
bcc


@<TRIPOS>ATOM
      1 N          -2.2910   -2.2760   -3.0200 n3        1 LBP     -0.353000
      2 P           3.0430   -1.1410    1.5780 p3        1 LBP      2.618000
      3 S           0.6440   -0.4490    0.3380 ss        1 LBP      2.848000
      4 C1         -0.2020   -2.4620   -4.1780 c1        1 LBP      0.326000
      5 O1          0.2160   -1.8750   -5.2100 os        1 LBP     -0.607000
      6 CA         -0.9970   -1.6990   -3.1440 c3        1 LBP     -0.097000
      7 CB         -0.2860   -1.7660   -1.8120 c3        1 LBP     -0.122000
      8 CD          0.5980    1.2810    0.7240 c2        1 LBP     -0.795000
      9 CE         -0.2760    1.5040    1.9380 c3        1 LBP     -0.196000
     10 CF         -0.3100    2.9800    2.2700 c3        1 LBP     -0.131000
     11 CG         -0.2860   -0.3950   -1.1710 c2        1 LBP     -0.810000
     12 NS          2.1850   -0.7080    0.2340 n1        1 LBP     -1.551000
     13 OS          0.1750   -0.9900    1.5830 o         1 LBP     -0.996000
     14 C18        -1.1530    3.1990    3.5070 c3        1 LBP     -0.205000
     15 O1T         0.0390   -3.6860   -4.0090 o         1 LBP     -0.607000
     16 OP1         3.5310    0.1010    2.2850 o         1 LBP     -1.269333
     17 OP2         4.2260   -1.9850    1.1700 o         1 LBP     -1.269333
     18 OP3         2.1550   -1.9330    2.5070 o         1 LBP     -1.269333
     19 HN         -2.9240   -1.6650   -3.2760 hn        1 LBP      0.141000
     20 HNA        -2.3480   -3.0160   -3.5560 hn        1 LBP      0.141000
     21 HA         -1.0810   -0.7660   -3.4220 h1        1 LBP      0.070000
     22 HB         -0.7480   -2.3990   -1.2270 hc        1 LBP      0.079500
     23 HBA         0.6360   -2.0620   -1.9490 hc        1 LBP      0.079500
     24 HD          0.2320    1.7750   -0.0370 ha        1 LBP      0.100000
     25 HDA         1.5050    1.5970    0.9120 ha        1 LBP      0.100000
     26 HE          0.0890    1.0080    2.6980 hc        1 LBP      0.141500
     27 HEA        -1.1830    1.1920    1.7490 hc        1 LBP      0.141500
     28 HF          0.6000    3.2980    2.4350 hc        1 LBP      0.045500
     29 HFA        -0.6980    3.4740    1.5200 hc        1 LBP      0.045500
     30 HG         -1.2060   -0.1250   -0.9780 ha        1 LBP      0.117000
     31 HGA         0.1220    0.2500   -1.7830 ha        1 LBP      0.117000
     32 H18        -2.0270    2.7720    3.3870 hc        1 LBP      0.056333
     33 H18A       -1.2760    4.1600    3.6530 hc        1 LBP      0.056333
     34 H18B       -0.7020    2.8060    4.2840 hc        1 LBP      0.056333
@<TRIPOS>BOND
     1    1    6 1   
     2    1   19 1   
     3    1   20 1   
     4    2   16 1   
     5    2   17 1   
     6    2   18 1   
     7    3   12 1   
     8    3   13 1   
     9    4    6 1   
    10    4   15 1   
    11    6    7 1   
    12    6   21 1   
    13    7   11 1   
    14    7   22 1   
    15    7   23 1   
    16    8    9 1   
    17    8   24 1   
    18    8   25 1   
    19    9   10 1   
    20    9   26 1   
    21    9   27 1   
    22   10   14 1   
    23   10   28 1   
    24   10   29 1   
    25   11   30 1   
    26   11   31 1   
    27   14   32 1   
    28   14   33 1   
    29   14   34 1   
@<TRIPOS>SUBSTRUCTURE
     1 LBP         1 TEMP              0 ****  ****    0 ROOT
