@<TRIPOS>MOLECULE
LBP
   34    33     1     0     0
SMALL
bcc


@<TRIPOS>ATOM
      1 N           3.2150   -0.4740    1.6770 n3        1 LBP     -0.908800
      2 P          -2.6640    2.7390    0.8740 p5        1 LBP      1.499700
      3 S          -1.0650    0.4290   -0.3120 s6        1 LBP      1.212700
      4 C1          3.6260   -1.9930   -0.2550 c         1 LBP      0.914600
      5 O1          3.4320   -3.2070   -0.5560 o         1 LBP     -0.869300
      6 CA          2.5740   -1.2870    0.6550 c3        1 LBP      0.041500
      7 CB          1.5640   -0.5420   -0.2360 c3        1 LBP     -0.049400
      8 CD         -1.8980   -1.0750    0.1900 c3        1 LBP     -0.263600
      9 CE         -1.2640   -2.3500   -0.2820 c3        1 LBP     -0.043400
     10 CF         -2.1520   -3.5520   -0.0280 c3        1 LBP     -0.073400
     11 CG          0.4650    0.1380    0.5450 c3        1 LBP     -0.270600
     12 NS         -1.7200    1.5100    0.1320 n2        1 LBP     -0.956700
     13 OS         -0.7650    0.1790   -1.7120 o         1 LBP     -0.714800
     14 C18        -1.5000   -4.8310   -0.4880 c3        1 LBP     -0.089100
     15 O1T         4.6440   -1.3430   -0.6400 o         1 LBP     -0.869300
     16 OP1        -2.7420    2.3320    2.3350 o         1 LBP     -0.951833
     17 OP2        -1.9150    4.0380    0.6440 o         1 LBP     -0.951833
     18 OP3        -4.0090    2.6750    0.1700 o         1 LBP     -0.951833
     19 HN          4.0650   -0.0920    1.2980 hn        1 LBP      0.330300
     20 HNA         2.6160    0.2950    1.9190 hn        1 LBP      0.330300
     21 HA          2.0080   -2.0960    1.2040 h1        1 LBP      0.035700
     22 HB          2.1090    0.2160   -0.8570 hc        1 LBP      0.045700
     23 HBA         1.1240   -1.2880   -0.9500 hc        1 LBP      0.045700
     24 HD         -1.9930   -1.0870    1.3040 h1        1 LBP      0.074700
     25 HDA        -2.9420   -1.0110   -0.2100 h1        1 LBP      0.074700
     26 HE         -1.0440   -2.2730   -1.3820 hc        1 LBP      0.055200
     27 HEA        -0.2800   -2.5040    0.2410 hc        1 LBP      0.055200
     28 HF         -2.3820   -3.6190    1.0680 hc        1 LBP      0.020700
     29 HFA        -3.1310   -3.4150   -0.5600 hc        1 LBP      0.020700
     30 HG          0.8440    1.1280    0.9100 h1        1 LBP      0.075200
     31 HGA         0.2510   -0.4590    1.4680 h1        1 LBP      0.075200
     32 H18        -1.3070   -4.7970   -1.5870 hc        1 LBP      0.018033
     33 H18A       -0.5210   -4.9780    0.0300 hc        1 LBP      0.018033
     34 H18B       -2.1540   -5.7110   -0.2710 hc        1 LBP      0.018033
@<TRIPOS>BOND
     1    1    6 1   
     2    1   19 1   
     3    1   20 1   
     4    2   12 1   
     5    2   16 1   
     6    2   17 1   
     7    2   18 1   
     8    3    8 1   
     9    3   11 1   
    10    3   12 2   
    11    3   13 2   
    12    4    5 1   
    13    4    6 1   
    14    4   15 1   
    15    6    7 1   
    16    6   21 1   
    17    7   11 1   
    18    7   22 1   
    19    7   23 1   
    20    8    9 1   
    21    8   24 1   
    22    8   25 1   
    23    9   10 1   
    24    9   26 1   
    25    9   27 1   
    26   10   14 1   
    27   10   28 1   
    28   10   29 1   
    29   11   30 1   
    30   11   31 1   
    31   14   32 1   
    32   14   33 1   
    33   14   34 1   
@<TRIPOS>SUBSTRUCTURE
     1 LBP         1 TEMP              0 ****  ****    0 ROOT
