@<TRIPOS>MOLECULE
LBP
   35    34     1     0     0
SMALL
bcc


@<TRIPOS>ATOM
      1 N           0.6660   -0.6120   -0.0520 n3        1 LBP     -0.893800
      2 P           1.1320   -0.4630    6.4920 p5        1 LBP      1.687600
      3 S           2.2430    0.9540    4.1570 s6        1 LBP      1.321700
      4 C1          1.9590    1.3420   -1.0330 c         1 LBP      0.889600
      5 O1          2.3390    2.5430   -0.9390 o         1 LBP     -0.852800
      6 CA          1.2020    0.7220    0.1880 c3        1 LBP      0.028500
      7 CB          2.1020    0.8100    1.4240 c3        1 LBP     -0.030400
      8 CD          1.8780    2.6600    4.3940 c3        1 LBP     -0.278600
      9 CE          2.4290    3.5770    3.3330 c3        1 LBP     -0.056400
     10 CF          2.3770    5.0270    3.7670 c3        1 LBP     -0.070400
     11 CG          1.3210    0.6770    2.7140 c3        1 LBP     -0.291600
     12 NS          1.7480    0.2460    5.2090 n2        1 LBP     -1.114700
     13 OS          3.6350    0.9050    3.8150 o         1 LBP     -0.676800
     14 C18         2.8970    5.9400    2.6860 c3        1 LBP     -0.092100
     15 O1T         2.1210    0.6310   -2.0680 o         1 LBP     -0.852800
     16 OP1         1.2490   -1.9500    6.4570 o         1 LBP     -0.892500
     17 OP2        -0.5200   -0.3350    6.2920 oh        1 LBP     -0.813400
     18 OP3         1.4540    0.3020    7.7300 o         1 LBP     -0.892500
     19 HN         -0.9020   -1.1960    6.1770 ho        1 LBP      0.411000
     20 HNA         1.3720   -1.2930    0.1660 hn        1 LBP      0.329800
     21 HA          0.3050    1.3890    0.3600 h1        1 LBP      0.039700
     22 HB          2.6240    1.8050    1.3850 hc        1 LBP      0.057200
     23 HBA         2.8990    0.0210    1.3880 hc        1 LBP      0.057200
     24 HD          2.3030    2.9670    5.3880 h1        1 LBP      0.090700
     25 HDA         0.7740    2.8220    4.4800 h1        1 LBP      0.090700
     26 HE          3.4930    3.2920    3.1060 hc        1 LBP      0.066700
     27 HEA         1.8410    3.4580    2.3830 hc        1 LBP      0.066700
     28 HF          2.9840    5.1630    4.7020 hc        1 LBP      0.025700
     29 HFA         1.3190    5.3030    4.0190 hc        1 LBP      0.025700
     30 HG          0.4430    1.3730    2.6610 h1        1 LBP      0.103200
     31 HGA         0.8670   -0.3510    2.7260 h1        1 LBP      0.103200
     32 H18         3.9640    5.7050    2.4550 hc        1 LBP      0.028033
     33 H18A        2.3040    5.8140    1.7480 hc        1 LBP      0.028033
     34 H18B        2.8310    7.0070    3.0100 hc        1 LBP      0.028033
     35 HN3         0.4880   -0.6930   -1.0410 hn        1 LBP      0.329800
@<TRIPOS>BOND
     1    1    6 1   
     2    1   20 1   
     3    1   35 1   
     4    2   12 1   
     5    2   16 1   
     6    2   17 1   
     7    2   18 1   
     8    3    8 1   
     9    3   11 1   
    10    3   12 2   
    11    3   13 2   
    12    4    5 1   
    13    4    6 1   
    14    4   15 1   
    15    6    7 1   
    16    6   21 1   
    17    7   11 1   
    18    7   22 1   
    19    7   23 1   
    20    8    9 1   
    21    8   24 1   
    22    8   25 1   
    23    9   10 1   
    24    9   26 1   
    25    9   27 1   
    26   10   14 1   
    27   10   28 1   
    28   10   29 1   
    29   11   30 1   
    30   11   31 1   
    31   14   32 1   
    32   14   33 1   
    33   14   34 1   
    34   17   19 1   
@<TRIPOS>SUBSTRUCTURE
     1 LBP         1 TEMP              0 ****  ****    0 ROOT
