@<TRIPOS>MOLECULE
LBR
   93    92     1     0     0
SMALL
bcc


@<TRIPOS>ATOM
      1 Br1         0.0780   -0.0950    0.3300 br        1 LBR     -0.178400
      2 C33         1.9810   -0.3770    0.4400 c3        1 LBR     -0.009000
      3 CCA         2.5690    0.0370    1.7660 c3        1 LBR     -0.081400
      4 CBA         4.0640   -0.2120    1.7800 c3        1 LBR     -0.080400
      5 CAA         4.6700    0.1990    3.1050 c3        1 LBR     -0.078400
      6 CA9         6.1630   -0.0480    3.1240 c3        1 LBR     -0.079400
      7 CA8         6.7700    0.3630    4.4490 c3        1 LBR     -0.079400
      8 CA7         8.2630    0.1170    4.4680 c3        1 LBR     -0.079400
      9 CA6         8.8700    0.5280    5.7930 c3        1 LBR     -0.079400
     10 CA5        10.3640    0.2820    5.8110 c3        1 LBR     -0.079400
     11 CA4        10.9690    0.6930    7.1360 c3        1 LBR     -0.079400
     12 CA3        12.4630    0.4510    7.1480 c3        1 LBR     -0.079400
     13 CA2        13.0590    0.8460    8.4830 c3        1 LBR     -0.127400
     14 CA1        14.5520    0.7400    8.4560 c         1 LBR      0.637100
     15 OA1        15.3450    1.0630    7.5710 o         1 LBR     -0.536000
     16 OG1        15.0600    0.2100    9.6130 os        1 LBR     -0.455900
     17 CG1        16.4880    0.1140    9.7080 c3        1 LBR      0.136400
     18 CG2        16.8320   -0.2780   11.1450 c3        1 LBR      0.102100
     19 CG3        15.9630   -1.4130   11.6920 c3        1 LBR      0.122400
     20 O3         14.7480   -0.9580   12.2450 oh        1 LBR     -0.595800
     21 OG2        16.6370    0.9060   11.9340 os        1 LBR     -0.435900
     22 CB1        17.3540    1.0170   13.0990 c         1 LBR      0.642100
     23 OB1        18.1720    0.1370   13.3700 o         1 LBR     -0.543000
     24 CB2        16.9890    2.2460   13.8710 c3        1 LBR     -0.126400
     25 CB3        18.1940    2.8160   14.5880 c3        1 LBR     -0.079400
     26 CB4        17.7900    3.9720   15.4790 c3        1 LBR     -0.078400
     27 CB5        18.9930    4.5600   16.1860 c3        1 LBR     -0.079400
     28 CB6        18.5920    5.7130   17.0810 c3        1 LBR     -0.079400
     29 CB7        19.7940    6.3010   17.7890 c3        1 LBR     -0.079400
     30 CB8        19.3940    7.4530   18.6850 c3        1 LBR     -0.079400
     31 CB9        20.5960    8.0410   19.3930 c3        1 LBR     -0.079400
     32 CAB        20.1960    9.1930   20.2890 c3        1 LBR     -0.078400
     33 CBB        21.3980    9.7810   20.9980 c3        1 LBR     -0.079400
     34 CCB        20.9980   10.9330   21.8940 c3        1 LBR     -0.079400
     35 C35        22.1990   11.5210   22.6040 c3        1 LBR     -0.080400
     36 C36        21.8060   12.6690   23.4980 c3        1 LBR     -0.092100
     37 H1          2.4340    0.2090   -0.3930 h1        1 LBR      0.071700
     38 H2          2.1490   -1.4640    0.2560 h1        1 LBR      0.071700
     39 H3          2.3700    1.1260    1.9540 hc        1 LBR      0.055700
     40 H4          2.0860   -0.5390    2.5990 hc        1 LBR      0.055700
     41 H5          4.5500    0.3640    0.9490 hc        1 LBR      0.041700
     42 H6          4.2670   -1.2990    1.5940 hc        1 LBR      0.041700
     43 H7          4.1830   -0.3760    3.9360 hc        1 LBR      0.042700
     44 H8          4.4650    1.2860    3.2910 hc        1 LBR      0.042700
     45 H9          6.6500    0.5280    2.2930 hc        1 LBR      0.040700
     46 H10         6.3680   -1.1350    2.9380 hc        1 LBR      0.040700
     47 H11         6.2830   -0.2120    5.2800 hc        1 LBR      0.040700
     48 H12         6.5650    1.4500    4.6350 hc        1 LBR      0.040700
     49 H13         8.4680   -0.9700    4.2810 hc        1 LBR      0.040700
     50 H14         8.7500    0.6930    3.6370 hc        1 LBR      0.040700
     51 H15         8.3830   -0.0480    6.6240 hc        1 LBR      0.040700
     52 H16         8.6650    1.6150    5.9790 hc        1 LBR      0.040700
     53 H17        10.5690   -0.8040    5.6230 hc        1 LBR      0.042700
     54 H18        10.8500    0.8590    4.9810 hc        1 LBR      0.042700
     55 H19        10.7610    1.7790    7.3250 hc        1 LBR      0.042200
     56 H20        10.4860    0.1130    7.9670 hc        1 LBR      0.042200
     57 H21        12.9550    1.0420    6.3300 hc        1 LBR      0.057700
     58 H22        12.6740   -0.6330    6.9480 hc        1 LBR      0.057700
     59 H23        12.6490    0.2020    9.3050 hc        1 LBR      0.079700
     60 H24        12.8060    1.9140    8.7230 hc        1 LBR      0.079700
     61 H25        16.8380   -0.6800    8.9980 h1        1 LBR      0.068200
     62 H26        16.9480    1.1000    9.4390 h1        1 LBR      0.068200
     63 H27        17.9170   -0.5820   11.1770 h1        1 LBR      0.087700
     64 H28        15.7610   -2.1470   10.8670 h1        1 LBR      0.056700
     65 H29        16.4910   -1.9210   12.5440 h1        1 LBR      0.056700
     66 H30        14.3540   -0.3410   11.6140 ho        1 LBR      0.416000
     67 H31        16.5420    3.0080   13.1800 hc        1 LBR      0.081200
     68 H32        16.1970    1.9480   14.6110 hc        1 LBR      0.081200
     69 H33        18.6810    2.0110   15.2010 hc        1 LBR      0.057700
     70 H34        18.9500    3.1630   13.8360 hc        1 LBR      0.057700
     71 H35        17.0420    3.6200   16.2380 hc        1 LBR      0.041700
     72 H36        17.2900    4.7660   14.8630 hc        1 LBR      0.041700
     73 H37        19.4950    3.7640   16.7970 hc        1 LBR      0.042700
     74 H38        19.7390    4.9140   15.4270 hc        1 LBR      0.042700
     75 H39        17.8450    5.3580   17.8400 hc        1 LBR      0.040200
     76 H40        18.0900    6.5080   16.4690 hc        1 LBR      0.040200
     77 H41        20.5410    6.6550   17.0300 hc        1 LBR      0.040200
     78 H42        20.2970    5.5060   18.4000 hc        1 LBR      0.040200
     79 H43        18.6470    7.0990   19.4430 hc        1 LBR      0.039700
     80 H44        18.8920    8.2490   18.0730 hc        1 LBR      0.039700
     81 H45        21.0980    7.2460   20.0040 hc        1 LBR      0.039700
     82 H46        21.3430    8.3960   18.6350 hc        1 LBR      0.039700
     83 H47        19.4490    8.8390   21.0470 hc        1 LBR      0.039700
     84 H48        19.6940    9.9890   19.6780 hc        1 LBR      0.039700
     85 H49        21.9000    8.9850   21.6090 hc        1 LBR      0.039700
     86 H50        22.1450   10.1360   20.2400 hc        1 LBR      0.039700
     87 H51        20.4960   11.7290   21.2830 hc        1 LBR      0.039700
     88 H52        20.2510   10.5790   22.6520 hc        1 LBR      0.039700
     89 H53        22.9460   11.8740   21.8450 hc        1 LBR      0.038700
     90 H54        22.7000   10.7240   23.2140 hc        1 LBR      0.038700
     91 H55        21.3270   13.4850   22.9040 hc        1 LBR      0.032700
     92 H56        22.7050   13.0880   24.0110 hc        1 LBR      0.032700
     93 H57        21.0800   12.3320   24.2770 hc        1 LBR      0.032700
@<TRIPOS>BOND
     1    1    2 1   
     2    2    3 1   
     3    2   37 1   
     4    2   38 1   
     5    3    4 1   
     6    3   39 1   
     7    3   40 1   
     8    4    5 1   
     9    4   41 1   
    10    4   42 1   
    11    5    6 1   
    12    5   43 1   
    13    5   44 1   
    14    6    7 1   
    15    6   45 1   
    16    6   46 1   
    17    7    8 1   
    18    7   47 1   
    19    7   48 1   
    20    8    9 1   
    21    8   49 1   
    22    8   50 1   
    23    9   10 1   
    24    9   51 1   
    25    9   52 1   
    26   10   11 1   
    27   10   53 1   
    28   10   54 1   
    29   11   12 1   
    30   11   55 1   
    31   11   56 1   
    32   12   13 1   
    33   12   57 1   
    34   12   58 1   
    35   13   14 1   
    36   13   59 1   
    37   13   60 1   
    38   14   15 2   
    39   14   16 1   
    40   16   17 1   
    41   17   18 1   
    42   17   61 1   
    43   17   62 1   
    44   18   19 1   
    45   18   21 1   
    46   18   63 1   
    47   19   20 1   
    48   19   64 1   
    49   19   65 1   
    50   20   66 1   
    51   21   22 1   
    52   22   23 2   
    53   22   24 1   
    54   24   25 1   
    55   24   67 1   
    56   24   68 1   
    57   25   26 1   
    58   25   69 1   
    59   25   70 1   
    60   26   27 1   
    61   26   71 1   
    62   26   72 1   
    63   27   28 1   
    64   27   73 1   
    65   27   74 1   
    66   28   29 1   
    67   28   75 1   
    68   28   76 1   
    69   29   30 1   
    70   29   77 1   
    71   29   78 1   
    72   30   31 1   
    73   30   79 1   
    74   30   80 1   
    75   31   32 1   
    76   31   81 1   
    77   31   82 1   
    78   32   33 1   
    79   32   83 1   
    80   32   84 1   
    81   33   34 1   
    82   33   85 1   
    83   33   86 1   
    84   34   35 1   
    85   34   87 1   
    86   34   88 1   
    87   35   36 1   
    88   35   89 1   
    89   35   90 1   
    90   36   91 1   
    91   36   92 1   
    92   36   93 1   
@<TRIPOS>SUBSTRUCTURE
     1 LBR         1 TEMP              0 ****  ****    0 ROOT
