@<TRIPOS>MOLECULE
LBS
   45    46     1     0     0
SMALL
bcc


@<TRIPOS>ATOM
      1 O6          3.6150   -0.6870   -3.4400 oh        1 LBS     -0.592800
      2 C6          2.2670   -1.1990   -3.4710 c3        1 LBS      0.129400
      3 C5          1.8720   -1.5440   -2.1870 c3        1 LBS      0.066100
      4 O5          0.9760   -0.4420   -1.5840 os        1 LBS     -0.442600
      5 C2         -0.2030   -0.9390   -1.5900 c3        1 LBS      0.314600
      6 C1         -0.9240   -0.5610   -2.8720 c3        1 LBS      0.124400
      7 O1         -0.7530    0.8290   -3.1210 oh        1 LBS     -0.615800
      8 O2         -0.9450   -0.4700   -0.4440 os        1 LBS     -0.447600
      9 C6'        -0.3120    0.6450    0.2570 c3        1 LBS      0.140400
     10 C5'        -1.3800    1.4550    0.9910 c3        1 LBS      0.134100
     11 O5'        -1.7560    0.7570    2.3620 os        1 LBS     -0.453600
     12 C2'        -1.1040    1.6520    3.4810 c3        1 LBS      0.269600
     13 O2'        -2.0900    2.3830    4.1560 oh        1 LBS     -0.600800
     14 C1'        -0.3170    0.7810    4.4660 c3        1 LBS      0.112400
     15 O1'        -1.2120    0.1560    5.3630 oh        1 LBS     -0.596800
     16 C3'        -0.3000    2.4570    2.8500 c3        1 LBS      0.099100
     17 O3'         1.0080    1.8930    2.7910 oh        1 LBS     -0.590800
     18 C4'        -0.9150    2.6250    1.3230 c3        1 LBS      0.119100
     19 O4'        -1.9730    3.5980    1.3230 oh        1 LBS     -0.590800
     20 C3         -0.0170   -2.5700   -1.5090 c3        1 LBS      0.130100
     21 O3         -1.2110   -3.2360   -2.0490 oh        1 LBS     -0.590800
     22 C4          0.9890   -2.8430   -2.2180 c3        1 LBS      0.085100
     23 O4          1.7440   -3.9960   -1.6260 oh        1 LBS     -0.587800
     24 H1          3.9450   -0.6580   -4.2810 ho        1 LBS      0.415000
     25 H2          1.6610   -0.5070   -3.8250 h1        1 LBS      0.053700
     26 H3          2.2310   -1.9890   -4.0460 h1        1 LBS      0.053700
     27 H4          2.6600   -1.6860   -1.6190 h1        1 LBS      0.081700
     28 H5         -1.8860   -0.7630   -2.7810 h1        1 LBS      0.076200
     29 H6         -0.5500   -1.0770   -3.6240 h1        1 LBS      0.076200
     30 H7         -1.2190    1.0620   -3.8490 ho        1 LBS      0.427000
     31 H8          0.3470    0.2920    0.9150 h1        1 LBS      0.063200
     32 H9          0.1490    1.2220   -0.3920 h1        1 LBS      0.063200
     33 H10        -2.1750    1.5540    0.4330 h1        1 LBS      0.096700
     34 H11        -2.7770    1.8490    4.3470 ho        1 LBS      0.431000
     35 H12         0.3060    1.3390    4.9670 h1        1 LBS      0.065700
     36 H13         0.1830    0.0950    3.9690 h1        1 LBS      0.065700
     37 H14        -0.7590   -0.1570    6.0650 ho        1 LBS      0.417000
     38 H15        -0.2720    3.3340    3.3040 h1        1 LBS      0.089700
     39 H16         1.6060    2.5220    2.9530 ho        1 LBS      0.412000
     40 H17        -0.2110    2.8930    0.7060 h1        1 LBS      0.087700
     41 H18        -1.6590    4.3750    1.0310 ho        1 LBS      0.418000
     42 H19         0.1360   -2.8480   -0.5830 h1        1 LBS      0.099700
     43 H20        -1.3950   -3.9610   -1.5610 ho        1 LBS      0.420000
     44 H21         0.7140   -3.0500   -3.1410 h1        1 LBS      0.063700
     45 H22         1.9060   -4.5850   -2.2440 ho        1 LBS      0.411000
@<TRIPOS>BOND
     1    1    2 1   
     2    1   24 1   
     3    2    3 1   
     4    2   25 1   
     5    2   26 1   
     6    3    4 1   
     7    3   22 1   
     8    3   27 1   
     9    4    5 1   
    10    5    6 1   
    11    5    8 1   
    12    5   20 1   
    13    6    7 1   
    14    6   28 1   
    15    6   29 1   
    16    7   30 1   
    17    8    9 1   
    18    9   10 1   
    19    9   31 1   
    20    9   32 1   
    21   10   11 1   
    22   10   18 1   
    23   10   33 1   
    24   11   12 1   
    25   12   13 1   
    26   12   14 1   
    27   12   16 1   
    28   13   34 1   
    29   14   15 1   
    30   14   35 1   
    31   14   36 1   
    32   15   37 1   
    33   16   17 1   
    34   16   18 1   
    35   16   38 1   
    36   17   39 1   
    37   18   19 1   
    38   18   40 1   
    39   19   41 1   
    40   20   21 1   
    41   20   22 1   
    42   20   42 1   
    43   21   43 1   
    44   22   23 1   
    45   22   44 1   
    46   23   45 1   
@<TRIPOS>SUBSTRUCTURE
     1 LBS         1 TEMP              0 ****  ****    0 ROOT
