@<TRIPOS>MOLECULE
LBS
   45    46     1     0     0
SMALL
bcc


@<TRIPOS>ATOM
      1 O6          0.2000   -0.2960    2.4290 oh        1 LBS     -0.613800
      2 C6          1.2340    0.6040    2.0960 c3        1 LBS      0.124400
      3 C5          2.3540   -0.0840    1.3110 c3        1 LBS      0.068100
      4 O5          1.7540   -1.0470    0.4330 os        1 LBS     -0.419600
      5 C2          2.1610   -0.8630   -0.9200 c3        1 LBS      0.312600
      6 C1          2.8910   -2.1270   -1.4270 c3        1 LBS      0.152400
      7 O1          2.1300   -3.2960   -1.2540 oh        1 LBS     -0.584800
      8 O2          0.9600   -0.8100   -1.6530 os        1 LBS     -0.422600
      9 C6'         0.0740    0.2760   -1.3800 c3        1 LBS      0.131400
     10 C5'        -1.3370   -0.3030   -1.2390 c3        1 LBS      0.143100
     11 O5'        -1.6310   -0.5240    0.1480 os        1 LBS     -0.457600
     12 C2'        -2.5310    0.4750    0.6460 c3        1 LBS      0.305600
     13 O2'        -1.6860    1.4470    1.1960 oh        1 LBS     -0.595800
     14 C1'        -3.4560   -0.1930    1.6760 c3        1 LBS      0.115400
     15 O1'        -2.7660   -0.4370    2.8800 oh        1 LBS     -0.592800
     16 C3'        -3.2870    1.0460   -0.5770 c3        1 LBS      0.097100
     17 O3'        -3.4250    2.4410   -0.4250 oh        1 LBS     -0.555800
     18 C4'        -2.4050    0.6650   -1.7910 c3        1 LBS      0.081100
     19 O4'        -3.1500   -0.0460   -2.7610 oh        1 LBS     -0.584800
     20 C3          3.0770    0.3850   -0.9920 c3        1 LBS      0.102100
     21 O3          2.4810    1.3510   -1.8310 oh        1 LBS     -0.582800
     22 C4          3.1760    0.9030    0.4640 c3        1 LBS      0.077100
     23 O4          4.5480    0.8990    0.8090 oh        1 LBS     -0.592800
     24 H1         -0.0680   -0.7450    1.6090 ho        1 LBS      0.438000
     25 H2          0.8050    1.4630    1.5090 h1        1 LBS      0.052200
     26 H3          1.6280    0.9780    3.0780 h1        1 LBS      0.052200
     27 H4          3.0160   -0.6700    2.0060 h1        1 LBS      0.079700
     28 H5          3.1340   -1.9760   -2.5130 h1        1 LBS      0.058700
     29 H6          3.8250   -2.2850   -0.8260 h1        1 LBS      0.058700
     30 H7          1.2280   -3.1030   -1.5460 ho        1 LBS      0.422000
     31 H8          0.3640    0.8220   -0.4460 h1        1 LBS      0.064700
     32 H9          0.1460    0.9630   -2.2660 h1        1 LBS      0.064700
     33 H10        -1.4050   -1.3130   -1.7300 h1        1 LBS      0.106700
     34 H11        -1.4440    1.1560    2.0920 ho        1 LBS      0.439000
     35 H12        -4.2800    0.5190    1.9500 h1        1 LBS      0.067700
     36 H13        -3.8730   -1.1410    1.2480 h1        1 LBS      0.067700
     37 H14        -2.0420   -1.0500    2.6860 ho        1 LBS      0.423000
     38 H15        -4.2940    0.5520   -0.6590 h1        1 LBS      0.060700
     39 H16        -3.9540    2.7430   -1.1740 ho        1 LBS      0.397000
     40 H17        -1.9440    1.5850   -2.2400 h1        1 LBS      0.066700
     41 H18        -3.7000    0.5990   -3.2210 ho        1 LBS      0.402000
     42 H19         4.0960    0.0990   -1.3710 h1        1 LBS      0.080700
     43 H20         3.1600    2.0140   -2.0130 ho        1 LBS      0.414000
     44 H21         2.7670    1.9480    0.5390 h1        1 LBS      0.065700
     45 H22         4.6070    1.1310    1.7440 ho        1 LBS      0.412000
@<TRIPOS>BOND
     1    1    2 1   
     2    1   24 1   
     3    2    3 1   
     4    2   25 1   
     5    2   26 1   
     6    3    4 1   
     7    3   22 1   
     8    3   27 1   
     9    4    5 1   
    10    5    6 1   
    11    5    8 1   
    12    5   20 1   
    13    6    7 1   
    14    6   28 1   
    15    6   29 1   
    16    7   30 1   
    17    8    9 1   
    18    9   10 1   
    19    9   31 1   
    20    9   32 1   
    21   10   11 1   
    22   10   18 1   
    23   10   33 1   
    24   11   12 1   
    25   12   13 1   
    26   12   14 1   
    27   12   16 1   
    28   13   34 1   
    29   14   15 1   
    30   14   35 1   
    31   14   36 1   
    32   15   37 1   
    33   16   17 1   
    34   16   18 1   
    35   16   38 1   
    36   17   39 1   
    37   18   19 1   
    38   18   40 1   
    39   19   41 1   
    40   20   21 1   
    41   20   22 1   
    42   20   42 1   
    43   21   43 1   
    44   22   23 1   
    45   22   44 1   
    46   23   45 1   
@<TRIPOS>SUBSTRUCTURE
     1 LBS         1 TEMP              0 ****  ****    0 ROOT
