@<TRIPOS>MOLECULE
LBS
   45    46     1     0     0
SMALL
bcc


@<TRIPOS>ATOM
      1 O6          0.4250   -1.3300   -0.4460 oh        1 LBS     -0.590800
      2 C6          1.6000   -0.5880   -0.2150 c3        1 LBS      0.127400
      3 C5          1.7540   -0.2290    1.2630 c3        1 LBS      0.094100
      4 O5          1.8040   -1.4590    2.0100 os        1 LBS     -0.425600
      5 C2          2.9420   -1.5130    2.8540 c3        1 LBS      0.277600
      6 C1          2.5100   -1.6900    4.3250 c3        1 LBS      0.151400
      7 O1          1.7820   -2.8740    4.5340 oh        1 LBS     -0.583800
      8 O2          3.6500   -2.6940    2.5220 os        1 LBS     -0.447600
      9 C6'         3.7480   -3.0140    1.1330 c3        1 LBS      0.117400
     10 C5'         4.5540   -4.3120    1.0640 c3        1 LBS      0.147100
     11 O5'         3.6890   -5.4240    1.3330 os        1 LBS     -0.440600
     12 C2'         3.4170   -6.1560    0.1360 c3        1 LBS      0.260600
     13 O2'         2.2030   -5.6230   -0.3320 oh        1 LBS     -0.620800
     14 C1'         3.3120   -7.6420    0.5050 c3        1 LBS      0.119400
     15 O1'         2.2370   -7.8430    1.3950 oh        1 LBS     -0.595800
     16 C3'         4.5270   -5.8210   -0.8870 c3        1 LBS      0.109100
     17 O3'         4.0680   -5.6810   -2.2050 oh        1 LBS     -0.581800
     18 C4'         5.1590   -4.5140   -0.3420 c3        1 LBS      0.086100
     19 O4'         6.5570   -4.6440   -0.1780 oh        1 LBS     -0.587800
     20 C3          3.7870   -0.2310    2.6370 c3        1 LBS      0.066100
     21 O3          5.0950   -0.4930    2.1730 oh        1 LBS     -0.596800
     22 C4          3.0450    0.5620    1.5370 c3        1 LBS      0.116100
     23 O4          2.6670    1.8450    1.9970 oh        1 LBS     -0.585800
     24 H1          0.4420   -2.0890    0.1530 ho        1 LBS      0.417000
     25 H2          1.4840    0.3480   -0.8240 h1        1 LBS      0.051200
     26 H3          2.4970   -1.1670   -0.5650 h1        1 LBS      0.051200
     27 H4          0.8490    0.3290    1.6300 h1        1 LBS      0.102700
     28 H5          1.8160   -0.8560    4.6120 h1        1 LBS      0.059200
     29 H6          3.4330   -1.6810    4.9640 h1        1 LBS      0.059200
     30 H7          2.2610   -3.5920    4.0970 ho        1 LBS      0.421000
     31 H8          2.7230   -3.1660    0.7020 h1        1 LBS      0.059700
     32 H9          4.2810   -2.1800    0.6030 h1        1 LBS      0.059700
     33 H10         5.3440   -4.3390    1.8630 h1        1 LBS      0.104700
     34 H11         1.4980   -5.9580    0.2420 ho        1 LBS      0.442000
     35 H12         3.0560   -8.2370   -0.4110 h1        1 LBS      0.070700
     36 H13         4.2790   -7.9900    0.9500 h1        1 LBS      0.070700
     37 H14         2.4560   -7.3830    2.2170 ho        1 LBS      0.419000
     38 H15         5.2910   -6.6460   -0.9240 h1        1 LBS      0.098700
     39 H16         3.2530   -5.1580   -2.1900 ho        1 LBS      0.430000
     40 H17         4.9260   -3.6560   -1.0280 h1        1 LBS      0.062700
     41 H18         6.9310   -4.7480   -1.0630 ho        1 LBS      0.415000
     42 H19         3.8450    0.3640    3.5880 h1        1 LBS      0.072700
     43 H20         5.4010   -1.3040    2.6060 ho        1 LBS      0.427000
     44 H21         3.6860    0.6450    0.6180 h1        1 LBS      0.072700
     45 H22         3.4800    2.3600    2.0810 ho        1 LBS      0.415000
@<TRIPOS>BOND
     1    1    2 1   
     2    1   24 1   
     3    2    3 1   
     4    2   25 1   
     5    2   26 1   
     6    3    4 1   
     7    3   22 1   
     8    3   27 1   
     9    4    5 1   
    10    5    6 1   
    11    5    8 1   
    12    5   20 1   
    13    6    7 1   
    14    6   28 1   
    15    6   29 1   
    16    7   30 1   
    17    8    9 1   
    18    9   10 1   
    19    9   31 1   
    20    9   32 1   
    21   10   11 1   
    22   10   18 1   
    23   10   33 1   
    24   11   12 1   
    25   12   13 1   
    26   12   14 1   
    27   12   16 1   
    28   13   34 1   
    29   14   15 1   
    30   14   35 1   
    31   14   36 1   
    32   15   37 1   
    33   16   17 1   
    34   16   18 1   
    35   16   38 1   
    36   17   39 1   
    37   18   19 1   
    38   18   40 1   
    39   19   41 1   
    40   20   21 1   
    41   20   22 1   
    42   20   42 1   
    43   21   43 1   
    44   22   23 1   
    45   22   44 1   
    46   23   45 1   
@<TRIPOS>SUBSTRUCTURE
     1 LBS         1 TEMP              0 ****  ****    0 ROOT
