@<TRIPOS>MOLECULE
LBS
   45    46     1     0     0
SMALL
bcc


@<TRIPOS>ATOM
      1 O6          0.4490   -1.3240   -0.4800 oh        1 LBS     -0.590800
      2 C6          1.6230   -0.5840   -0.2310 c3        1 LBS      0.127400
      3 C5          1.7570   -0.2290    1.2490 c3        1 LBS      0.094100
      4 O5          1.7940   -1.4600    1.9940 os        1 LBS     -0.425600
      5 C2          2.9210   -1.5170    2.8540 c3        1 LBS      0.277600
      6 C1          2.4680   -1.6970    4.3180 c3        1 LBS      0.151400
      7 O1          1.7360   -2.8810    4.5140 oh        1 LBS     -0.583800
      8 O2          3.6320   -2.6990    2.5290 os        1 LBS     -0.447600
      9 C6'         3.7480   -3.0170    1.1400 c3        1 LBS      0.117400
     10 C5'         4.5520   -4.3160    1.0790 c3        1 LBS      0.147100
     11 O5'         3.6820   -5.4270    1.3350 os        1 LBS     -0.440600
     12 C2'         3.4250   -6.1560    0.1330 c3        1 LBS      0.260600
     13 O2'         2.2180   -5.6200   -0.3500 oh        1 LBS     -0.620800
     14 C1'         3.3120   -7.6420    0.4970 c3        1 LBS      0.119400
     15 O1'         2.2240   -7.8430    1.3730 oh        1 LBS     -0.595800
     16 C3'         4.5490   -5.8210   -0.8750 c3        1 LBS      0.109100
     17 O3'         4.1060   -5.6780   -2.1990 oh        1 LBS     -0.581800
     18 C4'         5.1750   -4.5160   -0.3190 c3        1 LBS      0.086100
     19 O4'         6.5710   -4.6490   -0.1380 oh        1 LBS     -0.587800
     20 C3          3.7710   -0.2370    2.6500 c3        1 LBS      0.066100
     21 O3          5.0840   -0.5000    2.2040 oh        1 LBS     -0.596800
     22 C4          3.0450    0.5600    1.5420 c3        1 LBS      0.116100
     23 O4          2.6630    1.8420    2.0000 oh        1 LBS     -0.585800
     24 H1          0.4570   -2.0840    0.1180 ho        1 LBS      0.417000
     25 H2          2.5230   -1.1640   -0.5710 h1        1 LBS      0.051200
     26 H3          1.5160    0.3530   -0.8400 h1        1 LBS      0.051200
     27 H4          0.8470    0.3300    1.6050 h1        1 LBS      0.102700
     28 H5          1.7720   -0.8630    4.5970 h1        1 LBS      0.059200
     29 H6          3.3820   -1.6910    4.9690 h1        1 LBS      0.059200
     30 H7          2.2200   -3.5980    4.0820 ho        1 LBS      0.421000
     31 H8          4.2890   -2.1830    0.6190 h1        1 LBS      0.059700
     32 H9          2.7290   -3.1650    0.6950 h1        1 LBS      0.059700
     33 H10         5.3310   -4.3460    1.8890 h1        1 LBS      0.104700
     34 H11         1.5040   -5.9540    0.2140 ho        1 LBS      0.442000
     35 H12         4.2720   -7.9930    0.9540 h1        1 LBS      0.070700
     36 H13         3.0670   -8.2350   -0.4230 h1        1 LBS      0.070700
     37 H14         2.4340   -7.3850    2.1980 ho        1 LBS      0.419000
     38 H15         5.3110   -6.6470   -0.9030 h1        1 LBS      0.098700
     39 H16         3.2920   -5.1530   -2.1940 ho        1 LBS      0.430000
     40 H17         4.9520   -3.6560   -1.0060 h1        1 LBS      0.062700
     41 H18         6.9560   -4.7520   -1.0170 ho        1 LBS      0.415000
     42 H19         3.8170    0.3560    3.6040 h1        1 LBS      0.072700
     43 H20         5.3830   -1.3120    2.6390 ho        1 LBS      0.427000
     44 H21         3.6980    0.6440    0.6320 h1        1 LBS      0.072700
     45 H22         3.4750    2.3560    2.0960 ho        1 LBS      0.415000
@<TRIPOS>BOND
     1    1    2 1   
     2    1   24 1   
     3    2    3 1   
     4    2   25 1   
     5    2   26 1   
     6    3    4 1   
     7    3   22 1   
     8    3   27 1   
     9    4    5 1   
    10    5    6 1   
    11    5    8 1   
    12    5   20 1   
    13    6    7 1   
    14    6   28 1   
    15    6   29 1   
    16    7   30 1   
    17    8    9 1   
    18    9   10 1   
    19    9   31 1   
    20    9   32 1   
    21   10   11 1   
    22   10   18 1   
    23   10   33 1   
    24   11   12 1   
    25   12   13 1   
    26   12   14 1   
    27   12   16 1   
    28   13   34 1   
    29   14   15 1   
    30   14   35 1   
    31   14   36 1   
    32   15   37 1   
    33   16   17 1   
    34   16   18 1   
    35   16   38 1   
    36   17   39 1   
    37   18   19 1   
    38   18   40 1   
    39   19   41 1   
    40   20   21 1   
    41   20   22 1   
    42   20   42 1   
    43   21   43 1   
    44   22   23 1   
    45   22   44 1   
    46   23   45 1   
@<TRIPOS>SUBSTRUCTURE
     1 LBS         1 TEMP              0 ****  ****    0 ROOT
