@<TRIPOS>MOLECULE
LBT
   45    46     1     0     0
SMALL
bcc


@<TRIPOS>ATOM
      1 C1         -0.5380   -0.2530   -1.1710 c3        1 LBT      0.311900
      2 C2         -1.2960    0.6180   -2.1900 c3        1 LBT      0.083100
      3 C3         -1.0900    0.0210   -3.5910 c3        1 LBT      0.111100
      4 C4          0.4160   -0.0890   -3.8960 c3        1 LBT      0.123100
      5 C5          1.1230   -0.8550   -2.7680 c3        1 LBT      0.109100
      6 C6          2.6510   -0.7720   -2.8920 c3        1 LBT      0.149400
      7 O1         -0.5480    0.4470    0.0570 os        1 LBT     -0.410600
      8 O2         -2.6870    0.5920   -1.9300 oh        1 LBT     -0.606800
      9 O3         -1.6430    0.8660   -4.5850 oh        1 LBT     -0.606800
     10 O4          1.0130    1.1890   -4.0190 oh        1 LBT     -0.589800
     11 O5          0.8430   -0.3260   -1.4720 os        1 LBT     -0.415600
     12 O6          3.2760   -1.4300   -1.8130 oh        1 LBT     -0.608800
     13 C1'         0.1910   -0.2450    4.0800 c3        1 LBT      0.305900
     14 C2'         1.4400   -0.1760    3.1890 c3        1 LBT      0.091100
     15 C3'         1.1260    0.3650    1.7830 c3        1 LBT      0.111100
     16 C4'        -0.1150   -0.3180    1.1890 c3        1 LBT      0.135100
     17 C5'        -1.2810   -0.2720    2.1920 c3        1 LBT      0.083100
     18 C6'        -2.4660   -1.1010    1.6880 c3        1 LBT      0.137400
     19 O1'        -0.1910    1.0720    4.3990 oh        1 LBT     -0.632800
     20 O2'         2.4480    0.6060    3.7940 oh        1 LBT     -0.590800
     21 O3'         2.2180    0.0700    0.9260 oh        1 LBT     -0.586800
     22 O5'        -0.9170   -0.8500    3.4480 os        1 LBT     -0.452600
     23 O6'        -3.6040   -0.9140    2.4990 oh        1 LBT     -0.592800
     24 H1         -0.9910   -1.2800   -1.0800 h2        1 LBT      0.046700
     25 H2         -0.9020    1.6710   -2.1580 h1        1 LBT      0.088700
     26 H3         -1.5730   -0.9930   -3.6470 h1        1 LBT      0.057700
     27 H4          0.5480   -0.6510   -4.8630 h1        1 LBT      0.056700
     28 H5          0.7810   -1.9270   -2.8000 h1        1 LBT      0.049700
     29 H6C1        2.9650    0.3040   -2.9390 h1        1 LBT      0.062700
     30 H6C2        2.9850   -1.3170   -3.8130 h1        1 LBT      0.062700
     31 HA         -2.8130    1.0090   -1.0670 ho        1 LBT      0.425000
     32 HB         -2.5530    1.0520   -4.3160 ho        1 LBT      0.430000
     33 HC          0.4610    1.6960   -4.6300 ho        1 LBT      0.424000
     34 H6          2.9880   -0.9860   -1.0000 ho        1 LBT      0.430000
     35 H1'         0.3730   -0.8680    5.0010 h2        1 LBT      0.086700
     36 H2'         1.8880   -1.2080    3.1050 h1        1 LBT      0.102700
     37 H3'         0.9580    1.4780    1.8270 h1        1 LBT      0.066700
     38 H4'         0.1380   -1.3730    0.9020 h1        1 LBT      0.080700
     39 H5'        -1.5930    0.7960    2.3600 h1        1 LBT      0.079700
     40 H6'1       -2.7630   -0.7340    0.6670 h1        1 LBT      0.057700
     41 H6'2       -2.1870   -2.1870    1.6450 h1        1 LBT      0.057700
     42 HD         -0.9700    1.0230    4.9660 ho        1 LBT      0.427000
     43 HE          2.0630    1.4700    3.9990 ho        1 LBT      0.421000
     44 HF          2.9910    0.4990    1.3170 ho        1 LBT      0.415000
     45 H6'        -3.3670   -1.2080    3.3890 ho        1 LBT      0.411000
@<TRIPOS>BOND
     1    1    2 1   
     2    1    7 1   
     3    1   11 1   
     4    1   24 1   
     5    2    3 1   
     6    2    8 1   
     7    2   25 1   
     8    3    4 1   
     9    3    9 1   
    10    3   26 1   
    11    4    5 1   
    12    4   10 1   
    13    4   27 1   
    14    5    6 1   
    15    5   11 1   
    16    5   28 1   
    17    6   12 1   
    18    6   29 1   
    19    6   30 1   
    20    7   16 1   
    21    8   31 1   
    22    9   32 1   
    23   10   33 1   
    24   12   34 1   
    25   13   14 1   
    26   13   19 1   
    27   13   22 1   
    28   13   35 1   
    29   14   15 1   
    30   14   20 1   
    31   14   36 1   
    32   15   16 1   
    33   15   21 1   
    34   15   37 1   
    35   16   17 1   
    36   16   38 1   
    37   17   18 1   
    38   17   22 1   
    39   17   39 1   
    40   18   23 1   
    41   18   40 1   
    42   18   41 1   
    43   19   42 1   
    44   20   43 1   
    45   21   44 1   
    46   23   45 1   
@<TRIPOS>SUBSTRUCTURE
     1 LBT         1 TEMP              0 ****  ****    0 ROOT
