@<TRIPOS>MOLECULE
LBY
   38    37     1     0     0
SMALL
bcc


@<TRIPOS>ATOM
      1 C1          4.9130    0.9760    1.2450 c3        1 LBY     -0.112767
      2 CT          5.0550   -0.1210    0.2020 c3        1 LBY      0.186800
      3 C2          5.7320    0.3920   -1.0590 c3        1 LBY     -0.112767
      4 C3          5.8390   -1.3000    0.7790 c3        1 LBY     -0.112767
      5 O2          3.7680   -0.7080   -0.1020 os        1 LBY     -0.459900
      6 CZ          2.7950    0.0600   -0.7100 c         1 LBY      0.729100
      7 O1          2.9750    1.2770   -0.8820 o         1 LBY     -0.593000
      8 NZ          1.7240   -0.7130   -1.1360 n         1 LBY     -0.505900
      9 CE          0.4330   -0.0880   -1.3300 c3        1 LBY      0.067000
     10 CD         -0.5670   -0.3100   -0.1970 c3        1 LBY     -0.111400
     11 CG         -1.9270    0.2330   -0.5860 c3        1 LBY     -0.072400
     12 CB         -2.9440   -0.0280    0.5040 c3        1 LBY     -0.064400
     13 CA         -4.3600    0.3750    0.0890 c3        1 LBY      0.018500
     14 C          -5.3630   -0.2450    1.1190 c         1 LBY      0.887600
     15 OXT        -5.2670   -1.4810    1.3530 o         1 LBY     -0.843800
     16 O          -6.2260    0.5180    1.6420 o         1 LBY     -0.843800
     17 N          -4.5150    1.8100   -0.1170 n3        1 LBY     -0.892800
     18 H11         4.3800    1.8570    0.8130 hc        1 LBY      0.048700
     19 H12         4.3320    0.5990    2.1190 hc        1 LBY      0.048700
     20 H13         5.9260    1.2940    1.5890 hc        1 LBY      0.048700
     21 H21         6.7850    0.6770   -0.8260 hc        1 LBY      0.048700
     22 H22         5.7340   -0.4020   -1.8430 hc        1 LBY      0.048700
     23 H23         5.1910    1.2860   -1.4540 hc        1 LBY      0.048700
     24 H31         5.3190   -1.7020    1.6800 hc        1 LBY      0.048700
     25 H32         5.9230   -2.1140    0.0220 hc        1 LBY      0.048700
     26 H33         6.8600   -0.9540    1.0650 hc        1 LBY      0.048700
     27 HZ1         1.6970   -1.6380   -0.7610 hn        1 LBY      0.303500
     28 HE2         0.5790    1.0180   -1.4910 h1        1 LBY      0.067200
     29 HE3         0.0130   -0.5290   -2.2800 h1        1 LBY      0.067200
     30 HD2        -0.6570   -1.4050    0.0330 hc        1 LBY      0.041700
     31 HD3        -0.2110    0.1990    0.7350 hc        1 LBY      0.041700
     32 HG2        -1.8510    1.3330   -0.7840 hc        1 LBY      0.040200
     33 HG3        -2.2680   -0.2540   -1.5380 hc        1 LBY      0.040200
     34 HB2        -2.9750   -1.1240    0.7500 hc        1 LBY      0.047700
     35 HB3        -2.6450    0.5170    1.4370 hc        1 LBY      0.047700
     36 HA         -4.5880   -0.1130   -0.9040 h1        1 LBY      0.039700
     37 H          -5.5040    1.9990   -0.1480 hn        1 LBY      0.330800
     38 H2         -4.1660    2.2870    0.6960 hn        1 LBY      0.330800
@<TRIPOS>BOND
     1    1    2 1   
     2    1   18 1   
     3    1   19 1   
     4    1   20 1   
     5    2    3 1   
     6    2    4 1   
     7    2    5 1   
     8    3   21 1   
     9    3   22 1   
    10    3   23 1   
    11    4   24 1   
    12    4   25 1   
    13    4   26 1   
    14    5    6 1   
    15    6    7 2   
    16    6    8 1   
    17    8    9 1   
    18    8   27 1   
    19    9   10 1   
    20    9   28 1   
    21    9   29 1   
    22   10   11 1   
    23   10   30 1   
    24   10   31 1   
    25   11   12 1   
    26   11   32 1   
    27   11   33 1   
    28   12   13 1   
    29   12   34 1   
    30   12   35 1   
    31   13   14 1   
    32   13   17 1   
    33   13   36 1   
    34   14   15 1   
    35   14   16 1   
    36   17   37 1   
    37   17   38 1   
@<TRIPOS>SUBSTRUCTURE
     1 LBY         1 TEMP              0 ****  ****    0 ROOT
