@<TRIPOS>MOLECULE
LC
   33    33     1     0     0
SMALL
bcc


@<TRIPOS>ATOM
      1 OP3        -0.0040   -2.7050    3.9820 o         1 LC      -0.923167
      2 P           0.5460   -3.2920    2.7040 p5        1 LC       1.559500
      3 OP1         1.5110   -4.4050    3.0360 o         1 LC      -0.923167
      4 OP2        -0.5890   -3.8410    1.8730 o         1 LC      -0.923167
      5 O5'         1.3000   -2.1660    1.8890 os        1 LC      -0.741000
      6 C5'         0.5460   -1.0980    1.3660 c3        1 LC       0.055000
      7 C4'         1.3140    0.1680    1.5110 c3        1 LC      -0.050000
      8 O4'         0.5100    1.1850    1.4640 os        1 LC      -0.296000
      9 C3'         2.3620    0.3440    0.2450 c3        1 LC      -0.022000
     10 O3'         3.4380    1.2970    0.6050 oh        1 LC      -0.396000
     11 C2'         1.6970    0.7930   -0.6900 c3        1 LC      -0.004000
     12 O2'         2.5240    1.7280   -1.5130 oh        1 LC      -0.342000
     13 C1'         0.4830    1.5900    0.0110 c3        1 LC       0.111000
     14 N1         -0.6380    1.2580   -0.5240 n         1 LC      -0.259000
     15 C2         -1.8460    1.1870    0.2950 c2        1 LC       0.343000
     16 O2         -1.8090    1.5230    1.4610 o         1 LC      -0.400000
     17 N3         -3.0940    0.6910   -0.2830 n2        1 LC      -0.332000
     18 C4         -3.1780    0.4330   -1.6750 c1        1 LC       0.185000
     19 N4         -4.4300    0.1220   -2.2650 n2        1 LC      -0.336000
     20 C5         -1.9840    0.5830   -2.5210 c2        1 LC      -0.372000
     21 C6         -0.7100    1.0020   -1.9180 c2        1 LC       0.091000
     22 H5'         0.3610   -1.2610    0.4180 h1        1 LC       0.055000
     23 H5''       -0.3000   -1.0240    1.8560 h1        1 LC       0.055000
     24 H4'         1.8050    0.1680    2.3560 h1        1 LC       0.078000
     25 H3'         2.7450   -0.5230    0.0010 h1        1 LC       0.201000
     26 HO3'        4.2070    0.8580    0.6890 ho        1 LC       0.294000
     27 H2'         1.3510    0.0640   -1.2430 h1        1 LC       0.112000
     28 HO2'        2.8660    1.2890   -2.2070 ho        1 LC       0.219000
     29 H1'         0.6230    2.5550   -0.0710 h2        1 LC       0.146000
     30 H41        -4.4820   -0.0590   -3.1600 hn        1 LC       0.188500
     31 H42        -5.1840    0.0920   -1.7490 hn        1 LC       0.188500
     32 H5         -2.0380    0.4060   -3.4790 ha        1 LC       0.167000
     33 H6          0.0990    1.0390   -2.4640 h4        1 LC       0.270000
@<TRIPOS>BOND
     1    1    2 1   
     2    2    3 1   
     3    2    4 1   
     4    2    5 1   
     5    5    6 1   
     6    6    7 1   
     7    6   22 1   
     8    6   23 1   
     9    7    8 1   
    10    7    9 1   
    11    7   24 1   
    12    8   13 1   
    13    9   10 1   
    14    9   11 1   
    15    9   25 1   
    16   10   26 1   
    17   11   12 1   
    18   11   13 1   
    19   11   27 1   
    20   12   28 1   
    21   13   14 1   
    22   13   29 1   
    23   14   15 1   
    24   14   21 1   
    25   15   16 1   
    26   15   17 1   
    27   17   18 1   
    28   18   20 1   
    29   19   30 1   
    30   19   31 1   
    31   20   21 1   
    32   20   32 1   
    33   21   33 1   
@<TRIPOS>SUBSTRUCTURE
     1 LC          1 TEMP              0 ****  ****    0 ROOT
