@<TRIPOS>MOLECULE
LC
   33    34     1     0     0
SMALL
bcc


@<TRIPOS>ATOM
      1 OP3         3.0250    1.0980    3.4700 o         1 LC      -0.842500
      2 P           3.3850    2.5270    3.5450 p5        1 LC       1.427800
      3 OP1         4.7280    3.0950    3.7960 o         1 LC      -0.842500
      4 OP2         2.4660    3.2670    4.6820 oh        1 LC      -0.782400
      5 O5'         2.7630    3.2940    2.2260 os        1 LC      -0.584200
      6 C5'         1.5600    2.8110    1.7080 c3        1 LC       0.182400
      7 C4'         1.7650    2.3380    0.2610 c3        1 LC       0.086100
      8 O4'         0.6520    2.7770   -0.5360 os        1 LC      -0.426600
      9 C3'         1.8890    0.8050    0.1350 c3        1 LC       0.114100
     10 O3'         2.9560    0.4410   -0.7200 oh        1 LC      -0.592800
     11 C2'         0.5200    0.3740   -0.4230 c3        1 LC       0.067100
     12 O2'         0.7080   -0.6730   -1.3600 oh        1 LC      -0.609800
     13 C1'        -0.0190    1.6490   -1.1440 c3        1 LC       0.283500
     14 N1         -1.4600    1.7870   -1.1120 n         1 LC      -0.334400
     15 C2         -2.1170    2.4420   -2.2170 c         1 LC       0.753500
     16 O2         -1.4340    2.7930   -3.2210 o         1 LC      -0.700100
     17 N3         -3.4990    2.6280   -2.1980 ne        1 LC      -0.805100
     18 C4         -4.1840    2.1790   -1.1120 cf        1 LC       0.670500
     19 N4         -5.5810    2.4460   -1.0420 nh        1 LC      -0.884800
     20 C5         -3.5590    1.4780   -0.0460 cf        1 LC      -0.587700
     21 C6         -2.1660    1.3010   -0.0540 c1        1 LC      -0.100900
     22 H5'         1.1650    1.9740    2.3480 h1        1 LC       0.045200
     23 H5''        0.8160    3.6580    1.6940 h1        1 LC       0.045200
     24 H4'         2.6730    2.8410   -0.1730 h1        1 LC       0.068700
     25 H3'         2.1330    0.3240    1.1230 h1        1 LC       0.135700
     26 HO3'        2.6760    0.6450   -1.6200 ho        1 LC       0.391000
     27 H2'        -0.1700    0.0520    0.4050 h1        1 LC       0.112700
     28 HO2'       -0.1720   -0.8790   -1.6950 ho        1 LC       0.401000
     29 H1'         0.3080    1.6480   -2.2290 h2        1 LC       0.068700
     30 H41        -5.9930    2.6930   -1.9170 hn        1 LC       0.356300
     31 H42        -6.0660    1.6870   -0.6140 hn        1 LC       0.356300
     32 H5         -4.1280    1.1020    0.8070 ha        1 LC       0.112000
     33 H6          2.8700    4.0720    4.9820 ho        1 LC       0.417000
@<TRIPOS>BOND
     1    1    2 1   
     2    2    3 1   
     3    2    4 1   
     4    2    5 1   
     5    4   33 1   
     6    5    6 1   
     7    6    7 1   
     8    6   22 1   
     9    6   23 1   
    10    7    8 1   
    11    7    9 1   
    12    7   24 1   
    13    8   13 1   
    14    9   10 1   
    15    9   11 1   
    16    9   25 1   
    17   10   26 1   
    18   11   12 1   
    19   11   13 1   
    20   11   27 1   
    21   12   28 1   
    22   13   14 1   
    23   13   29 1   
    24   14   15 1   
    25   14   21 2   
    26   15   16 2   
    27   15   17 1   
    28   17   18 2   
    29   18   19 1   
    30   18   20 1   
    31   19   30 1   
    32   19   31 1   
    33   20   21 2   
    34   20   32 1   
@<TRIPOS>SUBSTRUCTURE
     1 LC          1 TEMP              0 ****  ****    0 ROOT
