@<TRIPOS>MOLECULE
LC0
   57    48     1     0     0
SMALL
bcc


@<TRIPOS>ATOM
      1 C4          4.9550   -4.3300    0.6950 c1        1 LC0     -0.072000
      2 C5          4.2810   -3.8560    2.9500 c1        1 LC0     -0.146500
      3 C6          5.8970   -5.2260    1.1620 c1        1 LC0     -0.159000
      4 C7          5.2260   -4.7550    3.4190 c1        1 LC0     -0.146500
      5 C8         -0.7790   -0.2690    1.3780 c1        1 LC0     -0.208000
      6 C10         0.6310   -1.7670   -0.4520 c1        1 LC0     -0.065000
      7 C13         3.2270   -2.4620    1.3030 c3        1 LC0      0.027000
      8 C15         4.1440   -3.6420    1.5920 c1        1 LC0     -0.126000
      9 C17        -1.0300   -0.1350    0.0130 c1        1 LC0     -0.026000
     10 C20         0.8850   -1.9050    0.9080 c1        1 LC0      0.008000
     11 C21        -3.8890    3.8690   -3.0900 c1        1 LC0      0.012000
     12 C22        -4.0550    1.1660   -3.2610 c1        1 LC0      0.064000
     13 C1         -5.0180    8.6900   -2.0500 c3        1 LC0     -0.058000
     14 C2          8.1690   -5.7540    3.4850 c3        1 LC0     -0.076000
     15 C3         -0.4030   -1.8540    3.9690 c3        1 LC0     -0.078000
     16 C9         -3.2970    6.1060   -3.7610 c1        1 LC0     -0.128000
     17 C11        -4.8630    3.2600   -3.8690 c1        1 LC0     -0.110000
     18 C12        -4.6830    6.0180   -2.0230 c1        1 LC0     -0.103000
     19 C14        -2.1840    0.7620   -0.4740 c2        1 LC0      0.041000
     20 C16         6.0340   -5.4400    2.5240 c1        1 LC0      0.084000
     21 C18         0.1780   -1.1550    1.8160 c1        1 LC0      0.057000
     22 C19        -3.9250    5.2560   -2.8860 c1        1 LC0     -0.140000
     23 C23        -3.0730    1.7780   -2.4760 c1        1 LC0      0.048000
     24 N24        -4.5110   -0.0860   -3.8330 n2        1 LC0     -0.308000
     25 N25        -0.3250   -0.8820   -0.8880 n2        1 LC0     -0.123000
     26 N26        -4.9280    1.9130   -3.9410 n2        1 LC0     -0.154000
     27 N27        -3.6610    7.3810   -3.4430 n2        1 LC0     -0.082000
     28 N28        -3.0090    3.1160   -2.4050 n1        1 LC0     -0.154000
     29 N29        -4.5210    7.3250   -2.3640 n3        1 LC0     -0.126000
     30 O30         7.0510   -6.3480    2.8520 os        1 LC0     -0.210000
     31 O31         0.5580   -1.2480    3.1420 os        1 LC0     -0.212000
     32 O32         1.8480   -2.8930    1.3850 os        1 LC0     -0.204000
     33 O33        -1.9420    1.1510   -1.8360 os        1 LC0     -0.204000
     34 H4          4.8600   -4.1810   -0.2580 ha        1 LC0      0.150000
     35 H5          3.7270   -3.3870    3.5630 ha        1 LC0      0.134000
     36 H6          6.4750   -5.7160    0.5210 ha        1 LC0      0.151000
     37 H7          5.3220   -4.9050    4.3770 ha        1 LC0      0.134000
     38 H8         -1.2970    0.2790    2.0400 ha        1 LC0      0.153000
     39 H10         1.1270   -2.2930   -1.0900 ha        1 LC0      0.179000
     40 H13         3.3910   -1.7450    1.9690 h1        1 LC0      0.097000
     41 H13A        3.4060   -2.1270    0.4200 h1        1 LC0      0.097000
     42 H1         -5.2860    9.1370   -2.8750 h1        1 LC0      0.098000
     43 H1A        -4.2960    9.2110   -1.6110 h1        1 LC0      0.098000
     44 H1B        -5.7980    8.6270   -1.4390 h1        1 LC0      0.098000
     45 H2          8.7590   -5.3550    2.8040 h1        1 LC0      0.083667
     46 H2A         7.8620   -5.0540    4.1040 h1        1 LC0      0.083667
     47 H2B         8.6650   -6.4410    3.9870 h1        1 LC0      0.083667
     48 H3          0.0530   -2.3850    4.6690 h1        1 LC0      0.089333
     49 H3A        -0.9560   -1.1600    4.3910 h1        1 LC0      0.089333
     50 H3B        -0.9810   -2.4510    3.4230 h1        1 LC0      0.089333
     51 H9         -2.6820    5.8390   -4.5010 DU        1 LC0      0.184000
     52 H11        -5.4940    3.7990   -4.3600 ha        1 LC0      0.164000
     53 H12        -5.2450    5.6770   -1.2910 DU        1 LC0      0.184000
     54 H14        -3.0380    0.2610   -0.4190 h4        1 LC0      0.106500
     55 H14A       -2.2370    1.5550    0.0830 h4        1 LC0      0.106500
     56 HN24       -4.1420   -0.8790   -3.5540 hn        1 LC0      0.212000
     57 HN2A       -5.1820   -0.0850   -4.4920 hn        1 LC0      0.212000
@<TRIPOS>BOND
     1    1    8 1   
     2    1   34 1   
     3    2    4 1   
     4    2   35 1   
     5    3   20 1   
     6    3   36 1   
     7    4   37 1   
     8    5    9 1   
     9    5   38 1   
    10    6   25 1   
    11    6   39 1   
    12    7    8 1   
    13    7   32 1   
    14    7   40 1   
    15    7   41 1   
    16    9   25 1   
    17   10   21 1   
    18   10   32 1   
    19   11   28 1   
    20   12   23 1   
    21   12   26 1   
    22   13   29 1   
    23   13   42 1   
    24   13   43 1   
    25   13   44 1   
    26   14   30 1   
    27   14   45 1   
    28   14   46 1   
    29   14   47 1   
    30   15   31 1   
    31   15   48 1   
    32   15   49 1   
    33   15   50 1   
    34   16   22 1   
    35   16   27 1   
    36   17   26 1   
    37   17   52 1   
    38   18   22 1   
    39   18   29 1   
    40   19   33 1   
    41   19   54 1   
    42   19   55 1   
    43   20   30 1   
    44   21   31 1   
    45   23   33 1   
    46   24   56 1   
    47   24   57 1   
    48   27   29 1   
@<TRIPOS>SUBSTRUCTURE
     1 LC0         1 TEMP              0 ****  ****    0 ROOT
