@<TRIPOS>MOLECULE
LC0
   57    55     1     0     0
SMALL
bcc


@<TRIPOS>ATOM
      1 C4          0.3030   -0.2790    0.5970 c2        1 LC0     -0.069000
      2 C5         -0.2810    1.1920    2.4830 c2        1 LC0     -0.427000
      3 C6          1.3560   -0.6100    1.2990 c1        1 LC0     -0.186000
      4 C7          0.8230    0.8680    3.1390 c1        1 LC0      0.142000
      5 C8         -5.7730   -3.5470    0.9820 c2        1 LC0     -0.204000
      6 C10        -4.3380   -1.2210    1.2650 c2        1 LC0     -0.112000
      7 C15        -0.6530    0.6800    1.1690 c2        1 LC0     -0.005000
      8 C17        -6.3400   -2.3560    1.5040 c2        1 LC0      0.016000
      9 C20        -3.6940   -2.3650    0.7310 c2        1 LC0      0.029000
     10 C21       -12.0360   -2.6530    1.4210 c2        1 LC0     -0.095000
     11 C22       -10.1430   -4.6440    1.8300 c2        1 LC0      0.100000
     12 C1        -14.7610    1.3980    0.5450 c1        1 LC0     -0.013000
     13 C2          3.9580    0.6640    2.9250 c1        1 LC0     -0.008000
     14 C3         -6.5680   -4.7720    0.9440 c1        1 LC0      0.065000
     15 C9        -14.5110   -1.9210    1.5240 c2        1 LC0     -0.094000
     16 C11       -12.4630   -3.9700    1.8600 c1        1 LC0     -0.111000
     17 C12       -13.0210   -0.3520    0.8500 c2        1 LC0     -0.127000
     18 C16         2.3420   -0.8770    2.1120 c2        1 LC0     -0.040000
     19 C18        -4.4300   -3.5460    0.5800 c2        1 LC0     -0.118000
     20 C19       -13.0760   -1.6680    1.2580 c2        1 LC0     -0.071000
     21 C23        -9.8370   -3.3250    1.3470 c2        1 LC0     -0.068000
     22 N25        -5.6250   -1.2110    1.6320 n2        1 LC0     -0.106000
     23 N26       -11.5110   -4.9000    2.0390 n7        1 LC0     -0.134000
     24 N27       -15.2360   -0.8320    1.2870 n2        1 LC0     -0.021000
     25 N28       -10.7530   -2.3370    1.1650 n2        1 LC0     -0.058000
     26 N29       -14.3740    0.1670    0.8700 na        1 LC0     -0.105000
     27 O30         3.5770   -0.1580    2.0300 os        1 LC0     -0.038000
     28 O31        -6.5250   -5.5690   -0.0700 oh        1 LC0     -0.150000
     29 O32        -2.3810   -2.3740    0.3360 oh        1 LC0     -0.243000
     30 O33        -8.5240   -3.0770    0.9550 os        1 LC0     -0.206000
     31 H4         -2.0170    0.6750   -0.4770 ha        1 LC0      0.128000
     32 H5         -0.9770    1.9210    2.9450 ha        1 LC0      0.193000
     33 H6          0.1000   -0.6780   -0.4090 ha        1 LC0      0.162000
     34 H7          2.3660   -1.7010    2.8410 h4        1 LC0      0.174000
     35 H8         -3.9520   -4.4500    0.1730 ha        1 LC0      0.157000
     36 H10        -3.7840   -0.2710    1.3930 h4        1 LC0      0.170000
     37 H13        -2.4740    1.7790    0.9450 ha        1 LC0      0.128000
     38 H13A       -1.9900   -1.5150    0.5720 ho        1 LC0      0.231000
     39 H1        -11.6950    2.4210   -0.1780 ha        1 LC0      0.002167
     40 H1A       -13.9050    2.0460    0.2340 ha        1 LC0      0.027000
     41 H1B       -11.0430    2.2420   -0.2180 ha        1 LC0      0.002167
     42 H2          3.3420    0.8860    3.8200 ha        1 LC0      0.067000
     43 H2A         2.6100    2.5230    2.1960 ha        1 LC0      0.002167
     44 H2B         3.2130    2.7340    1.9620 ha        1 LC0      0.002167
     45 H3         -4.2960   -6.8080   -0.5490 ha        1 LC0      0.002167
     46 H3A        -5.9530   -5.2970   -0.8230 ho        1 LC0      0.183000
     47 H3B        -4.0390   -6.4390   -1.0550 ha        1 LC0      0.002167
     48 H9        -14.9210   -2.8770    1.8670 h4        1 LC0      0.210000
     49 H11       -11.7940   -5.8060    2.3520 hn        1 LC0      0.257000
     50 H12       -12.1840    0.2790    0.5450 h4        1 LC0      0.192000
     51 H14        -7.8660   -2.8560    2.9410 h1        1 LC0      0.112500
     52 H14A       -8.1980   -1.3000    2.0130 h1        1 LC0      0.112500
     53 HN24       -9.3970   -6.5150    2.1840 hn        1 LC0      0.248500
     54 HN2A       -8.2190   -5.3210    1.8450 hn        1 LC0      0.248500
     55 C13        -1.7670    1.0540    0.5230 c2        1 LC0     -0.225000
     56 C14        -7.7820   -2.3400    1.9470 c3        1 LC0      0.022000
     57 N24        -9.1620   -5.5530    2.1410 n8        1 LC0     -0.354000
@<TRIPOS>BOND
     1    1    3 1   
     2    1    7 1   
     3    1   33 1   
     4    2    4 1   
     5    2    7 1   
     6    2   32 1   
     7    3   18 1   
     8    5    8 1   
     9    5   14 1   
    10    5   19 1   
    11    6    9 1   
    12    6   22 1   
    13    6   36 1   
    14    7   55 1   
    15    8   22 1   
    16    8   56 1   
    17    9   19 1   
    18    9   29 1   
    19   10   16 1   
    20   10   20 1   
    21   10   25 1   
    22   11   21 1   
    23   11   23 1   
    24   11   57 1   
    25   12   26 1   
    26   12   40 1   
    27   13   27 1   
    28   13   42 1   
    29   14   28 1   
    30   15   20 1   
    31   15   24 1   
    32   15   48 1   
    33   16   23 1   
    34   17   20 1   
    35   17   26 1   
    36   17   50 1   
    37   18   27 1   
    38   18   34 1   
    39   19   35 1   
    40   21   25 1   
    41   21   30 1   
    42   23   49 1   
    43   24   26 1   
    44   28   46 1   
    45   29   38 1   
    46   30   56 1   
    47   31   55 1   
    48   37   55 1   
    49   39   41 1   
    50   43   44 1   
    51   45   47 1   
    52   51   56 1   
    53   52   56 1   
    54   53   57 1   
    55   54   57 1   
@<TRIPOS>SUBSTRUCTURE
     1 LC0         1 TEMP              0 ****  ****    0 ROOT
