@<TRIPOS>MOLECULE
LC0
   57    55     1     0     0
SMALL
bcc


@<TRIPOS>ATOM
      1 C4         -4.0150    0.9090    0.0700 c2        1 LC0     -0.005000
      2 C5         -0.3190   -1.6600    5.5310 c1        1 LC0     -0.229000
      3 C6         -2.7310    0.9280    0.6280 c1        1 LC0     -0.130000
      4 C7         -0.4790   -0.9550    4.5780 c1        1 LC0     -0.229000
      5 C8         -5.0560   -4.3570    2.2660 c2        1 LC0     -0.207000
      6 C10        -3.5100   -2.4620    3.5210 c2        1 LC0     -0.105000
      7 C15        -4.3380    1.4890   -1.0590 c1        1 LC0     -0.144000
      8 C17        -5.5870   -3.1360    2.7530 c2        1 LC0      0.016000
      9 C20        -2.8980   -3.6580    3.0680 c2        1 LC0      0.033000
     10 C21       -10.6790   -2.0250    0.4230 c2        1 LC0     -0.100000
     11 C22        -9.4810   -4.4470    1.0630 c2        1 LC0      0.102000
     12 C1        -12.1010    2.6440   -0.4640 c1        1 LC0     -0.016000
     13 C2          0.5370    1.7020    1.1890 c3        1 LC0     -0.078000
     14 C3         -5.9510   -5.3470    1.6730 c1        1 LC0      0.059000
     15 C9        -12.8100   -0.7470   -0.2870 c2        1 LC0     -0.094000
     16 C11       -11.4540   -3.2510    0.3470 c1        1 LC0     -0.113000
     17 C12       -10.9550    0.5040    0.0760 c2        1 LC0     -0.129000
     18 C16        -1.6460    0.9260    1.1320 c1        1 LC0     -0.065000
     19 C18        -3.6870   -4.6170    2.4220 c2        1 LC0     -0.121000
     20 C19       -11.3820   -0.8070    0.1030 c2        1 LC0     -0.068000
     21 C23        -8.7930   -3.1820    1.0500 c2        1 LC0     -0.069000
     22 N25        -4.8130   -2.2020    3.3610 n2        1 LC0     -0.107000
     23 N26       -10.8290   -4.3960    0.6620 n3        1 LC0     -0.135000
     24 N27       -13.1850    0.5060   -0.5230 n2        1 LC0     -0.022000
     25 N28        -9.3770   -1.9910    0.7610 n2        1 LC0     -0.057000
     26 N29       -12.0860    1.3220   -0.3160 na        1 LC0     -0.104000
     27 O30        -0.4790    0.8530    1.7620 os        1 LC0     -0.130000
     28 O31        -5.5890   -6.0560    0.6580 oh        1 LC0     -0.153000
     29 O32        -1.5650   -3.9300    3.2280 oh        1 LC0     -0.243000
     30 O33        -7.4170   -3.2020    1.2590 os        1 LC0     -0.204000
     31 H4         -4.6460    1.5300   -3.1360 ha        1 LC0      0.135000
     32 H5         -0.1760   -2.2790    6.3820 ha        1 LC0      0.231500
     33 H6         -4.7790    0.3560    0.6540 ha        1 LC0      0.164000
     34 H7         -0.6080   -0.3170    3.7340 ha        1 LC0      0.231500
     35 H8         -3.2360   -5.5560    2.0660 ha        1 LC0      0.155000
     36 H10        -2.9110   -1.6810    4.0300 h4        1 LC0      0.178000
     37 H13        -5.0650    3.0880   -2.2110 ha        1 LC0      0.135000
     38 H13A       -1.1530   -3.1690    3.6750 ho        1 LC0      0.237000
     39 H1         -8.3820    2.7010    0.6450 ha        1 LC0      0.001500
     40 H1A        -8.9310    3.0150    0.4040 ha        1 LC0      0.001500
     41 H1B       -11.1080    3.1080   -0.2460 ha        1 LC0      0.027000
     42 H2          0.7370    1.4020    0.1340 h1        1 LC0      0.094333
     43 H2A         0.2210    2.7700    1.2460 h1        1 LC0      0.094333
     44 H2B         1.4220    1.5050    1.8430 h1        1 LC0      0.094333
     45 H3         -3.0800   -7.3950    0.6130 ha        1 LC0      0.001500
     46 H3A        -3.5870   -7.7160    0.9280 ha        1 LC0      0.001500
     47 H3B        -4.6930   -5.8790    0.2910 ho        1 LC0      0.182000
     48 H9        -13.4680   -1.6180   -0.3710 h4        1 LC0      0.210000
     49 H11       -11.3570   -5.2440    0.6240 hn        1 LC0      0.256000
     50 H12        -9.9840    0.9560    0.2870 h4        1 LC0      0.192000
     51 H14        -7.6310   -3.4880    3.3320 h1        1 LC0      0.110500
     52 H14A       -7.3030   -1.7630    2.7760 h1        1 LC0      0.110500
     53 HN24       -9.2650   -6.4720    1.2520 hn        1 LC0      0.250000
     54 HN2A       -7.8800   -5.5560    1.6740 hn        1 LC0      0.250000
     55 C13        -4.6920    2.0540   -2.1700 c2        1 LC0     -0.165000
     56 C14        -7.0600   -2.8450    2.6100 c3        1 LC0      0.022000
     57 N24        -8.8820   -5.5960    1.5130 n3        1 LC0     -0.356000
@<TRIPOS>BOND
     1    1    3 1   
     2    1    7 1   
     3    1   33 1   
     4    2    4 1   
     5    2   32 1   
     6    3   18 1   
     7    4   34 1   
     8    5    8 1   
     9    5   14 1   
    10    5   19 1   
    11    6    9 1   
    12    6   22 1   
    13    6   36 1   
    14    7   55 1   
    15    8   22 1   
    16    8   56 1   
    17    9   19 1   
    18    9   29 1   
    19   10   16 1   
    20   10   20 1   
    21   10   25 1   
    22   11   21 1   
    23   11   23 1   
    24   11   57 1   
    25   12   26 1   
    26   12   41 1   
    27   13   27 1   
    28   13   42 1   
    29   13   43 1   
    30   13   44 1   
    31   14   28 1   
    32   15   20 1   
    33   15   24 1   
    34   15   48 1   
    35   16   23 1   
    36   17   20 1   
    37   17   26 1   
    38   17   50 1   
    39   18   27 1   
    40   19   35 1   
    41   21   25 1   
    42   21   30 1   
    43   23   49 1   
    44   24   26 1   
    45   28   47 1   
    46   29   38 1   
    47   30   56 1   
    48   31   55 1   
    49   37   55 1   
    50   39   40 1   
    51   45   46 1   
    52   51   56 1   
    53   52   56 1   
    54   53   57 1   
    55   54   57 1   
@<TRIPOS>SUBSTRUCTURE
     1 LC0         1 TEMP              0 ****  ****    0 ROOT
