@<TRIPOS>MOLECULE
LC0
   57    60     1     0     0
SMALL
bcc


@<TRIPOS>ATOM
      1 C4         -6.3660    0.0890   -0.6730 ca        1 LC0     -0.078000
      2 C5         -6.9060   -1.1610    1.3280 ca        1 LC0     -0.078000
      3 C6         -7.7160    0.3160   -0.9070 ca        1 LC0     -0.182000
      4 C7         -8.2650   -0.9490    1.1060 ca        1 LC0     -0.182000
      5 C8         -0.2080    0.7930   -0.5300 ca        1 LC0     -0.272300
      6 C10        -1.7030   -1.0540    0.8560 ca        1 LC0      0.343200
      7 C15        -5.9520   -0.6510    0.4420 ca        1 LC0     -0.131300
      8 C17         0.3690   -0.2570    0.2200 ca        1 LC0      0.388600
      9 C20        -2.3790   -0.0470    0.1420 ca        1 LC0     -0.005200
     10 C21         5.9230    0.3250    0.2770 ca        1 LC0      0.389500
     11 C22         4.2200    2.4330    0.8000 ca        1 LC0      0.507900
     12 C1          7.9850   -4.1010   -0.8210 c3        1 LC0      0.039600
     13 C2        -10.9690   -0.4400    0.5560 c3        1 LC0      0.113700
     14 C3         -1.5080    2.8420   -1.9380 c3        1 LC0      0.107700
     15 C9          8.3100   -0.6470   -0.0160 cc        1 LC0      0.316200
     16 C11         6.3830    1.6230    0.6260 ca        1 LC0      0.293900
     17 C12         6.5850   -2.0780   -0.3070 cd        1 LC0     -0.095300
     18 C16        -8.6680   -0.2100   -0.0130 ca        1 LC0      0.130100
     19 C18        -1.5990    0.9040   -0.5720 ca        1 LC0      0.130100
     20 C19         6.8620   -0.7320    0.0030 cc        1 LC0     -0.322800
     21 C23         3.7530    1.0890    0.4640 ca        1 LC0      0.483300
     22 N25        -0.3620   -1.1640    0.9040 nb        1 LC0     -0.652000
     23 N26         5.5630    2.6550    0.8910 nb        1 LC0     -0.674000
     24 N27         8.8460   -1.8540   -0.3150 nd        1 LC0     -0.509800
     25 N28         4.5830    0.0640    0.2070 nb        1 LC0     -0.688000
     26 N29         7.8180   -2.7080   -0.4880 na        1 LC0      0.084400
     27 O30        -9.9820    0.0650   -0.3370 os        1 LC0     -0.325900
     28 O31        -2.2980    1.8680   -1.2600 os        1 LC0     -0.300900
     29 O32        -3.7430    0.1170    0.0830 os        1 LC0     -0.297900
     30 O33         2.3790    0.9420    0.4300 os        1 LC0     -0.458100
     31 H4         -5.6100    0.5020   -1.3600 ha        1 LC0      0.144000
     32 H5         -6.5860   -1.7350    2.2100 ha        1 LC0      0.144000
     33 H6         -8.0540    0.8970   -1.7760 ha        1 LC0      0.144500
     34 H7         -9.0010   -1.3590    1.8100 ha        1 LC0      0.144500
     35 H8          0.4470    1.5030   -1.0530 ha        1 LC0      0.164000
     36 H10        -2.2540   -1.8200    1.4280 h4        1 LC0      0.029100
     37 H13        -4.2920   -0.9520    1.7970 h1        1 LC0      0.047200
     38 H13A       -4.2210   -1.9200    0.2360 h1        1 LC0      0.047200
     39 H1          8.5260   -4.2020   -1.8000 h1        1 LC0      0.059700
     40 H1A         8.5790   -4.6200   -0.0220 h1        1 LC0      0.059700
     41 H1B         6.9720   -4.5740   -0.9020 h1        1 LC0      0.059700
     42 H2        -11.9320   -0.0940    0.1010 h1        1 LC0      0.044367
     43 H2A       -10.9300   -1.5550    0.5960 h1        1 LC0      0.044367
     44 H2B       -10.8370   -0.0060    1.5770 h1        1 LC0      0.044367
     45 H3         -0.8830    2.3600   -2.7280 h1        1 LC0      0.049367
     46 H3A        -2.2750    3.5180   -2.3970 h1        1 LC0      0.049367
     47 H3B        -0.8660    3.4030   -1.2170 h1        1 LC0      0.049367
     48 H9          8.9330    0.2280    0.1720 h4        1 LC0      0.045100
     49 H11         7.4620    1.8410    0.7040 h4        1 LC0      0.034100
     50 H12         5.6320   -2.5990   -0.4050 h4        1 LC0      0.189000
     51 H14         2.2390   -1.0590    1.0500 h1        1 LC0      0.072700
     52 H14A        2.2170   -0.7770   -0.7680 h1        1 LC0      0.072700
     53 HN24        2.4080    3.1900    1.2390 hn        1 LC0      0.410800
     54 HN2A        3.6570    4.2960    1.4030 hn        1 LC0      0.410800
     55 C13        -4.5100   -0.9350    0.6950 c3        1 LC0      0.177700
     56 C14         1.8720   -0.3910    0.2280 c3        1 LC0      0.096100
     57 N24         3.3110    3.4860    0.9360 nh        1 LC0     -0.906500
@<TRIPOS>BOND
     1    1    3 ar  
     2    1    7 ar  
     3    1   31 1   
     4    2    4 ar  
     5    2    7 ar  
     6    2   32 1   
     7    3   18 ar  
     8    3   33 1   
     9    4   18 ar  
    10    4   34 1   
    11    5    8 ar  
    12    5   19 ar  
    13    5   35 1   
    14    6    9 ar  
    15    6   22 ar  
    16    6   36 1   
    17    7   55 1   
    18    8   22 ar  
    19    8   56 1   
    20    9   19 ar  
    21    9   29 1   
    22   10   16 ar  
    23   10   20 1   
    24   10   25 ar  
    25   11   21 ar  
    26   11   23 ar  
    27   11   57 1   
    28   12   26 1   
    29   12   39 1   
    30   12   40 1   
    31   12   41 1   
    32   13   27 1   
    33   13   42 1   
    34   13   43 1   
    35   13   44 1   
    36   14   28 1   
    37   14   45 1   
    38   14   46 1   
    39   14   47 1   
    40   15   20 1   
    41   15   24 2   
    42   15   48 1   
    43   16   23 ar  
    44   16   49 1   
    45   17   20 2   
    46   17   26 1   
    47   17   50 1   
    48   18   27 1   
    49   19   28 1   
    50   21   25 ar  
    51   21   30 1   
    52   24   26 1   
    53   29   55 1   
    54   30   56 1   
    55   37   55 1   
    56   38   55 1   
    57   51   56 1   
    58   52   56 1   
    59   53   57 1   
    60   54   57 1   
@<TRIPOS>SUBSTRUCTURE
     1 LC0         1 TEMP              0 ****  ****    0 ROOT
