@<TRIPOS>MOLECULE
LC0
   58    60     1     0     0
SMALL
bcc


@<TRIPOS>ATOM
      1 C4         -0.1810    0.5920   -0.5930 c2        1 LC0     -0.190000
      2 C5         -0.1760   -0.7850    1.4200 c2        1 LC0     -0.131000
      3 C6          1.1570    0.7960   -0.5140 c2        1 LC0     -0.039000
      4 C7          1.2850   -0.6230    1.6050 c3        1 LC0     -0.071000
      5 C8         -6.1850   -1.7620    2.6790 c2        1 LC0     -0.074000
      6 C10        -5.1020   -0.8520    0.3030 c2        1 LC0     -0.145000
      7 C15        -0.8540   -0.2170    0.4000 c2        1 LC0     -0.085000
      8 C17        -6.9620   -1.4950    1.5250 c2        1 LC0     -0.131000
      9 C20        -4.2440   -1.0860    1.4110 c2        1 LC0      0.096000
     10 C21       -12.1440   -3.5220    0.0610 c2        1 LC0     -0.132000
     11 C22        -9.6380   -4.9960    0.0730 c3        1 LC0      0.087000
     12 C1        -11.1500   -1.6860    1.4170 c1        1 LC0      0.060000
     13 C2          4.0240   -0.0010    1.4730 c2        1 LC0     -0.262000
     14 C9        -12.5630    1.0530    2.7820 c1        1 LC0      0.278000
     15 C11       -11.9560   -4.7200   -0.7730 c1        1 LC0      0.016000
     16 C12       -13.6140   -1.6910    0.9300 c3        1 LC0     -0.074000
     17 C16         1.9020    0.2100    0.5560 c2        1 LC0     -0.225000
     18 C18        -4.8060   -1.5550    2.6130 c2        1 LC0     -0.138000
     19 C19       -13.3600   -2.9380    0.1560 c2        1 LC0     -0.044000
     20 C23        -9.8050   -3.5180    0.6260 c2        1 LC0      0.334000
     21 N25        -6.4200   -1.0580    0.3580 n2        1 LC0     -0.086000
     22 N26       -10.8010   -5.3380   -0.7760 n3        1 LC0     -0.240000
     23 N27       -12.4940    0.0280    2.1820 n2        1 LC0     -0.271000
     24 N28       -11.0120   -2.9120    0.7200 n3        1 LC0     -0.206000
     25 N29       -12.3760   -1.1160    1.5190 n3        1 LC0     -0.059000
     26 O30         3.2210    0.4720    0.5470 os        1 LC0      0.096000
     27 O31        -5.9020   -2.5510    4.9630 oh        1 LC0     -0.304000
     28 O32        -2.8920   -0.9020    1.4150 os        1 LC0     -0.187000
     29 O33        -8.6350   -3.0300    0.9730 os        1 LC0     -0.123000
     30 H4         -0.7780    1.0320   -1.4030 ha        1 LC0      0.131000
     31 H5         -0.6850   -1.4000    2.1780 ha        1 LC0      0.137000
     32 H6          1.7000    1.4060   -1.2520 ha        1 LC0      0.143000
     33 H7          1.7760   -1.6420    1.6180 hc        1 LC0      0.091500
     34 H8         -4.1540   -1.7690    3.4750 ha        1 LC0      0.177000
     35 H10        -4.7130   -0.4880   -0.6650 h4        1 LC0      0.181000
     36 H13        -2.5190   -1.1140   -0.6360 h1        1 LC0      0.095000
     37 H13A       -2.8030    0.6050   -0.0390 h1        1 LC0      0.095000
     38 H1        -14.3480   -1.9150    1.7620 h1        1 LC0      0.153000
     39 H1A        -9.7450   -0.9880    4.5610 ha        1 LC0      0.001500
     40 H1B        -9.6480   -0.6520    5.1410 ha        1 LC0      0.001500
     41 H2          3.6900   -0.6260    2.3000 h4        1 LC0      0.162500
     42 H2A         5.0650    0.3060    1.3170 h4        1 LC0      0.162500
     43 H2B         1.4860   -0.1660    2.6200 hc        1 LC0      0.091500
     44 H3         -7.3330   -3.2460    3.7380 h1        1 LC0      0.100500
     45 H3A        -5.5250   -1.7150    5.2670 ho        1 LC0      0.210000
     46 H3B        -7.5830   -1.5120    4.2980 h1        1 LC0      0.100500
     47 H9        -14.2340   -3.3770   -0.3600 ha        1 LC0      0.207000
     48 H11       -10.6820   -6.1390   -1.3660 hn        1 LC0      0.285000
     49 H12       -14.0900   -0.9260    0.2440 h1        1 LC0      0.153000
     50 H14        -8.8900   -1.6940    2.5700 h1        1 LC0      0.141500
     51 H14A       -8.9840   -0.9440    0.8830 h1        1 LC0      0.141500
     52 HN24       -8.6510   -6.4790    1.0850 hn        1 LC0      0.213000
     53 HN2A       -8.7070   -4.9590   -0.5830 h2        1 LC0      0.169000
     54 C13        -2.3220   -0.3830    0.1940 c3        1 LC0      0.018000
     55 H243      -10.1970   -6.2250    1.6500 hn        1 LC0      0.213000
     56 C14        -8.4500   -1.6820    1.5390 c3        1 LC0      0.058000
     57 C3         -6.8230   -2.2610    3.9370 c3        1 LC0      0.007000
     58 N24        -9.3930   -5.8260    1.2160 n3        1 LC0     -0.392000
@<TRIPOS>BOND
     1    1    3 1   
     2    1    7 1   
     3    1   30 1   
     4    2    4 1   
     5    2    7 1   
     6    2   31 1   
     7    3   17 1   
     8    3   32 1   
     9    4   17 1   
    10    4   33 1   
    11    4   43 1   
    12    5    8 1   
    13    5   18 1   
    14    5   57 1   
    15    6    9 1   
    16    6   21 1   
    17    6   35 1   
    18    7   54 1   
    19    8   21 1   
    20    8   56 1   
    21    9   18 1   
    22    9   28 1   
    23   10   15 1   
    24   10   19 1   
    25   10   24 1   
    26   11   20 1   
    27   11   22 1   
    28   11   53 1   
    29   11   58 1   
    30   12   24 1   
    31   12   25 1   
    32   13   26 1   
    33   13   41 1   
    34   13   42 1   
    35   14   23 1   
    36   15   22 1   
    37   16   19 1   
    38   16   25 1   
    39   16   38 1   
    40   16   49 1   
    41   17   26 1   
    42   18   34 1   
    43   19   47 1   
    44   20   24 1   
    45   20   29 1   
    46   22   48 1   
    47   23   25 1   
    48   27   45 1   
    49   27   57 1   
    50   28   54 1   
    51   29   56 1   
    52   36   54 1   
    53   37   54 1   
    54   39   40 1   
    55   44   57 1   
    56   46   57 1   
    57   50   56 1   
    58   51   56 1   
    59   52   58 1   
    60   55   58 1   
@<TRIPOS>SUBSTRUCTURE
     1 LC0         1 TEMP              0 ****  ****    0 ROOT
