@<TRIPOS>MOLECULE
LC1
   26    28     1     0     0
SMALL
bcc


@<TRIPOS>ATOM
      1 CAH        -3.9670   -1.2480   -0.0450 cc        1 LC1     -0.199400
      2 SAI        -5.6240   -1.0640   -0.0160 ss        1 LC1     -0.047300
      3 CAR        -5.4610    0.6370    0.0710 cc        1 LC1      0.367300
      4 NAQ        -4.2140    1.0870    0.0790 nd        1 LC1     -0.628000
      5 CAP        -3.3400   -0.0040    0.0120 cd        1 LC1      0.302000
      6 CAO        -1.8920    0.1760    0.0030 cd        1 LC1      0.386800
      7 NAN        -1.2960    1.4640    0.0350 na        1 LC1     -0.258300
      8 CAM         0.0770    1.2630    0.0120 ca        1 LC1     -0.016200
      9 CAL         1.1720    2.1410    0.0190 ca        1 LC1     -0.158000
     10 CAK         2.4350    1.5790   -0.0100 ca        1 LC1     -0.016000
     11 CAD         2.6510    0.1830   -0.0460 ca        1 LC1     -0.413500
     12 SAC         4.2310   -0.4060   -0.0960 sy        1 LC1      1.530200
     13 OAA         4.2240   -1.6560   -0.7530 o         1 LC1     -0.660800
     14 OAJ         5.0710    0.6020   -0.6170 o         1 LC1     -0.660800
     15 NAB         4.5890   -0.6330    1.4500 n3        1 LC1     -1.026700
     16 CAE         1.5710   -0.6960   -0.0660 ca        1 LC1      0.057000
     17 CAF         0.2730   -0.1800   -0.0330 ca        1 LC1      0.032400
     18 NAG        -0.9800   -0.8230   -0.0360 nc        1 LC1     -0.547100
     19 HAH        -3.4460   -2.2050   -0.1010 h4        1 LC1      0.207000
     20 HAR        -6.3140    1.3210    0.1160 h5        1 LC1      0.061100
     21 HNAN       -1.7760    2.3260    0.0580 hn        1 LC1      0.325700
     22 HAL         1.0300    3.2290    0.0410 ha        1 LC1      0.145000
     23 HAK         3.3190    2.2440   -0.0270 ha        1 LC1      0.155000
     24 HNAB        5.0060    0.0560    2.0230 hn        1 LC1      0.446300
     25 HNAA        4.4320   -1.4840    1.9290 hn        1 LC1      0.446300
     26 HAE         1.7360   -1.7860   -0.1270 ha        1 LC1      0.167000
@<TRIPOS>BOND
     1    1    2 1   
     2    1    5 2   
     3    1   19 1   
     4    2    3 1   
     5    3    4 2   
     6    3   20 1   
     7    4    5 1   
     8    5    6 1   
     9    6    7 1   
    10    6   18 2   
    11    7    8 1   
    12    7   21 1   
    13    8    9 ar  
    14    8   17 ar  
    15    9   10 ar  
    16    9   22 1   
    17   10   11 ar  
    18   10   23 1   
    19   11   12 1   
    20   11   16 ar  
    21   12   13 2   
    22   12   14 2   
    23   12   15 1   
    24   15   24 1   
    25   15   25 1   
    26   16   17 ar  
    27   16   26 1   
    28   17   18 1   
@<TRIPOS>SUBSTRUCTURE
     1 LC1         1 TEMP              0 ****  ****    0 ROOT
