@<TRIPOS>MOLECULE
LC1
   26    20     1     0     0
SMALL
bcc


@<TRIPOS>ATOM
      1 CAH         4.3000    0.9770   -0.4700 c1        1 LC1     -0.404000
      2 SAI         5.6080    0.6260   -1.1700 ss        1 LC1      0.537000
      3 CAR         5.2600   -0.2450   -2.3960 c1        1 LC1     -0.347000
      4 NAQ         3.8410   -0.4070   -2.4310 n2        1 LC1     -0.102000
      5 CAP         3.2230    0.3660   -1.2120 c2        1 LC1     -0.056000
      6 CAO         1.8750    0.4470   -0.9010 c2        1 LC1      0.090000
      7 NAN         0.8210    1.1780   -1.3530 n2        1 LC1     -0.215000
      8 CAM        -0.2950    0.7400   -0.7200 c1        1 LC1      0.029000
      9 CAL        -1.6430    1.1370   -0.8010 c1        1 LC1     -0.087000
     10 CAK        -2.6000    0.5070   -0.0220 c1        1 LC1     -0.087000
     11 CAD        -2.2300   -0.5150    0.8380 c1        1 LC1     -0.858000
     12 SAC        -3.5140   -1.3980    1.6840 s4        1 LC1      2.085800
     13 OAA        -3.0740   -2.7070    2.0780 o         1 LC1     -0.548400
     14 OAJ        -4.5960   -1.7220    0.7970 o         1 LC1     -0.548400
     15 NAB        -4.0430   -0.5320    2.9760 n2        1 LC1     -0.953000
     16 CAE        -0.9040   -0.9070    0.9180 c1        1 LC1      0.057000
     17 CAF         0.0690   -0.2670    0.1260 c1        1 LC1     -0.107000
     18 NAG         1.4080   -0.4450    0.0120 n1        1 LC1     -0.120000
     19 HAH         4.2070    1.5190    0.3370 DU        1 LC1      0.227000
     20 HAR         5.8970   -0.6190   -3.0340 DU        1 LC1      0.227000
     21 HNAN        0.8590    1.8490   -1.9690 DU        1 LC1      0.227000
     22 HAL        -1.9040    1.8570   -1.4070 ha        1 LC1      0.150000
     23 HAK        -3.5360    0.7780   -0.0830 ha        1 LC1      0.150000
     24 HNAB       -4.8570   -0.1180    2.9470 hn        1 LC1      0.241500
     25 HNAA       -3.5280   -0.4750    3.7290 hn        1 LC1      0.241500
     26 HAE        -0.6430   -1.6270    1.5240 ha        1 LC1      0.167000
@<TRIPOS>BOND
     1    1    2 1   
     2    1    5 1   
     3    2    3 1   
     4    3    4 1   
     5    4    5 1   
     6    5    6 1   
     7    6    7 1   
     8    6   18 1   
     9    7    8 1   
    10    8   17 1   
    11    9   10 1   
    12    9   22 1   
    13   10   23 1   
    14   11   12 1   
    15   11   16 1   
    16   12   13 1   
    17   12   14 1   
    18   15   24 1   
    19   15   25 1   
    20   16   26 1   
@<TRIPOS>SUBSTRUCTURE
     1 LC1         1 TEMP              0 ****  ****    0 ROOT
