@<TRIPOS>MOLECULE
LC1
   27    29     1     0     0
SMALL
bcc


@<TRIPOS>ATOM
      1 CAH         0.0390   -0.0530   -0.0540 cc        1 LC1     -0.195400
      2 SAI         1.6960   -0.0130   -0.0250 ss        1 LC1      0.042700
      3 CAR         1.7000    0.0900    1.6810 cc        1 LC1      0.365300
      4 NAQ         0.5010    0.0970    2.2500 nd        1 LC1     -0.624000
      5 CAP        -0.4700    0.0140    1.2470 cd        1 LC1      0.255000
      6 CAO        -1.8890   -0.0030    1.5690 cd        1 LC1      0.445800
      7 NAN        -2.3420    0.0200    2.9290 na        1 LC1     -0.238300
      8 CAM        -3.7150   -0.0100    2.8910 ca        1 LC1      0.041800
      9 CAL        -4.7120   -0.0120    3.8850 ca        1 LC1     -0.143000
     10 CAK        -6.0240   -0.0530    3.4750 ca        1 LC1     -0.002000
     11 CAD        -6.4150   -0.0930    2.1030 ca        1 LC1     -0.608500
     12 SAC        -7.9430   -0.2170    1.7200 sy        1 LC1      1.507200
     13 OAA        -8.2150   -0.5970    0.4230 o         1 LC1     -0.575300
     14 OAJ        -8.8060   -0.5180    2.7520 o         1 LC1     -0.575300
     15 NAB        -8.3210    1.6890    1.5580 n4        1 LC1     -0.782500
     16 CAE        -5.4130   -0.0990    1.1030 ca        1 LC1      0.082000
     17 CAF        -4.0820   -0.0500    1.4680 ca        1 LC1      0.035400
     18 NAG        -2.9070   -0.0410    0.6840 nc        1 LC1     -0.538100
     19 HAH        -0.5720   -0.1230   -0.9560 h4        1 LC1      0.209000
     20 HAR         2.6150    0.1470    2.2820 h5        1 LC1      0.076100
     21 HNAN       -1.7560    0.0400    3.7300 hn        1 LC1      0.349700
     22 HAL        -4.4470    0.0070    4.9540 ha        1 LC1      0.176000
     23 HAK        -6.8210   -0.0790    4.2430 ha        1 LC1      0.166000
     24 HNAB       -9.0530    1.9580    2.2110 hn        1 LC1      0.449800
     25 HNAA       -7.5030    2.2570    1.7470 hn        1 LC1      0.449800
     26 HAE        -5.6960   -0.1620    0.0340 ha        1 LC1      0.181000
     27 HAB3       -8.6460    1.9030    0.6180 hn        1 LC1      0.449800
@<TRIPOS>BOND
     1    1    2 1   
     2    1    5 2   
     3    1   19 1   
     4    2    3 1   
     5    3    4 2   
     6    3   20 1   
     7    4    5 1   
     8    5    6 1   
     9    6    7 1   
    10    6   18 2   
    11    7    8 1   
    12    7   21 1   
    13    8    9 ar  
    14    8   17 ar  
    15    9   10 ar  
    16    9   22 1   
    17   10   11 ar  
    18   10   23 1   
    19   11   12 1   
    20   11   16 ar  
    21   12   13 2   
    22   12   14 2   
    23   12   15 1   
    24   15   24 1   
    25   15   25 1   
    26   15   27 1   
    27   16   17 ar  
    28   16   26 1   
    29   17   18 1   
@<TRIPOS>SUBSTRUCTURE
     1 LC1         1 TEMP              0 ****  ****    0 ROOT
