@<TRIPOS>MOLECULE
LC1
   27    29     1     0     0
SMALL
bcc


@<TRIPOS>ATOM
      1 CAH         0.0290   -0.0210   -0.0780 cc        1 LC1     -0.195400
      2 SAI         1.6870    0.0150   -0.0570 ss        1 LC1      0.042700
      3 CAR         1.6980    0.0850    1.6510 cc        1 LC1      0.365300
      4 NAQ         0.5020    0.0820    2.2260 nd        1 LC1     -0.624000
      5 CAP        -0.4740    0.0200    1.2260 cd        1 LC1      0.255000
      6 CAO        -1.8910   -0.0000    1.5550 cd        1 LC1      0.445800
      7 NAN        -2.3370   -0.0040    2.9170 na        1 LC1     -0.238300
      8 CAM        -3.7100   -0.0300    2.8840 ca        1 LC1      0.041800
      9 CAL        -4.7030   -0.0510    3.8840 ca        1 LC1     -0.143000
     10 CAK        -6.0160   -0.0810    3.4790 ca        1 LC1     -0.002000
     11 CAD        -6.4140   -0.0930    2.1080 ca        1 LC1     -0.608500
     12 SAC        -7.9440   -0.2080    1.7300 sy        1 LC1      1.507200
     13 OAA        -8.2230   -0.5620    0.4270 o         1 LC1     -0.575300
     14 OAJ        -8.8030   -0.5270    2.7600 o         1 LC1     -0.575300
     15 NAB        -8.3200    1.7020    1.6070 nz        1 LC1     -0.782500
     16 CAE        -5.4170   -0.0820    1.1030 ca        1 LC1      0.082000
     17 CAF        -4.0840   -0.0420    1.4630 ca        1 LC1      0.035400
     18 NAG        -2.9130   -0.0190    0.6740 nc        1 LC1     -0.538100
     19 HAH        -0.5860   -0.0730   -0.9790 h4        1 LC1      0.209000
     20 HAR         2.6160    0.1280    2.2490 h5        1 LC1      0.076100
     21 HNAN       -1.7470   -0.0000    3.7150 hn        1 LC1      0.349700
     22 HAL        -4.4330   -0.0520    4.9510 ha        1 LC1      0.176000
     23 HAK        -6.8100   -0.1200    4.2500 ha        1 LC1      0.166000
     24 HNAB       -9.0480    1.9590    2.2680 hn        1 LC1      0.449800
     25 HNAA       -7.5010    2.2650    1.8040 hn        1 LC1      0.449800
     26 HAE        -5.7060   -0.1230    0.0350 ha        1 LC1      0.181000
     27 HAB3       -8.6490    1.9350    0.6730 hn        1 LC1      0.449800
@<TRIPOS>BOND
     1    1    2 1   
     2    1    5 2   
     3    1   19 1   
     4    2    3 1   
     5    3    4 2   
     6    3   20 1   
     7    4    5 1   
     8    5    6 1   
     9    6    7 1   
    10    6   18 2   
    11    7    8 1   
    12    7   21 1   
    13    8    9 ar  
    14    8   17 ar  
    15    9   10 ar  
    16    9   22 1   
    17   10   11 ar  
    18   10   23 1   
    19   11   12 1   
    20   11   16 ar  
    21   12   13 2   
    22   12   14 2   
    23   12   15 1   
    24   15   24 1   
    25   15   25 1   
    26   15   27 1   
    27   16   17 ar  
    28   16   26 1   
    29   17   18 1   
@<TRIPOS>SUBSTRUCTURE
     1 LC1         1 TEMP              0 ****  ****    0 ROOT
