@<TRIPOS>MOLECULE
LC2
   67    60     1     0     0
SMALL
bcc


@<TRIPOS>ATOM
      1 C1         -0.0630    1.2920   -0.1410 c2        1 LC2      0.314000
      2 N1         -2.6400   -0.1510    5.6160 nt        1 LC2     -0.390000
      3 O1          0.5370   -0.0010    0.1250 os        1 LC2     -0.175000
      4 C2          1.2460   -4.5550   -3.3190 c2        1 LC2     -0.327000
      5 O2          0.5310    1.8170   -1.0580 o         1 LC2     -0.156000
      6 C3          1.2510   -3.3730   -4.0590 c1        1 LC2     -0.119000
      7 O3         -0.3840   -7.2130   -4.2840 oh        1 LC2     -0.365000
      8 C4          4.6080   -6.1690   -0.6700 c1        1 LC2     -0.226500
      9 O4          2.5940   -4.2650    0.8270 oh        1 LC2     -0.453000
     10 C5          5.5530   -6.5660   -0.0520 c1        1 LC2     -0.226500
     11 C6          1.1630   -2.4780    2.6580 c2        1 LC2      0.057000
     12 O6         -1.0950   -1.5780    4.7350 o         1 LC2     -0.459000
     13 C7          1.1410   -1.7650    1.5070 c2        1 LC2     -0.283000
     14 O7         -2.1350   -1.7310    8.0010 o         1 LC2     -0.239000
     15 C8          0.5700   -0.4680    1.3640 c2        1 LC2      0.363000
     16 C9          0.0810    0.3790    2.4870 c3        1 LC2     -0.252000
     17 C10        -1.1310    1.2080    2.1120 c2        1 LC2      0.246000
     18 C11         1.2000    1.2940    2.9750 c3        1 LC2     -0.208000
     19 C12        -1.2760    1.6730    0.6650 c3        1 LC2     -0.046000
     20 C13         1.2510   -2.3600   -4.6970 c1        1 LC2     -0.173000
     21 C15        -1.4000    3.1990    0.6730 c3        1 LC2     -0.213000
     22 C16        -1.8910   -1.2830    5.6620 c2        1 LC2      0.272000
     23 C17        -2.0520   -2.2060    6.8710 c2        1 LC2      0.224000
     24 C18        -2.0830   -3.6550    6.5440 c3        1 LC2     -0.261000
     25 C23        -2.5000    1.0320    0.0820 c2        1 LC2     -0.237000
     26 C26        -3.0090    1.1870   -1.1490 c2        1 LC2     -0.036000
     27 C27        -2.4750    1.9680   -2.2430 c2        1 LC2     -0.204000
     28 C28        -2.3680   -6.7620   -1.6840 c1        1 LC2     -0.226500
     29 C29        -3.1720   -6.6190   -0.8100 c1        1 LC2     -0.226500
     30 C30         0.1920   -8.5010   -4.3920 c3        1 LC2     -0.077000
     31 C31         1.8150   -4.8130   -2.1640 c1        1 LC2      0.145000
     32 HN1        -2.5580    0.4810    4.8540 hn        1 LC2      0.247000
     33 H2          0.6760   -5.4130   -3.7800 ha        1 LC2      0.246000
     34 HO3        -0.9860   -7.1040   -5.0300 ho        1 LC2      0.212000
     35 H4          3.7750   -5.8260   -1.2370 ha        1 LC2      0.225500
     36 HO4         2.2210   -4.6900    0.0420 ho        1 LC2      0.223000
     37 H5          6.3920   -6.9220    0.4930 ha        1 LC2      0.225500
     38 H6          3.4820   -4.6350    0.8840 ho        1 LC2      0.223000
     39 H7          0.7250   -2.1420    3.6140 ha        1 LC2      0.180000
     40 H7A         1.6340   -3.4830    2.6590 ha        1 LC2      0.180000
     41 H8          1.5840   -2.2120    0.5880 ha        1 LC2      0.213000
     42 H9         -0.2300   -0.2900    3.3570 hc        1 LC2      0.219000
     43 H11         1.5380    1.9800    2.1600 hc        1 LC2      0.114333
     44 H11A        2.0700    0.6880    3.3260 hc        1 LC2      0.114333
     45 H11B        0.8230    1.9060    3.8320 hc        1 LC2      0.114333
     46 H13         0.9700   -0.2640   -2.2090 ha        1 LC2      0.000000
     47 H13A        1.0620   -0.6670   -2.7470 ha        1 LC2      0.000000
     48 H13B        1.2560   -1.4670   -5.2700 ha        1 LC2      0.234000
     49 H14        -2.7490    2.7970   -4.1890 ha        1 LC2      0.130500
     50 H14A       -3.8920   -6.5020   -0.0400 ha        1 LC2      0.225500
     51 H14B       -4.1840    1.8210   -3.5300 ha        1 LC2      0.130500
     52 H15        -1.5570    3.5780   -0.3660 hc        1 LC2      0.116667
     53 H15A       -0.4770    3.6630    1.0960 hc        1 LC2      0.116667
     54 H15B       -2.2790    3.4870    1.3020 hc        1 LC2      0.116667
     55 H18        -1.2730   -3.8970    5.8120 hc        1 LC2      0.122333
     56 H18A       -3.0700   -3.9100    6.0810 hc        1 LC2      0.122333
     57 H18B       -1.9490   -4.2690    7.4680 hc        1 LC2      0.122333
     58 H23        -3.0520    0.4040    0.8050 ha        1 LC2      0.149000
     59 H26        -3.9570    0.6550   -1.3750 ha        1 LC2      0.148000
     60 H28        -1.4530    2.3700   -2.1270 ha        1 LC2      0.133000
     61 H29        -1.6570   -6.8970   -2.4640 ha        1 LC2      0.225500
     62 H30         0.7780   -8.5920   -5.3400 h1        1 LC2      0.079333
     63 H31        -0.5990   -9.2900   -4.3530 h1        1 LC2      0.079333
     64 H31A        0.8710   -8.5930   -3.5070 h1        1 LC2      0.079333
     65 O5         -1.9680    1.4940    2.9650 o         1 LC2     -0.228000
     66 C14        -3.1660    2.2000   -3.3640 c2        1 LC2     -0.130000
     67 H12        -3.2030    0.1080    6.3890 hn        1 LC2      0.247000
@<TRIPOS>BOND
     1    1    3 1   
     2    1    5 1   
     3    1   19 1   
     4    2   22 1   
     5    2   32 1   
     6    2   67 1   
     7    3   15 1   
     8    4    6 1   
     9    4   31 1   
    10    4   33 1   
    11    6   20 1   
    12    7   30 1   
    13    7   34 1   
    14    8   10 1   
    15    8   35 1   
    16    9   36 1   
    17    9   38 1   
    18   10   37 1   
    19   11   13 1   
    20   11   39 1   
    21   11   40 1   
    22   12   22 1   
    23   13   15 1   
    24   13   41 1   
    25   14   23 1   
    26   15   16 1   
    27   16   17 1   
    28   16   18 1   
    29   16   42 1   
    30   17   19 1   
    31   17   65 1   
    32   18   43 1   
    33   18   44 1   
    34   18   45 1   
    35   19   21 1   
    36   19   25 1   
    37   20   48 1   
    38   21   52 1   
    39   21   53 1   
    40   21   54 1   
    41   22   23 1   
    42   23   24 1   
    43   24   55 1   
    44   24   56 1   
    45   24   57 1   
    46   25   26 1   
    47   25   58 1   
    48   26   27 1   
    49   26   59 1   
    50   27   60 1   
    51   27   66 1   
    52   28   29 1   
    53   28   61 1   
    54   29   50 1   
    55   30   62 1   
    56   30   63 1   
    57   30   64 1   
    58   46   47 1   
    59   49   66 1   
    60   51   66 1   
@<TRIPOS>SUBSTRUCTURE
     1 LC2         1 TEMP              0 ****  ****    0 ROOT
