@<TRIPOS>MOLECULE
LC2
   66    62     1     0     0
SMALL
bcc


@<TRIPOS>ATOM
      1 C1         -0.6750    1.5080    0.0490 c1        1 LC2      0.319000
      2 N1         -3.0190   -0.3180    1.9260 n         1 LC2     -0.353000
      3 O1          0.7520    1.4330   -0.0050 o         1 LC2     -0.266000
      4 C2          2.5520   -0.5570   -3.5830 c1        1 LC2     -0.151000
      5 O2         -1.3110    1.7460   -0.9640 o         1 LC2     -0.297000
      6 C3          3.7400    0.3640   -3.2020 c1        1 LC2     -0.105000
      7 O3          0.1760   -1.0760   -2.2940 oh        1 LC2     -0.322000
      8 C4          4.7770   -0.1080   -2.1730 c1        1 LC2     -0.153500
      9 O4          2.6750    1.4770   -1.3640 oh        1 LC2     -0.324000
     10 C5          4.6810    0.3670   -0.7070 c1        1 LC2     -0.153500
     11 O5         -1.2290   -0.0100    3.2500 o         1 LC2     -0.278000
     12 C6          3.5270    1.2420   -0.2690 c2        1 LC2      0.074000
     13 O6         -4.8460    0.1250    0.6190 o         1 LC2     -0.355000
     14 C7          2.7550    0.5440    0.8340 c3        1 LC2     -0.196000
     15 O7         -5.0650   -1.6070    3.5370 o         1 LC2     -0.262000
     16 C8          1.5090    1.3800    1.2010 c3        1 LC2      0.054000
     17 C9          0.8760    0.7670    2.4610 c3        1 LC2     -0.184000
     18 C10        -0.6370    0.6150    2.3870 c2        1 LC2      0.239000
     19 C11         1.3080    1.5750    3.7700 c3        1 LC2     -0.209000
     20 C12        -1.3840    1.2880    1.3360 c3        1 LC2     -0.134000
     21 C13         3.9360    1.6810   -3.9210 c3        1 LC2     -0.180000
     22 C14        -2.5460   -1.8440   -1.4640 c3        1 LC2     -0.211000
     23 C15        -2.4610    2.2910    1.7480 c3        1 LC2     -0.204000
     24 C16        -4.4230   -0.2700    1.6890 c2        1 LC2      0.259000
     25 C17        -5.3910   -0.7320    2.7640 c2        1 LC2      0.224000
     26 C18        -6.7870   -0.1280    2.8430 c3        1 LC2     -0.263000
     27 C23        -2.0960    0.1030    0.8940 c3        1 LC2      0.083000
     28 C26        -1.0830   -1.0350    0.6110 c2        1 LC2     -0.255000
     29 C27        -1.3220   -2.0140   -0.5840 c2        1 LC2      0.003000
     30 C28        -0.4470   -3.2850   -0.7250 c2        1 LC2     -0.144000
     31 C29         0.6510   -3.3630   -1.8400 c1        1 LC2     -0.174000
     32 C30         0.8640   -2.1920   -2.7780 c2        1 LC2      0.060000
     33 C31         2.3560   -1.8740   -2.8650 c2        1 LC2     -0.164000
     34 HN1        -2.7020   -0.6430    2.7140 hn        1 LC2      0.250000
     35 H2          1.8890   -0.2550   -4.2430 ha        1 LC2      0.147000
     36 HO3        -0.2130   -0.6460   -2.9760 ho        1 LC2      0.216000
     37 H4          5.5260   -0.6760   -2.4570 ha        1 LC2      0.124000
     38 HO4         2.8020    2.3010   -1.6670 ho        1 LC2      0.226000
     39 H5          5.3440    0.0660   -0.0510 ha        1 LC2      0.124000
     40 H6          3.8740    2.0970    0.0650 h4        1 LC2      0.112000
     41 H7          3.3300    0.4460    1.6270 hc        1 LC2      0.102500
     42 H7A         2.4760   -0.3340    0.5270 hc        1 LC2      0.102500
     43 H8          1.8010    2.2870    1.4180 h1        1 LC2      0.119000
     44 H9          1.2840   -0.1020    2.6430 hc        1 LC2      0.130000
     45 H11         0.9590    1.1210    4.5650 hc        1 LC2      0.092667
     46 H11A        0.9440    2.4840    3.7270 hc        1 LC2      0.092667
     47 H11B        2.2910    1.6170    3.8210 hc        1 LC2      0.092667
     48 H13         3.0810    2.1500   -3.9820 hc        1 LC2      0.087333
     49 H13A        4.2800    1.5130   -4.8210 hc        1 LC2      0.087333
     50 H13B        4.5760    2.2310   -3.4250 hc        1 LC2      0.087333
     51 H14        -2.5070   -2.4840   -2.2060 hc        1 LC2      0.106333
     52 H14A       -2.5680   -0.9290   -1.8210 hc        1 LC2      0.106333
     53 H14B       -3.3510   -2.0070   -0.9360 hc        1 LC2      0.106333
     54 H15        -2.8380    2.0300    2.6210 hc        1 LC2      0.101667
     55 H15A       -2.0640    3.1870    1.8170 hc        1 LC2      0.101667
     56 H15B       -3.1710    2.3010    1.0760 hc        1 LC2      0.101667
     57 H18        -7.3300   -0.6460    3.4690 hc        1 LC2      0.119333
     58 H18A       -6.7240    0.8090    3.1560 hc        1 LC2      0.119333
     59 H18B       -7.2010   -0.1490    1.9580 hc        1 LC2      0.119333
     60 H23        -2.5930    0.3080    0.0740 h1        1 LC2      0.156000
     61 H26        -0.3020   -1.1400    1.1750 ha        1 LC2      0.119000
     62 H28        -0.5830   -4.0380   -0.1220 ha        1 LC2      0.133000
     63 H29         1.2040   -4.1670   -1.9270 ha        1 LC2      0.123000
     64 H30         0.5260   -2.4230   -3.6700 h4        1 LC2      0.118000
     65 H31         2.8160   -2.5890   -3.3610 ha        1 LC2      0.098500
     66 H31A        2.7250   -1.8130   -1.9730 ha        1 LC2      0.098500
@<TRIPOS>BOND
     1    1    5 1   
     2    1   20 1   
     3    2   24 1   
     4    2   27 1   
     5    2   34 1   
     6    3   16 1   
     7    4    6 1   
     8    4   35 1   
     9    6   21 1   
    10    7   32 1   
    11    7   36 1   
    12    8   10 1   
    13    8   37 1   
    14    9   12 1   
    15    9   38 1   
    16   10   39 1   
    17   11   18 1   
    18   12   14 1   
    19   12   40 1   
    20   13   24 1   
    21   14   16 1   
    22   14   41 1   
    23   14   42 1   
    24   15   25 1   
    25   16   17 1   
    26   16   43 1   
    27   17   18 1   
    28   17   19 1   
    29   17   44 1   
    30   18   20 1   
    31   19   45 1   
    32   19   46 1   
    33   19   47 1   
    34   20   23 1   
    35   20   27 1   
    36   21   48 1   
    37   21   49 1   
    38   21   50 1   
    39   22   29 1   
    40   22   51 1   
    41   22   52 1   
    42   22   53 1   
    43   23   54 1   
    44   23   55 1   
    45   23   56 1   
    46   24   25 1   
    47   25   26 1   
    48   26   57 1   
    49   26   58 1   
    50   26   59 1   
    51   27   28 1   
    52   27   60 1   
    53   28   29 1   
    54   28   61 1   
    55   29   30 1   
    56   30   31 1   
    57   30   62 1   
    58   31   63 1   
    59   32   33 1   
    60   32   64 1   
    61   33   65 1   
    62   33   66 1   
@<TRIPOS>SUBSTRUCTURE
     1 LC2         1 TEMP              0 ****  ****    0 ROOT
