@<TRIPOS>MOLECULE
LC2
   66    63     1     0     0
SMALL
bcc


@<TRIPOS>ATOM
      1 C1         -1.5690   -0.4050   -0.0150 c2        1 LC2      0.337000
      2 N1         -3.6490   -0.9170    3.0770 n         1 LC2     -0.330000
      3 O1         -0.4440    0.0310   -0.5550 os        1 LC2     -0.126000
      4 C2          1.7410   -4.1080   -1.5020 c2        1 LC2     -0.414000
      5 O2         -2.2040   -1.1530   -0.9240 os        1 LC2     -0.112000
      6 C3          3.1590   -3.7930   -1.4790 c2        1 LC2     -0.024000
      7 O3         -1.6000   -5.6330   -3.9370 oh        1 LC2     -0.359000
      8 C4          3.6650   -3.0180   -0.4960 c2        1 LC2     -0.136000
      9 O4          7.8850   -4.1530   -0.2100 oh        1 LC2     -0.393000
     10 C5          5.0590   -2.6460   -0.3870 c2        1 LC2     -0.141000
     11 C6          5.5200   -1.8260    0.5620 c2        1 LC2     -0.214000
     12 O6         -5.1340    0.8400    3.2810 o         1 LC2     -0.352000
     13 C7          1.3750    1.4210   -0.0820 c2        1 LC2     -0.258000
     14 O7         -4.6190   -1.2570    5.8660 o         1 LC2     -0.255000
     15 C8          0.5380    0.5070    0.4230 c2        1 LC2      0.115000
     16 C9          0.4960   -0.1710    1.6780 c2        1 LC2     -0.470000
     17 C10        -0.6800   -0.6680    2.2340 c2        1 LC2      0.330000
     18 C11         1.7800   -0.3990    2.3740 c3        1 LC2     -0.103000
     19 C12        -1.9810   -0.1080    1.3790 c3        1 LC2     -0.283000
     20 C13         3.9930   -4.3540   -2.5730 c3        1 LC2     -0.189000
     21 C15        -1.9310    1.2750    1.8250 c1        1 LC2      0.004000
     22 C16        -4.4100   -0.0230    3.8110 c2        1 LC2      0.268000
     23 C17        -4.3720   -0.1790    5.3290 c2        1 LC2      0.230000
     24 C18        -4.0400    1.0800    6.0470 c3        1 LC2     -0.265000
     25 C23        -3.3950   -0.6830    1.6820 c3        1 LC2      0.099000
     26 C26        -3.7090   -1.8700    0.8180 c2        1 LC2     -0.181000
     27 C27        -3.2000   -2.0320   -0.4090 c2        1 LC2      0.004000
     28 C28        -2.5950   -4.8830    0.0260 c2        1 LC2     -0.217000
     29 C29        -2.9110   -4.3960   -1.1710 c2        1 LC2     -0.179000
     30 C30        -1.4700   -6.6410   -4.9130 c3        1 LC2     -0.065000
     31 C31         1.0590   -4.7450   -2.4280 c1        1 LC2      0.159000
     32 HN1        -2.9860   -1.4890    3.5610 hn        1 LC2      0.265000
     33 H2          1.1570   -3.7570   -0.6190 ha        1 LC2      0.201000
     34 HO3        -0.7080   -5.4160   -3.6260 ho        1 LC2      0.224000
     35 H4          2.9980   -2.6190    0.2910 ha        1 LC2      0.131000
     36 HO4         7.2270   -3.8210    0.4100 ho        1 LC2      0.195000
     37 H5          5.7470   -3.0780   -1.1380 ha        1 LC2      0.138000
     38 H6          8.3310   -4.8480    0.2830 ho        1 LC2      0.195000
     39 H7          6.5820   -1.5520    0.6250 ha        1 LC2      0.116500
     40 H7A         4.8710   -1.3720    1.3230 ha        1 LC2      0.116500
     41 H8          1.3170    1.7780   -1.1160 ha        1 LC2      0.147000
     42 H9          2.1760    1.8320    0.5460 ha        1 LC2      0.147000
     43 H11         2.2440    0.5770    2.6660 hc        1 LC2      0.067667
     44 H11A        2.5040   -0.9410    1.7130 hc        1 LC2      0.067667
     45 H11B        1.6200   -1.0070    3.2990 hc        1 LC2      0.067667
     46 H13         3.3870   -4.9700   -3.2820 hc        1 LC2      0.088667
     47 H13A        4.4770   -3.5280   -3.1530 hc        1 LC2      0.088667
     48 H13B        4.8020   -5.0010   -2.1510 hc        1 LC2      0.088667
     49 H14        -3.1660   -2.6960   -2.4400 hc        1 LC2      0.125000
     50 H14A       -2.7540   -4.9940   -2.0900 ha        1 LC2      0.164000
     51 H14B       -4.6350   -3.1730   -1.4850 hc        1 LC2      0.125000
     52 H15        -3.9990    2.2920    1.6480 ha        1 LC2      0.011500
     53 H15A       -3.8000    2.3350    0.9960 ha        1 LC2      0.011500
     54 H15B       -1.3810    1.9950    1.2010 ha        1 LC2      0.066000
     55 H18        -2.9830    1.3690    5.8210 hc        1 LC2      0.119667
     56 H18A       -4.1570    0.9490    7.1500 hc        1 LC2      0.119667
     57 H18B       -4.7150    1.8990    5.6920 hc        1 LC2      0.119667
     58 H23        -4.1330    0.1240    1.3420 h1        1 LC2      0.144000
     59 H26        -4.4540   -2.5870    1.2030 ha        1 LC2      0.185000
     60 H28        -2.7330   -4.3230    0.9610 ha        1 LC2      0.118500
     61 H29        -2.1730   -5.8890    0.1490 ha        1 LC2      0.118500
     62 H30        -1.0000   -7.5590   -4.4790 h1        1 LC2      0.064333
     63 H31        -0.8600   -6.2820   -5.7790 h1        1 LC2      0.064333
     64 H31A       -2.5130   -6.8670   -5.2480 h1        1 LC2      0.064333
     65 O5         -0.9050   -1.3950    3.2070 o         1 LC2     -0.358000
     66 C14        -3.5140   -3.0640   -1.4330 c3        1 LC2     -0.089000
@<TRIPOS>BOND
     1    1    3 1   
     2    1    5 1   
     3    1   19 1   
     4    2   22 1   
     5    2   25 1   
     6    2   32 1   
     7    3   15 1   
     8    4    6 1   
     9    4   31 1   
    10    4   33 1   
    11    5   27 1   
    12    6    8 1   
    13    6   20 1   
    14    7   30 1   
    15    7   34 1   
    16    8   10 1   
    17    8   35 1   
    18    9   36 1   
    19    9   38 1   
    20   10   11 1   
    21   10   37 1   
    22   11   39 1   
    23   11   40 1   
    24   12   22 1   
    25   13   15 1   
    26   13   41 1   
    27   13   42 1   
    28   14   23 1   
    29   15   16 1   
    30   16   17 1   
    31   16   18 1   
    32   17   19 1   
    33   17   65 1   
    34   18   43 1   
    35   18   44 1   
    36   18   45 1   
    37   19   21 1   
    38   19   25 1   
    39   20   46 1   
    40   20   47 1   
    41   20   48 1   
    42   21   54 1   
    43   22   23 1   
    44   23   24 1   
    45   24   55 1   
    46   24   56 1   
    47   24   57 1   
    48   25   26 1   
    49   25   58 1   
    50   26   27 1   
    51   26   59 1   
    52   27   66 1   
    53   28   29 1   
    54   28   60 1   
    55   28   61 1   
    56   29   50 1   
    57   29   66 1   
    58   30   62 1   
    59   30   63 1   
    60   30   64 1   
    61   49   66 1   
    62   51   66 1   
    63   52   53 1   
@<TRIPOS>SUBSTRUCTURE
     1 LC2         1 TEMP              0 ****  ****    0 ROOT
