@<TRIPOS>MOLECULE
LC2
   67    66     1     0     0
SMALL
bcc


@<TRIPOS>ATOM
      1 C1          0.3720   -0.7350    0.5310 c2        1 LC2      0.338000
      2 N1         -2.9120   -0.8690    2.3600 n         1 LC2     -0.352000
      3 O1          1.4860   -1.5170    0.7740 os        1 LC2     -0.281000
      4 C2         -0.3920   -3.8600   -3.0860 c2        1 LC2      0.044000
      5 O2          0.2550   -0.5380   -0.6810 o         1 LC2     -0.328000
      6 C3          0.7710   -3.0030   -3.4900 c3        1 LC2     -0.111000
      7 O3          1.3640   -4.1410   -0.0380 oh        1 LC2     -0.126000
      8 C4          1.6520   -2.9190   -2.2140 c3        1 LC2     -0.139000
      9 O4          7.1530   -3.6850   -2.3130 oh        1 LC2     -0.409000
     10 C5          3.0630   -3.3190   -2.4380 c2        1 LC2     -0.243000
     11 C6          4.0980   -2.5180   -2.1890 c2        1 LC2     -0.134000
     12 O6         -4.5900   -0.3380    0.8830 o         1 LC2     -0.357000
     13 C7          3.1320   -2.3200    2.2010 c2        1 LC2     -0.283000
     14 O7         -4.9450   -0.7250    4.3310 o         1 LC2     -0.261000
     15 C8          1.9530   -1.6840    2.0900 c2        1 LC2      0.100000
     16 C9          1.1550   -1.1800    3.1760 c2        1 LC2     -0.333000
     17 C10        -0.0140   -0.5210    2.9820 c2        1 LC2      0.135000
     18 C11         0.1820   -0.2690    6.4840 c1        1 LC2     -0.034000
     19 C12        -0.5870   -0.2810    1.6100 c3        1 LC2     -0.048000
     20 C13         0.3320   -1.6400   -3.9720 c3        1 LC2     -0.218000
     21 C15        -0.8620    1.2060    1.4170 c3        1 LC2     -0.206000
     22 C16        -4.1920   -0.4680    2.0580 c2        1 LC2      0.255000
     23 C17        -5.1290   -0.1910    3.2370 c2        1 LC2      0.230000
     24 C18        -6.2400    0.7440    2.9220 c3        1 LC2     -0.262000
     25 C23        -1.9090   -1.1060    1.3580 c3        1 LC2      0.082000
     26 C26        -1.5270   -2.5570    1.2260 c2        1 LC2     -0.231000
     27 C27        -2.1080   -3.4330    0.3930 c2        1 LC2     -0.063000
     28 C28        -1.5770   -4.8260    0.2940 c3        1 LC2     -0.142000
     29 C29        -1.2380   -5.2450   -1.1260 c3        1 LC2     -0.114000
     30 C30         0.9530   -3.8410   -1.2460 c2        1 LC2      0.316000
     31 C31        -0.2740   -4.3580   -1.8100 c2        1 LC2     -0.178000
     32 HN1        -0.3110   -0.1570    4.8980 ho        1 LC2      0.305000
     33 H2         -1.2360   -4.0340   -3.7650 ha        1 LC2      0.188000
     34 HO3         2.1690   -3.6170    0.2020 ho        1 LC2      0.304000
     35 H4          1.3430   -3.5240   -4.3110 hc        1 LC2      0.155000
     36 HO4         7.5630   -4.2540   -2.9700 ho        1 LC2      0.206000
     37 H5          3.2060   -4.3250   -2.8670 ha        1 LC2      0.143000
     38 H6          7.9010   -3.2720   -1.8710 ho        1 LC2      0.206000
     39 H7          5.1390   -2.8350   -2.3830 ha        1 LC2      0.151500
     40 H7A         3.9870   -1.5020   -1.7830 ha        1 LC2      0.151500
     41 H8          3.7190   -2.6380    1.3330 ha        1 LC2      0.136000
     42 H9          3.5730   -2.5180    3.1850 ha        1 LC2      0.136000
     43 H11        -0.3730    0.2920    7.2450 ha        1 LC2      0.066000
     44 H11A        1.5560   -1.3340    4.1890 ha        1 LC2      0.161000
     45 H11B        1.0180   -0.8610    6.8780 ha        1 LC2      0.066000
     46 H13        -0.1580   -1.0630   -3.1470 hc        1 LC2      0.108000
     47 H13A       -0.3880   -1.7440   -4.8200 hc        1 LC2      0.108000
     48 H13B        1.2200   -1.0620   -4.3270 hc        1 LC2      0.108000
     49 H14        -3.9680   -4.0040   -0.5090 hc        1 LC2      0.100000
     50 H14A       -2.9300   -2.9050   -1.5110 hc        1 LC2      0.100000
     51 H14B       -3.8530   -2.2430   -0.0960 hc        1 LC2      0.100000
     52 H15         0.0860    1.7880    1.5060 hc        1 LC2      0.106667
     53 H15A       -1.3040    1.3850    0.4070 hc        1 LC2      0.106667
     54 H15B       -1.5710    1.5610    2.2040 hc        1 LC2      0.106667
     55 H18        -5.8290    1.7750    2.7810 hc        1 LC2      0.124333
     56 H18A       -6.7370    0.4330    1.9680 hc        1 LC2      0.124333
     57 H18B       -6.9910    0.7590    3.7490 hc        1 LC2      0.124333
     58 H23        -2.3160   -0.7400    0.3610 h1        1 LC2      0.148000
     59 H26        -0.6900   -2.8710    1.8750 ha        1 LC2      0.130000
     60 H28        -0.6650   -4.9450    0.9400 hc        1 LC2      0.109000
     61 H29        -2.3580   -5.5350    0.6890 hc        1 LC2      0.109000
     62 H30        -0.8120   -6.2870   -1.0960 hc        1 LC2      0.115500
     63 H31        -2.1840   -5.2860   -1.7340 hc        1 LC2      0.115500
     64 H31A        1.5920   -1.8660   -1.7830 hc        1 LC2      0.208000
     65 O5         -0.7580   -0.0030    3.9820 oh        1 LC2     -0.319000
     66 C14        -3.2750   -3.1270   -0.4690 c3        1 LC2     -0.207000
     67 H12        -2.6450   -0.9640    3.3160 hn        1 LC2      0.259000
@<TRIPOS>BOND
     1    1    3 1   
     2    1    5 1   
     3    1   19 1   
     4    2   22 1   
     5    2   25 1   
     6    2   67 1   
     7    3   15 1   
     8    4    6 1   
     9    4   31 1   
    10    4   33 1   
    11    6    8 1   
    12    6   20 1   
    13    6   35 1   
    14    7   30 1   
    15    7   34 1   
    16    8   10 1   
    17    8   30 1   
    18    8   64 1   
    19    9   36 1   
    20    9   38 1   
    21   10   11 1   
    22   10   37 1   
    23   11   39 1   
    24   11   40 1   
    25   12   22 1   
    26   13   15 1   
    27   13   41 1   
    28   13   42 1   
    29   14   23 1   
    30   15   16 1   
    31   16   17 1   
    32   16   44 1   
    33   17   19 1   
    34   17   65 1   
    35   18   43 1   
    36   18   45 1   
    37   19   21 1   
    38   19   25 1   
    39   20   46 1   
    40   20   47 1   
    41   20   48 1   
    42   21   52 1   
    43   21   53 1   
    44   21   54 1   
    45   22   23 1   
    46   23   24 1   
    47   24   55 1   
    48   24   56 1   
    49   24   57 1   
    50   25   26 1   
    51   25   58 1   
    52   26   27 1   
    53   26   59 1   
    54   27   28 1   
    55   27   66 1   
    56   28   29 1   
    57   28   60 1   
    58   28   61 1   
    59   29   31 1   
    60   29   62 1   
    61   29   63 1   
    62   30   31 1   
    63   32   65 1   
    64   49   66 1   
    65   50   66 1   
    66   51   66 1   
@<TRIPOS>SUBSTRUCTURE
     1 LC2         1 TEMP              0 ****  ****    0 ROOT
