@<TRIPOS>MOLECULE
LC2
   66    67     1     0     0
SMALL
bcc


@<TRIPOS>ATOM
      1 C1         53.4520  121.5170  111.8120 c         1 LC2      0.728600
      2 N1         56.7910  120.7480  113.3820 n         1 LC2     -0.541900
      3 O1         52.1980  121.0210  111.5680 os        1 LC2     -0.409900
      4 C2         50.3470  122.4210  116.6170 c2        1 LC2     -0.170200
      5 O2         53.4930  122.7420  111.6940 o         1 LC2     -0.564500
      6 C3         49.8420  122.3520  115.3710 ce        1 LC2     -0.068200
      7 O3         52.2660  124.9000  118.6440 oh        1 LC2     -0.594800
      8 C4         49.6820  121.0490  114.7310 ce        1 LC2     -0.110000
      9 O4         48.3910  119.2380  112.6020 oh        1 LC2     -0.586800
     10 C5         49.9040  120.8320  113.4290 c2        1 LC2     -0.164200
     11 C6         49.7820  119.4730  112.8150 c3        1 LC2      0.178300
     12 O6         58.0220  122.6930  113.2390 o         1 LC2     -0.594100
     13 C7         50.5250  119.3580  111.4840 c3        1 LC2     -0.113400
     14 O7         59.2140  119.7260  114.5530 o         1 LC2     -0.501100
     15 C8         52.0300  119.5960  111.5320 c3        1 LC2      0.163100
     16 C9         52.7430  118.9210  112.6980 c3        1 LC2     -0.197700
     17 C10        54.2150  119.2620  112.6910 c         1 LC2      0.581100
     18 C11        52.5460  117.4190  112.6610 c3        1 LC2     -0.087100
     19 C12        54.6240  120.6150  112.1380 c3        1 LC2     -0.233000
     20 C13        49.4520  123.5480  114.5840 c3        1 LC2     -0.063900
     21 C15        55.3970  120.3970  110.8390 c3        1 LC2     -0.085100
     22 C16        57.9600  121.4670  113.4570 c         1 LC2      0.562100
     23 C17        59.2320  120.6790  113.7750 c         1 LC2      0.511100
     24 C18        60.4480  121.1860  113.0840 c3        1 LC2     -0.195100
     25 C23        55.5080  121.3850  113.1840 c3        1 LC2      0.158900
     26 C26        54.7250  121.5190  114.4600 c2        1 LC2     -0.248200
     27 C27        54.5510  122.6800  115.1210 ce        1 LC2     -0.002200
     28 C28        53.6910  122.6970  116.3010 ce        1 LC2     -0.142000
     29 C29        53.0290  123.7750  116.7360 c2        1 LC2     -0.128200
     30 C30        52.0620  123.7160  117.8770 c3        1 LC2      0.174300
     31 C31        50.6170  123.6700  117.3610 c3        1 LC2     -0.078200
     32 HN1        56.7820  119.8050  113.7090 hn        1 LC2      0.340500
     33 H2         50.6110  121.4950  117.1570 ha        1 LC2      0.118000
     34 HO3        51.6170  124.8830  119.3570 ho        1 LC2      0.401000
     35 H4         49.3810  120.2230  115.3990 ha        1 LC2      0.125000
     36 HO4        48.3130  118.3660  112.1980 ho        1 LC2      0.396000
     37 H5         50.2020  121.6370  112.7380 ha        1 LC2      0.155000
     38 H6         50.1690  118.6900  113.5320 h1        1 LC2      0.029700
     39 H7         50.3600  118.3280  111.0700 hc        1 LC2      0.068700
     40 H7A        50.0770  120.0980  110.7660 hc        1 LC2      0.068700
     41 H8         52.4810  119.2310  110.5620 h1        1 LC2      0.052700
     42 H9         52.3260  119.3340  113.6640 hc        1 LC2      0.103700
     43 H11        53.1520  116.9370  113.4680 hc        1 LC2      0.051367
     44 H11A       51.4710  117.1620  112.8140 hc        1 LC2      0.051367
     45 H11B       52.8780  117.0050  111.6790 hc        1 LC2      0.051367
     46 H13        48.8250  123.2630  113.7030 hc        1 LC2      0.049367
     47 H13A       48.8640  124.2620  115.2120 hc        1 LC2      0.049367
     48 H13B       50.3650  124.0770  114.2090 hc        1 LC2      0.049367
     49 H14        55.1750  124.7100  115.5040 hc        1 LC2      0.063033
     50 H14A       56.2150  123.8000  114.3340 hc        1 LC2      0.063033
     51 H14B       54.5710  124.3780  113.8210 hc        1 LC2      0.063033
     52 H15        56.1970  119.6330  110.9890 hc        1 LC2      0.059700
     53 H15A       54.7060  120.0390  110.0370 hc        1 LC2      0.059700
     54 H15B       55.8630  121.3580  110.5120 hc        1 LC2      0.059700
     55 H18        61.3670  120.6990  113.4910 hc        1 LC2      0.079033
     56 H18A       60.3710  120.9680  111.9900 hc        1 LC2      0.079033
     57 H18B       60.5180  122.2950  113.2170 hc        1 LC2      0.079033
     58 H23        55.6970  122.4140  112.7370 h1        1 LC2      0.118700
     59 H26        54.2810  120.5840  114.8390 ha        1 LC2      0.121000
     60 H28        53.5700  121.7240  116.8100 ha        1 LC2      0.123000
     61 H29        53.1330  124.7690  116.2720 ha        1 LC2      0.146000
     62 H30        52.2600  122.8170  118.5280 h1        1 LC2      0.038700
     63 H31        50.4360  124.5780  116.7280 hc        1 LC2      0.057200
     64 H31A       49.9210  123.7300  118.2420 hc        1 LC2      0.057200
     65 O5         55.0580  118.4700  113.1210 o         1 LC2     -0.519100
     66 C14        55.1600  123.9580  114.6780 c3        1 LC2     -0.089900
@<TRIPOS>BOND
     1    1    3 1   
     2    1    5 2   
     3    1   19 1   
     4    2   22 1   
     5    2   25 1   
     6    2   32 1   
     7    3   15 1   
     8    4    6 2   
     9    4   31 1   
    10    4   33 1   
    11    6    8 1   
    12    6   20 1   
    13    7   30 1   
    14    7   34 1   
    15    8   10 2   
    16    8   35 1   
    17    9   11 1   
    18    9   36 1   
    19   10   11 1   
    20   10   37 1   
    21   11   13 1   
    22   11   38 1   
    23   12   22 2   
    24   13   15 1   
    25   13   39 1   
    26   13   40 1   
    27   14   23 2   
    28   15   16 1   
    29   15   41 1   
    30   16   17 1   
    31   16   18 1   
    32   16   42 1   
    33   17   19 1   
    34   17   65 2   
    35   18   43 1   
    36   18   44 1   
    37   18   45 1   
    38   19   21 1   
    39   19   25 1   
    40   20   46 1   
    41   20   47 1   
    42   20   48 1   
    43   21   52 1   
    44   21   53 1   
    45   21   54 1   
    46   22   23 1   
    47   23   24 1   
    48   24   55 1   
    49   24   56 1   
    50   24   57 1   
    51   25   26 1   
    52   25   58 1   
    53   26   27 2   
    54   26   59 1   
    55   27   28 1   
    56   27   66 1   
    57   28   29 2   
    58   28   60 1   
    59   29   30 1   
    60   29   61 1   
    61   30   31 1   
    62   30   62 1   
    63   31   63 1   
    64   31   64 1   
    65   49   66 1   
    66   50   66 1   
    67   51   66 1   
@<TRIPOS>SUBSTRUCTURE
     1 LC2         1 TEMP              0 ****  ****    0 ROOT
