@<TRIPOS>MOLECULE
LC3
   55    44     1     0     0
SMALL
bcc


@<TRIPOS>ATOM
      1 C1         -4.5800    3.0870   -6.0560 c1        1 LC3     -0.089000
      2 C2         -3.2430    2.7150   -6.1050 c2        1 LC3     -0.125000
      3 C3         -5.1790    3.3540   -4.8410 c1        1 LC3     -0.120000
      4 C4         -5.4100    3.1240   -7.3410 c1        1 LC3      0.375500
      5 C5         -2.5100    2.6120   -4.9360 c1        1 LC3     -0.141000
      6 C6         -4.4450    3.2510   -3.6690 c1        1 LC3     -0.102000
      7 O7         -6.0240    2.0930   -7.7230 o         1 LC3     -0.575500
      8 O8         -5.5380    4.2090   -7.9790 os        1 LC3     -0.554000
      9 C9         -3.1110    2.8800   -3.7170 c1        1 LC3     -0.082000
     10 C10        -0.8360    4.1760   -1.0160 c1        1 LC3     -0.137000
     11 C11        -1.6540    4.0680   -2.1300 c1        1 LC3     -0.237000
     12 C12        -2.2820    2.8680   -2.4120 c2        1 LC3      0.133000
     13 N13        -2.0920    1.7700   -1.5760 n2        1 LC3     -0.045000
     14 C14        -1.2920    1.8780   -0.4870 c1        1 LC3     -0.032000
     15 C15        -0.6520    3.0980   -0.1990 c1        1 LC3     -0.137000
     16 N16        -2.6270    0.4880   -1.5910 n1        1 LC3     -0.078000
     17 C17        -2.1470   -0.1840   -0.5040 c1        1 LC3     -0.078000
     18 C18        -1.3200    0.6650    0.1870 c1        1 LC3     -0.211000
     19 C19        -3.0220   -1.3790   -0.7850 c1        1 LC3      0.375500
     20 C20        -0.8150    0.0670    1.5270 c2        1 LC3     -0.057000
     21 C21         0.5670   -0.6410    1.3000 c3        1 LC3     -0.188000
     22 C22         1.0790   -1.2170    2.6460 c3        1 LC3     -0.016000
     23 O23         2.3180   -1.9260    2.4290 os        1 LC3     -0.215000
     24 O24        -2.5940   -2.3130   -1.5120 o         1 LC3     -0.575500
     25 O25        -4.1450   -1.4850   -0.2200 os        1 LC3     -0.554000
     26 C26         2.8610   -2.4910    3.5950 c2        1 LC3      0.131000
     27 C27         2.3860   -2.3520    4.8980 c2        1 LC3     -0.242000
     28 C28         3.1180   -2.8790    5.9710 c1        1 LC3     -0.077000
     29 C29         4.3120   -3.5360    5.7380 c1        1 LC3     -0.166000
     30 C30         4.7980   -3.6790    4.4130 c1        1 LC3     -0.005000
     31 C31         4.0790   -3.1620    3.3560 c1        1 LC3     -0.066000
     32 C32         6.0570   -4.2820    4.1850 c1        1 LC3     -0.166000
     33 C33         6.5740   -4.3540    2.8890 c1        1 LC3     -0.137000
     34 C34         5.8530   -3.8350    1.8250 c1        1 LC3     -0.137000
     35 C35         4.6010   -3.2350    2.0490 c1        1 LC3     -0.074000
     36 H1         -2.8470    2.4310   -6.9560 ha        1 LC3      0.145000
     37 H2         -6.1520    3.6250   -4.8060 ha        1 LC3      0.150000
     38 H3         -1.5360    2.3410   -4.9720 ha        1 LC3      0.108000
     39 H4         -4.8720    3.4410   -2.8040 ha        1 LC3      0.142000
     40 H6         -0.3880    5.0300   -0.8140 ha        1 LC3      0.120000
     41 H7         -1.7830    4.8150   -2.6990 ha        1 LC3      0.139000
     42 H8         -0.0690    3.1740    0.5960 ha        1 LC3      0.120000
     43 H9         -1.4670   -0.5870    1.8580 ha        1 LC3      0.072000
     44 H10        -0.7100    0.7800    2.1810 ha        1 LC3      0.072000
     45 H11         1.2140    0.0080    0.9570 hc        1 LC3      0.132500
     46 H12         0.4600   -1.3630    0.6570 hc        1 LC3      0.132500
     47 H13         1.2290   -0.4810    3.2810 h1        1 LC3      0.080000
     48 H14         0.4070   -1.8360    3.0130 h1        1 LC3      0.080000
     49 H16         1.5420   -1.8980    5.0620 ha        1 LC3      0.149000
     50 H17         2.7820   -2.7800    6.8920 ha        1 LC3      0.121000
     51 H18         4.8180   -3.9010    6.4840 ha        1 LC3      0.119500
     52 H19         6.5710   -4.6520    4.9410 ha        1 LC3      0.119500
     53 H20         7.4130   -4.8510    2.7200 ha        1 LC3      0.120000
     54 H21         6.2190   -3.8860    0.9110 ha        1 LC3      0.120000
     55 H22         4.0870   -2.8650    1.2900 ha        1 LC3      0.160000
@<TRIPOS>BOND
     1    1    2 1   
     2    1    3 1   
     3    2    5 1   
     4    2   36 1   
     5    3   37 1   
     6    4    7 1   
     7    5   38 1   
     8    6    9 1   
     9    6   39 1   
    10    9   12 1   
    11   10   15 1   
    12   10   40 1   
    13   11   12 1   
    14   11   41 1   
    15   12   13 1   
    16   13   14 1   
    17   15   42 1   
    18   16   17 1   
    19   17   18 1   
    20   19   24 1   
    21   20   21 1   
    22   20   43 1   
    23   20   44 1   
    24   21   22 1   
    25   21   45 1   
    26   21   46 1   
    27   22   23 1   
    28   22   47 1   
    29   22   48 1   
    30   23   26 1   
    31   26   27 1   
    32   26   31 1   
    33   27   28 1   
    34   27   49 1   
    35   28   50 1   
    36   29   30 1   
    37   29   51 1   
    38   30   32 1   
    39   31   35 1   
    40   32   52 1   
    41   33   34 1   
    42   33   53 1   
    43   34   54 1   
    44   35   55 1   
@<TRIPOS>SUBSTRUCTURE
     1 LC3         1 TEMP              0 ****  ****    0 ROOT
