@<TRIPOS>MOLECULE
LC3
   55    59     1     0     0
SMALL
bcc


@<TRIPOS>ATOM
      1 C1         -0.3390    0.6220    0.3200 ca        1 LC3     -0.109600
      2 C2          0.9340    0.1830   -0.0640 ca        1 LC3     -0.122500
      3 C3         -0.6810    0.5900    1.6750 ca        1 LC3     -0.122500
      4 C4         -1.3120    1.1390   -0.7250 c         1 LC3      0.905200
      5 C5          1.8560   -0.2360    0.8880 ca        1 LC3     -0.121500
      6 C6          0.2350    0.1650    2.6380 ca        1 LC3     -0.121500
      7 O7         -2.4210    1.6050   -0.3380 o         1 LC3     -0.840300
      8 O8         -0.9610    1.0950   -1.9410 o         1 LC3     -0.840300
      9 C9          1.5220   -0.2280    2.2530 ca        1 LC3     -0.082000
     10 C10         4.9100   -0.2550    3.9390 cc        1 LC3     -0.121000
     11 C11         3.8390    0.0050    3.0470 cc        1 LC3     -0.237000
     12 C12         2.5760   -0.5480    3.2270 cd        1 LC3      0.108700
     13 N13         2.3580   -1.3790    4.3250 na        1 LC3      0.183000
     14 C14         3.4420   -1.6510    5.2340 cd        1 LC3     -0.056300
     15 C15         4.7220   -1.0710    5.0200 cd        1 LC3     -0.144000
     16 N16         1.2300   -2.0210    4.7030 nd        1 LC3     -0.545100
     17 C17         1.5250   -2.7110    5.8370 cc        1 LC3      0.365600
     18 C18         2.9140   -2.5120    6.2130 cc        1 LC3     -0.301800
     19 C19         0.5480   -3.5720    6.6310 c         1 LC3      0.858300
     20 C20         3.5970   -3.0870    7.3760 c3        1 LC3      0.025800
     21 C21         3.7510   -4.5920    7.2390 c3        1 LC3     -0.109400
     22 C22         4.1490   -5.2510    8.5420 c3        1 LC3      0.134400
     23 O23         5.5760   -5.0770    8.6820 os        1 LC3     -0.331900
     24 O24         0.6630   -4.8250    6.5220 o         1 LC3     -0.819800
     25 O25        -0.2680   -2.9870    7.3880 o         1 LC3     -0.819800
     26 C26         6.1470   -5.6090    9.8060 ca        1 LC3      0.176100
     27 C27         5.4600   -6.2900   10.7980 ca        1 LC3     -0.242000
     28 C28         6.1600   -6.7990   11.9120 ca        1 LC3     -0.077000
     29 C29         7.5180   -6.6350   12.0340 ca        1 LC3     -0.188000
     30 C30         8.2490   -5.9400   11.0320 ca        1 LC3     -0.005000
     31 C31         7.5690   -5.4170    9.9040 ca        1 LC3     -0.066000
     32 C32         9.6550   -5.7530   11.1330 ca        1 LC3     -0.144000
     33 C33        10.3430   -5.0770   10.1550 ca        1 LC3     -0.121000
     34 C34         9.6620   -4.5550    9.0300 ca        1 LC3     -0.162000
     35 C35         8.3030   -4.7210    8.9070 ca        1 LC3     -0.074000
     36 H1          1.1850    0.1850   -1.1370 ha        1 LC3      0.147500
     37 H2         -1.6930    0.9160    1.9660 ha        1 LC3      0.147500
     38 H3          2.8530   -0.5780    0.5760 ha        1 LC3      0.125000
     39 H4         -0.0570    0.1450    3.6990 ha        1 LC3      0.125000
     40 H8          5.5180   -1.3050    5.7380 ha        1 LC3      0.127000
     41 H9          4.6080   -2.6160    7.5090 hc        1 LC3      0.032700
     42 H10         2.9920   -2.8610    8.2980 hc        1 LC3      0.032700
     43 H11         4.5070   -4.8290    6.4480 hc        1 LC3      0.093200
     44 H12         2.7550   -5.0260    6.9200 hc        1 LC3      0.093200
     45 H13         3.9280   -6.3510    8.5170 h1        1 LC3      0.040700
     46 H14         3.6360   -4.7790    9.4200 h1        1 LC3      0.040700
     47 H16         4.3740   -6.4400   10.7370 ha        1 LC3      0.149000
     48 H17         5.5920   -7.3340   12.6870 ha        1 LC3      0.121000
     49 H18         8.0600   -7.0320   12.9030 ha        1 LC3      0.119000
     50 H19        10.1760   -6.1610   12.0100 ha        1 LC3      0.120000
     51 H20        11.4300   -4.9330   10.2340 ha        1 LC3      0.117000
     52 H21        10.2310   -4.0160    8.2600 ha        1 LC3      0.127000
     53 H22         7.7520   -4.3210    8.0390 ha        1 LC3      0.160000
     54 H6          5.8850    0.2120    3.7430 ha        1 LC3      0.109000
     55 H7          4.0030    0.6700    2.1890 ha        1 LC3      0.139000
@<TRIPOS>BOND
     1    1    2 ar  
     2    1    3 ar  
     3    1    4 1   
     4    2    5 ar  
     5    2   36 1   
     6    3    6 ar  
     7    3   37 1   
     8    4    7 1   
     9    4    8 1   
    10    5    9 ar  
    11    5   38 1   
    12    6    9 ar  
    13    6   39 1   
    14    9   12 1   
    15   10   11 1   
    16   10   15 2   
    17   10   54 1   
    18   11   12 2   
    19   11   55 1   
    20   12   13 1   
    21   13   14 1   
    22   13   16 1   
    23   14   15 1   
    24   14   18 2   
    25   15   40 1   
    26   16   17 2   
    27   17   18 1   
    28   17   19 1   
    29   18   20 1   
    30   19   24 1   
    31   19   25 1   
    32   20   21 1   
    33   20   41 1   
    34   20   42 1   
    35   21   22 1   
    36   21   43 1   
    37   21   44 1   
    38   22   23 1   
    39   22   45 1   
    40   22   46 1   
    41   23   26 1   
    42   26   27 ar  
    43   26   31 ar  
    44   27   28 ar  
    45   27   47 1   
    46   28   29 ar  
    47   28   48 1   
    48   29   30 ar  
    49   29   49 1   
    50   30   31 ar  
    51   30   32 ar  
    52   31   35 ar  
    53   32   33 ar  
    54   32   50 1   
    55   33   34 ar  
    56   33   51 1   
    57   34   35 ar  
    58   34   52 1   
    59   35   53 1   
@<TRIPOS>SUBSTRUCTURE
     1 LC3         1 TEMP              0 ****  ****    0 ROOT
