@<TRIPOS>MOLECULE
LC3
   55    59     1     0     0
SMALL
bcc


@<TRIPOS>ATOM
      1 C1         -7.3820    0.3810    0.1720 ca        1 LC3     -0.109600
      2 C2         -6.7510    1.4960   -0.3930 ca        1 LC3     -0.122500
      3 C3         -6.6030   -0.5660    0.8440 ca        1 LC3     -0.122500
      4 C4         -8.8900    0.2270    0.0670 c         1 LC3      0.905200
      5 C5         -5.3800    1.6800   -0.2530 ca        1 LC3     -0.121500
      6 C6         -5.2250   -0.3930    0.9850 ca        1 LC3     -0.121500
      7 O7         -9.4390   -0.7460    0.6590 o         1 LC3     -0.840300
      8 O8         -9.5330    1.0910   -0.5970 o         1 LC3     -0.840300
      9 C9         -4.6060    0.7470    0.4590 ca        1 LC3     -0.082000
     10 C10        -1.5050    2.7310    1.3320 cc        1 LC3     -0.121000
     11 C11        -2.8480    2.3490    1.0850 cc        1 LC3     -0.237000
     12 C12        -3.1890    1.0590    0.6960 cd        1 LC3      0.108700
     13 N13        -2.1770    0.1120    0.5510 na        1 LC3      0.183000
     14 C14        -0.8090    0.4930    0.7970 cd        1 LC3     -0.056300
     15 C15        -0.4940    1.8210    1.1910 cd        1 LC3     -0.144000
     16 N16        -2.2640   -1.1880    0.1890 nd        1 LC3     -0.545100
     17 C17        -1.0000   -1.6870    0.1870 cc        1 LC3      0.365600
     18 C18        -0.0410   -0.6620    0.5630 cc        1 LC3     -0.301800
     19 C19        -0.6140   -3.1250   -0.1450 c         1 LC3      0.858300
     20 C20         1.4110   -0.8220    0.6780 c3        1 LC3      0.025800
     21 C21         2.0510   -1.0560   -0.6800 c3        1 LC3     -0.109400
     22 C22         3.4800   -1.5440   -0.5670 c3        1 LC3      0.134400
     23 O23         4.3030   -0.3800   -0.3340 os        1 LC3     -0.331900
     24 O24        -0.0850   -3.3340   -1.2730 o         1 LC3     -0.819800
     25 O25        -0.7890   -4.0000    0.7410 o         1 LC3     -0.819800
     26 C26         5.6480   -0.6020   -0.2030 ca        1 LC3      0.176100
     27 C27         6.2570   -1.8440   -0.2780 ca        1 LC3     -0.242000
     28 C28         7.6560   -1.9470   -0.1320 ca        1 LC3     -0.077000
     29 C29         8.4330   -0.8360    0.0830 ca        1 LC3     -0.188000
     30 C30         7.8350    0.4510    0.1660 ca        1 LC3     -0.005000
     31 C31         6.4310    0.5830    0.0250 ca        1 LC3     -0.066000
     32 C32         8.6130    1.6200    0.3900 ca        1 LC3     -0.144000
     33 C33         8.0160    2.8540    0.4690 ca        1 LC3     -0.121000
     34 C34         6.6140    2.9820    0.3290 ca        1 LC3     -0.162000
     35 C35         5.8370    1.8690    0.1110 ca        1 LC3     -0.074000
     36 H1         -7.3690    2.2210   -0.9450 ha        1 LC3      0.147500
     37 H2         -7.1040   -1.4510    1.2660 ha        1 LC3      0.147500
     38 H3         -4.8940    2.5590   -0.7000 ha        1 LC3      0.125000
     39 H4         -4.6310   -1.1520    1.5140 ha        1 LC3      0.125000
     40 H8          0.5610    2.0680    1.3690 ha        1 LC3      0.127000
     41 H9          1.8690    0.0850    1.1570 hc        1 LC3      0.032700
     42 H10         1.6260   -1.7030    1.3440 hc        1 LC3      0.032700
     43 H11         1.4560   -1.8510   -1.2240 hc        1 LC3      0.093200
     44 H12         2.0180   -0.1160   -1.2860 hc        1 LC3      0.093200
     45 H13         3.6080   -2.2590    0.2870 h1        1 LC3      0.040700
     46 H14         3.8140   -2.0280   -1.5230 h1        1 LC3      0.040700
     47 H16         5.6700   -2.7570   -0.4480 ha        1 LC3      0.149000
     48 H17         8.1170   -2.9450   -0.1940 ha        1 LC3      0.121000
     49 H18         9.5220   -0.9190    0.1970 ha        1 LC3      0.119000
     50 H19         9.7010    1.5120    0.4990 ha        1 LC3      0.120000
     51 H20         8.6190    3.7570    0.6430 ha        1 LC3      0.117000
     52 H21         6.1560    3.9790    0.3970 ha        1 LC3      0.127000
     53 H22         4.7420    1.9470    0.0010 ha        1 LC3      0.160000
     54 H6         -1.2990    3.7670    1.6370 ha        1 LC3      0.109000
     55 H7         -3.6500    3.0880    1.2110 ha        1 LC3      0.139000
@<TRIPOS>BOND
     1    1    2 ar  
     2    1    3 ar  
     3    1    4 1   
     4    2    5 ar  
     5    2   36 1   
     6    3    6 ar  
     7    3   37 1   
     8    4    7 1   
     9    4    8 1   
    10    5    9 ar  
    11    5   38 1   
    12    6    9 ar  
    13    6   39 1   
    14    9   12 1   
    15   10   11 1   
    16   10   15 2   
    17   10   54 1   
    18   11   12 2   
    19   11   55 1   
    20   12   13 1   
    21   13   14 1   
    22   13   16 1   
    23   14   15 1   
    24   14   18 2   
    25   15   40 1   
    26   16   17 2   
    27   17   18 1   
    28   17   19 1   
    29   18   20 1   
    30   19   24 1   
    31   19   25 1   
    32   20   21 1   
    33   20   41 1   
    34   20   42 1   
    35   21   22 1   
    36   21   43 1   
    37   21   44 1   
    38   22   23 1   
    39   22   45 1   
    40   22   46 1   
    41   23   26 1   
    42   26   27 ar  
    43   26   31 ar  
    44   27   28 ar  
    45   27   47 1   
    46   28   29 ar  
    47   28   48 1   
    48   29   30 ar  
    49   29   49 1   
    50   30   31 ar  
    51   30   32 ar  
    52   31   35 ar  
    53   32   33 ar  
    54   32   50 1   
    55   33   34 ar  
    56   33   51 1   
    57   34   35 ar  
    58   34   52 1   
    59   35   53 1   
@<TRIPOS>SUBSTRUCTURE
     1 LC3         1 TEMP              0 ****  ****    0 ROOT
