@<TRIPOS>MOLECULE
LC3
   55    59     1     0     0
SMALL
bcc


@<TRIPOS>ATOM
      1 C1         -0.3460    0.6650    0.3520 ca        1 LC3     -0.109600
      2 C2          0.9310    0.2420   -0.0340 ca        1 LC3     -0.122500
      3 C3         -0.6930    0.6130    1.7050 ca        1 LC3     -0.122500
      4 C4         -1.3200    1.1890   -0.6890 c         1 LC3      0.905200
      5 C5          1.8530   -0.1840    0.9160 ca        1 LC3     -0.121500
      6 C6          0.2230    0.1820    2.6660 ca        1 LC3     -0.121500
      7 O7         -2.4350    1.6420   -0.2990 o         1 LC3     -0.840300
      8 O8         -0.9650    1.1640   -1.9050 o         1 LC3     -0.840300
      9 C9          1.5140   -0.1960    2.2800 ca        1 LC3     -0.082000
     10 C10         4.8970   -0.2190    3.9770 cc        1 LC3     -0.121000
     11 C11         3.8270    0.0450    3.0850 cc        1 LC3     -0.237000
     12 C12         2.5680   -0.5210    3.2530 cd        1 LC3      0.108700
     13 N13         2.3530   -1.3680    4.3390 na        1 LC3      0.183000
     14 C14         3.4360   -1.6430    5.2490 cd        1 LC3     -0.056300
     15 C15         4.7120   -1.0510    5.0460 cd        1 LC3     -0.144000
     16 N16         1.2280   -2.0240    4.7050 nd        1 LC3     -0.545100
     17 C17         1.5250   -2.7270    5.8300 cc        1 LC3      0.365600
     18 C18         2.9110   -2.5220    6.2140 cc        1 LC3     -0.301800
     19 C19         0.5520   -3.6060    6.6100 c         1 LC3      0.858300
     20 C20         3.5950   -3.1070    7.3710 c3        1 LC3      0.025800
     21 C21         3.7620   -4.6080    7.2150 c3        1 LC3     -0.109400
     22 C22         4.1600   -5.2820    8.5110 c3        1 LC3      0.134400
     23 O23         5.5850   -5.0970    8.6580 os        1 LC3     -0.331900
     24 O24         0.6780   -4.8570    6.4840 o         1 LC3     -0.819800
     25 O25        -0.2710   -3.0380    7.3710 o         1 LC3     -0.819800
     26 C26         6.1570   -5.6390    9.7770 ca        1 LC3      0.176100
     27 C27         5.4720   -6.3400   10.7570 ca        1 LC3     -0.242000
     28 C28         6.1720   -6.8580   11.8670 ca        1 LC3     -0.077000
     29 C29         7.5280   -6.6830   11.9960 ca        1 LC3     -0.188000
     30 C30         8.2560   -5.9690   11.0070 ca        1 LC3     -0.005000
     31 C31         7.5770   -5.4360    9.8830 ca        1 LC3     -0.066000
     32 C32         9.6600   -5.7710   11.1160 ca        1 LC3     -0.144000
     33 C33        10.3460   -5.0750   10.1500 ca        1 LC3     -0.121000
     34 C34         9.6640   -4.5440    9.0300 ca        1 LC3     -0.162000
     35 C35         8.3070   -4.7200    8.8990 ca        1 LC3     -0.074000
     36 H1          1.1850    0.2600   -1.1050 ha        1 LC3      0.147500
     37 H2         -1.7080    0.9260    1.9980 ha        1 LC3      0.147500
     38 H3          2.8540   -0.5140    0.6030 ha        1 LC3      0.125000
     39 H4         -0.0720    0.1450    3.7250 ha        1 LC3      0.125000
     40 H8          5.5070   -1.2880    5.7640 ha        1 LC3      0.127000
     41 H9          4.6010   -2.6290    7.5150 hc        1 LC3      0.032700
     42 H10         2.9850   -2.8980    8.2940 hc        1 LC3      0.032700
     43 H11         4.5220   -4.8280    6.4230 hc        1 LC3      0.093200
     44 H12         2.7700   -5.0460    6.8870 hc        1 LC3      0.093200
     45 H13         3.9490   -6.3830    8.4700 h1        1 LC3      0.040700
     46 H14         3.6390   -4.8260    9.3920 h1        1 LC3      0.040700
     47 H16         4.3870   -6.4990   10.6900 ha        1 LC3      0.149000
     48 H17         5.6050   -7.4090   12.6320 ha        1 LC3      0.121000
     49 H18         8.0700   -7.0880   12.8610 ha        1 LC3      0.119000
     50 H19        10.1820   -6.1860   11.9900 ha        1 LC3      0.120000
     51 H20        11.4310   -4.9220   10.2360 ha        1 LC3      0.117000
     52 H21        10.2320   -3.9890    8.2700 ha        1 LC3      0.127000
     53 H22         7.7570   -4.3120    8.0350 ha        1 LC3      0.160000
     54 H6          5.8680    0.2580    3.7900 ha        1 LC3      0.109000
     55 H7          3.9880    0.7230    2.2360 ha        1 LC3      0.139000
@<TRIPOS>BOND
     1    1    2 ar  
     2    1    3 ar  
     3    1    4 1   
     4    2    5 ar  
     5    2   36 1   
     6    3    6 ar  
     7    3   37 1   
     8    4    7 1   
     9    4    8 1   
    10    5    9 ar  
    11    5   38 1   
    12    6    9 ar  
    13    6   39 1   
    14    9   12 1   
    15   10   11 1   
    16   10   15 2   
    17   10   54 1   
    18   11   12 2   
    19   11   55 1   
    20   12   13 1   
    21   13   14 1   
    22   13   16 1   
    23   14   15 1   
    24   14   18 2   
    25   15   40 1   
    26   16   17 2   
    27   17   18 1   
    28   17   19 1   
    29   18   20 1   
    30   19   24 1   
    31   19   25 1   
    32   20   21 1   
    33   20   41 1   
    34   20   42 1   
    35   21   22 1   
    36   21   43 1   
    37   21   44 1   
    38   22   23 1   
    39   22   45 1   
    40   22   46 1   
    41   23   26 1   
    42   26   27 ar  
    43   26   31 ar  
    44   27   28 ar  
    45   27   47 1   
    46   28   29 ar  
    47   28   48 1   
    48   29   30 ar  
    49   29   49 1   
    50   30   31 ar  
    51   30   32 ar  
    52   31   35 ar  
    53   32   33 ar  
    54   32   50 1   
    55   33   34 ar  
    56   33   51 1   
    57   34   35 ar  
    58   34   52 1   
    59   35   53 1   
@<TRIPOS>SUBSTRUCTURE
     1 LC3         1 TEMP              0 ****  ****    0 ROOT
