@<TRIPOS>MOLECULE
LC4
   44    44     1     0     0
SMALL
bcc


@<TRIPOS>ATOM
      1 O1          0.3860    1.1080    0.1200 o         1 LC4     -0.852800
      2 C2          1.2650    0.2000    0.0480 c         1 LC4      0.907600
      3 O17         1.5950   -0.5390    1.0190 o         1 LC4     -0.852800
      4 C3          1.9960   -0.0090   -1.2900 c3        1 LC4     -0.194400
      5 C4          1.0280   -0.0250   -2.4480 c3        1 LC4     -0.065400
      6 C5          1.7430   -0.0330   -3.7830 c3        1 LC4     -0.078400
      7 C6          0.7630   -0.0660   -4.9360 c3        1 LC4     -0.079400
      8 C7          1.4780   -0.0540   -6.2710 c3        1 LC4     -0.078400
      9 C18         0.4970   -0.0850   -7.4240 c3        1 LC4     -0.079400
     10 C19         1.2150   -0.0620   -8.7560 c3        1 LC4     -0.079400
     11 C8          0.2360   -0.0890   -9.9100 c3        1 LC4     -0.078400
     12 C9          0.9580   -0.0540  -11.2400 c3        1 LC4     -0.079400
     13 C10        -0.0220   -0.0770  -12.3940 c3        1 LC4     -0.101400
     14 C11         0.7420   -0.0280  -13.7190 c3        1 LC4      0.037300
     15 N12        -0.0820   -0.0230  -14.8910 na        1 LC4     -0.202900
     16 C13        -0.7750    1.0710  -15.4170 cc        1 LC4     -0.255600
     17 C14        -1.4760    0.5890  -16.5380 cd        1 LC4      0.283200
     18 N15        -1.2360   -0.7740  -16.7030 nd        1 LC4     -0.673000
     19 C16        -0.4030   -1.1250  -15.7000 cc        1 LC4      0.384400
     20 H3          2.7270    0.8310   -1.4150 hc        1 LC4      0.018700
     21 H3A         2.5740   -0.9650   -1.2520 hc        1 LC4      0.018700
     22 H4          0.3690   -0.9290   -2.3710 hc        1 LC4      0.044200
     23 H4A         0.3620    0.8760   -2.3710 hc        1 LC4      0.044200
     24 H5          2.3900    0.8800   -3.8670 hc        1 LC4      0.025700
     25 H5A         2.4220   -0.9240   -3.8410 hc        1 LC4      0.025700
     26 H6          0.1250   -0.9850   -4.8590 hc        1 LC4      0.036700
     27 H6A         0.0770    0.8190   -4.8690 hc        1 LC4      0.036700
     28 H7          2.1170    0.8650   -6.3460 hc        1 LC4      0.034200
     29 H7A         2.1640   -0.9390   -6.3370 hc        1 LC4      0.034200
     30 H18        -0.1940    0.7960   -7.3530 hc        1 LC4      0.039200
     31 H18A       -0.1360   -1.0080   -7.3530 hc        1 LC4      0.039200
     32 H19         1.8500    0.8600   -8.8240 hc        1 LC4      0.037700
     33 H19A        1.9050   -0.9440   -8.8270 hc        1 LC4      0.037700
     34 H8         -0.4590    0.7880   -9.8350 hc        1 LC4      0.041700
     35 H8A        -0.3940   -1.0160   -9.8480 hc        1 LC4      0.041700
     36 H9          1.6510   -0.9330  -11.3140 hc        1 LC4      0.040700
     37 H9A         1.5900    0.8710  -11.2980 hc        1 LC4      0.040700
     38 H10        -0.7170    0.8000  -12.3200 hc        1 LC4      0.054700
     39 H10A       -0.6470   -1.0050  -12.3430 hc        1 LC4      0.054700
     40 H11         1.3800    0.9040  -13.7350 h1        1 LC4      0.059200
     41 H11A        1.4280   -0.9210  -13.7780 h1        1 LC4      0.059200
     42 H13        -0.7140    2.0640  -14.9770 h4        1 LC4      0.176000
     43 H14        -2.1240    1.1400  -17.2170 h4        1 LC4      0.038100
     44 H16        -0.0020   -2.1270  -15.5180 h5        1 LC4      0.058100
@<TRIPOS>BOND
     1    1    2 1   
     2    2    3 1   
     3    2    4 1   
     4    4    5 1   
     5    4   20 1   
     6    4   21 1   
     7    5    6 1   
     8    5   22 1   
     9    5   23 1   
    10    6    7 1   
    11    6   24 1   
    12    6   25 1   
    13    7    8 1   
    14    7   26 1   
    15    7   27 1   
    16    8    9 1   
    17    8   28 1   
    18    8   29 1   
    19    9   10 1   
    20    9   30 1   
    21    9   31 1   
    22   10   11 1   
    23   10   32 1   
    24   10   33 1   
    25   11   12 1   
    26   11   34 1   
    27   11   35 1   
    28   12   13 1   
    29   12   36 1   
    30   12   37 1   
    31   13   14 1   
    32   13   38 1   
    33   13   39 1   
    34   14   15 1   
    35   14   40 1   
    36   14   41 1   
    37   15   16 1   
    38   15   19 1   
    39   16   17 2   
    40   16   42 1   
    41   17   18 1   
    42   17   43 1   
    43   18   19 2   
    44   19   44 1   
@<TRIPOS>SUBSTRUCTURE
     1 LC4         1 TEMP              0 ****  ****    0 ROOT
