@<TRIPOS>MOLECULE
LC4
   44    44     1     0     0
SMALL
bcc


@<TRIPOS>ATOM
      1 O1         -8.2630   -1.1910   -1.1050 o         1 LC4     -0.852800
      2 C2         -8.2970   -0.3150   -0.1940 c         1 LC4      0.907600
      3 O17        -9.2980   -0.1130    0.5520 o         1 LC4     -0.852800
      4 C3         -7.0610    0.5790    0.0120 c3        1 LC4     -0.194400
      5 C4         -5.7900   -0.2350    0.0180 c3        1 LC4     -0.065400
      6 C5         -4.5560    0.6430    0.0230 c3        1 LC4     -0.078400
      7 C6         -3.2880   -0.1830    0.0460 c3        1 LC4     -0.079400
      8 C7         -2.0550    0.6950    0.0300 c3        1 LC4     -0.078400
      9 C18        -0.7870   -0.1330    0.0520 c3        1 LC4     -0.079400
     10 C19         0.4440    0.7480    0.0250 c3        1 LC4     -0.079400
     11 C8          1.7130   -0.0780    0.0430 c3        1 LC4     -0.078400
     12 C9          2.9410    0.8060    0.0020 c3        1 LC4     -0.079400
     13 C10         4.2090   -0.0190    0.0170 c3        1 LC4     -0.101400
     14 C11         5.4270    0.9060   -0.0380 c3        1 LC4      0.037300
     15 N12         6.6940    0.2360   -0.0500 na        1 LC4     -0.202900
     16 C13         7.2950   -0.3850   -1.1480 cc        1 LC4     -0.255600
     17 C14         8.4990   -0.9390   -0.6740 cd        1 LC4      0.283200
     18 N15         8.6410   -0.6790    0.6890 nd        1 LC4     -0.673000
     19 C16         7.5430    0.0210    1.0460 cc        1 LC4      0.384400
     20 H3         -7.0340    1.3230   -0.8240 hc        1 LC4      0.018700
     21 H3A        -7.1670    1.1440    0.9720 hc        1 LC4      0.018700
     22 H4         -5.7780   -0.9020    0.9200 hc        1 LC4      0.044200
     23 H4A        -5.7870   -0.9020   -0.8850 hc        1 LC4      0.044200
     24 H5         -4.5600    1.2990   -0.8880 hc        1 LC4      0.025700
     25 H5A        -4.5790    1.3210    0.9160 hc        1 LC4      0.025700
     26 H6         -3.2780   -0.8300    0.9630 hc        1 LC4      0.036700
     27 H6A        -3.2730   -0.8690   -0.8420 hc        1 LC4      0.036700
     28 H7         -2.0660    1.3410   -0.8870 hc        1 LC4      0.034200
     29 H7A        -2.0710    1.3810    0.9180 hc        1 LC4      0.034200
     30 H18        -0.7720   -0.7730    0.9740 hc        1 LC4      0.039200
     31 H18A       -0.7750   -0.8250   -0.8310 hc        1 LC4      0.039200
     32 H19         0.4260    1.3890   -0.8960 hc        1 LC4      0.037700
     33 H19A        0.4320    1.4390    0.9080 hc        1 LC4      0.037700
     34 H8          1.7360   -0.7120    0.9680 hc        1 LC4      0.041700
     35 H8A         1.7210   -0.7750   -0.8360 hc        1 LC4      0.041700
     36 H9          2.9130    1.4420   -0.9220 hc        1 LC4      0.040700
     37 H9A         2.9320    1.5020    0.8830 hc        1 LC4      0.040700
     38 H10         4.2430   -0.6480    0.9450 hc        1 LC4      0.054700
     39 H10A        4.2180   -0.7180   -0.8600 hc        1 LC4      0.054700
     40 H11         5.3570    1.5410   -0.9680 h1        1 LC4      0.059200
     41 H11A        5.4040    1.5920    0.8570 h1        1 LC4      0.059200
     42 H13         6.8450   -0.3820   -2.1380 h4        1 LC4      0.176000
     43 H14         9.2510   -1.4960   -1.2290 h4        1 LC4      0.038100
     44 H16         7.3190    0.3960    2.0490 h5        1 LC4      0.058100
@<TRIPOS>BOND
     1    1    2 1   
     2    2    3 1   
     3    2    4 1   
     4    4    5 1   
     5    4   20 1   
     6    4   21 1   
     7    5    6 1   
     8    5   22 1   
     9    5   23 1   
    10    6    7 1   
    11    6   24 1   
    12    6   25 1   
    13    7    8 1   
    14    7   26 1   
    15    7   27 1   
    16    8    9 1   
    17    8   28 1   
    18    8   29 1   
    19    9   10 1   
    20    9   30 1   
    21    9   31 1   
    22   10   11 1   
    23   10   32 1   
    24   10   33 1   
    25   11   12 1   
    26   11   34 1   
    27   11   35 1   
    28   12   13 1   
    29   12   36 1   
    30   12   37 1   
    31   13   14 1   
    32   13   38 1   
    33   13   39 1   
    34   14   15 1   
    35   14   40 1   
    36   14   41 1   
    37   15   16 1   
    38   15   19 1   
    39   16   17 2   
    40   16   42 1   
    41   17   18 1   
    42   17   43 1   
    43   18   19 2   
    44   19   44 1   
@<TRIPOS>SUBSTRUCTURE
     1 LC4         1 TEMP              0 ****  ****    0 ROOT
