@<TRIPOS>MOLECULE
LC4
   44    44     1     0     0
SMALL
bcc


@<TRIPOS>ATOM
      1 O1          0.3970    1.1170    0.1200 o         1 LC4     -0.852800
      2 C2          1.2620    0.1970    0.0480 c         1 LC4      0.907600
      3 O17         1.5810   -0.5470    1.0200 o         1 LC4     -0.852800
      4 C3          1.9920   -0.0230   -1.2900 c3        1 LC4     -0.194400
      5 C4          1.0240   -0.0260   -2.4480 c3        1 LC4     -0.065400
      6 C5          1.7400   -0.0440   -3.7820 c3        1 LC4     -0.078400
      7 C6          0.7610   -0.0650   -4.9360 c3        1 LC4     -0.079400
      8 C7          1.4760   -0.0630   -6.2700 c3        1 LC4     -0.078400
      9 C18         0.4960   -0.0820   -7.4240 c3        1 LC4     -0.079400
     10 C19         1.2140   -0.0680   -8.7560 c3        1 LC4     -0.079400
     11 C8          0.2360   -0.0850   -9.9110 c3        1 LC4     -0.078400
     12 C9          0.9590   -0.0570  -11.2400 c3        1 LC4     -0.079400
     13 C10        -0.0200   -0.0700  -12.3950 c3        1 LC4     -0.101400
     14 C11         0.7450   -0.0280  -13.7190 c3        1 LC4      0.037300
     15 N12        -0.0790   -0.0170  -14.8920 na        1 LC4     -0.202900
     16 C13        -0.7630    1.0840  -15.4160 cc        1 LC4     -0.255600
     17 C14        -1.4670    0.6090  -16.5380 cd        1 LC4      0.283200
     18 N15        -1.2370   -0.7560  -16.7050 nd        1 LC4     -0.673000
     19 C16        -0.4070   -1.1150  -15.7020 cc        1 LC4      0.384400
     20 H3          2.7340    0.8060   -1.4140 hc        1 LC4      0.018700
     21 H3A         2.5570   -0.9870   -1.2500 hc        1 LC4      0.018700
     22 H4          0.3530   -0.9220   -2.3710 hc        1 LC4      0.044200
     23 H4A         0.3700    0.8840   -2.3720 hc        1 LC4      0.044200
     24 H5          2.3990    0.8600   -3.8660 hc        1 LC4      0.025700
     25 H5A         2.4070   -0.9440   -3.8400 hc        1 LC4      0.025700
     26 H6          0.1100   -0.9750   -4.8600 hc        1 LC4      0.036700
     27 H6A         0.0860    0.8290   -4.8690 hc        1 LC4      0.036700
     28 H7          2.1260    0.8490   -6.3450 hc        1 LC4      0.034200
     29 H7A         2.1520   -0.9560   -6.3360 hc        1 LC4      0.034200
     30 H18        -0.1840    0.8070   -7.3530 hc        1 LC4      0.039200
     31 H18A       -0.1490   -0.9980   -7.3530 hc        1 LC4      0.039200
     32 H19         1.8600    0.8470   -8.8240 hc        1 LC4      0.037700
     33 H19A        1.8940   -0.9580   -8.8260 hc        1 LC4      0.037700
     34 H8         -0.4500    0.8000   -9.8360 hc        1 LC4      0.041700
     35 H8A        -0.4040   -1.0040   -9.8480 hc        1 LC4      0.041700
     36 H9          1.6430   -0.9440  -11.3140 hc        1 LC4      0.040700
     37 H9A         1.6010    0.8620  -11.2980 hc        1 LC4      0.040700
     38 H10        -0.7070    0.8130  -12.3200 hc        1 LC4      0.054700
     39 H10A       -0.6550   -0.9930  -12.3440 hc        1 LC4      0.054700
     40 H11         1.3910    0.8970  -13.7350 h1        1 LC4      0.059200
     41 H11A        1.4220   -0.9290  -13.7780 h1        1 LC4      0.059200
     42 H13        -0.6960    2.0750  -14.9750 h4        1 LC4      0.176000
     43 H14        -2.1100    1.1650  -17.2170 h4        1 LC4      0.038100
     44 H16        -0.0130   -2.1190  -15.5210 h5        1 LC4      0.058100
@<TRIPOS>BOND
     1    1    2 1   
     2    2    3 1   
     3    2    4 1   
     4    4    5 1   
     5    4   20 1   
     6    4   21 1   
     7    5    6 1   
     8    5   22 1   
     9    5   23 1   
    10    6    7 1   
    11    6   24 1   
    12    6   25 1   
    13    7    8 1   
    14    7   26 1   
    15    7   27 1   
    16    8    9 1   
    17    8   28 1   
    18    8   29 1   
    19    9   10 1   
    20    9   30 1   
    21    9   31 1   
    22   10   11 1   
    23   10   32 1   
    24   10   33 1   
    25   11   12 1   
    26   11   34 1   
    27   11   35 1   
    28   12   13 1   
    29   12   36 1   
    30   12   37 1   
    31   13   14 1   
    32   13   38 1   
    33   13   39 1   
    34   14   15 1   
    35   14   40 1   
    36   14   41 1   
    37   15   16 1   
    38   15   19 1   
    39   16   17 2   
    40   16   42 1   
    41   17   18 1   
    42   17   43 1   
    43   18   19 2   
    44   19   44 1   
@<TRIPOS>SUBSTRUCTURE
     1 LC4         1 TEMP              0 ****  ****    0 ROOT
