@<TRIPOS>MOLECULE
LCA
   36    39     1     0     0
SMALL
bcc


@<TRIPOS>ATOM
      1 P           0.3120   -0.3000   -4.8260 p5        1 LCA      1.430800
      2 O1P         0.5640   -1.5570   -5.5600 o         1 LCA     -0.848500
      3 O5'         0.4360   -0.6040   -3.2110 os        1 LCA     -0.585200
      4 C5'         0.3770    0.4890   -2.3430 c3        1 LCA      0.233400
      5 C3'        -1.0930    1.5890   -0.3820 c3        1 LCA      0.420800
      6 C6'        -1.9940   -0.3180   -1.5590 c3        1 LCA      0.133400
      7 N9          0.0090   -0.0250    2.1010 na        1 LCA     -0.218000
      8 C8          1.1960    0.7260    2.0250 cc        1 LCA      0.457700
      9 C4         -0.1380   -0.3800    3.4430 ca        1 LCA      0.429800
     10 N7          1.8170    0.8970    3.2120 nd        1 LCA     -0.611100
     11 C5          1.0120    0.2210    4.1350 ca        1 LCA     -0.204200
     12 C6          1.1120    0.0120    5.5440 ca        1 LCA      0.687200
     13 C2'        -1.9470    0.6040    0.5700 c3        1 LCA     -0.008900
     14 N6          2.1300    0.6420    6.2690 nh        1 LCA     -0.926500
     15 C4'        -0.6210    0.2890   -1.2300 c3        1 LCA     -0.023200
     16 C1'        -0.8440   -0.4290    0.9850 c3        1 LCA      0.205800
     17 C2         -0.8440   -1.2510    5.4130 ca        1 LCA      0.635900
     18 N1          0.1740   -0.7550    6.1780 nb        1 LCA     -0.804000
     19 O4'        -0.0450   -0.5820   -0.2000 os        1 LCA     -0.423600
     20 O2P         0.9940    0.9880   -5.0880 o         1 LCA     -0.848500
     21 N3         -1.0850   -1.1270    4.0940 nb        1 LCA     -0.695000
     22 O3'        -1.7480    2.5100   -0.9990 o         1 LCA     -0.800500
     23 OXT        -1.2790    0.0670   -4.8870 oh        1 LCA     -0.786400
     24 O2'        -2.7690   -0.1420   -0.3400 os        1 LCA     -0.440600
     25 H5'1        0.0950    1.4240   -2.9050 h1        1 LCA      0.033700
     26 H5'2        1.3940    0.6290   -1.8740 h1        1 LCA      0.033700
     27 H3'        -0.1910    1.9380    0.2120 h1        1 LCA     -0.087300
     28 H6'1       -2.4980    0.2460   -2.3790 h1        1 LCA      0.052200
     29 H6'2       -1.9580   -1.4130   -1.7650 h1        1 LCA      0.052200
     30 H8          1.5410    1.1110    1.0520 h5        1 LCA      0.104800
     31 H2'1       -2.5780    1.0260    1.3640 h1        1 LCA      0.072700
     32 H61         2.3700    0.2200    7.1370 hn        1 LCA      0.401300
     33 H62         2.9090    0.9140    5.7120 hn        1 LCA      0.401300
     34 H1'        -1.2620   -1.4420    1.2450 h2        1 LCA      0.069700
     35 H2         -1.5850   -1.8550    5.9760 h5        1 LCA      0.028100
     36 HB         -1.4670    0.9360   -4.5520 ho        1 LCA      0.428000
@<TRIPOS>BOND
     1    1    2 1   
     2    1    3 1   
     3    1   20 1   
     4    1   23 1   
     5    3    4 1   
     6    4   15 1   
     7    4   25 1   
     8    4   26 1   
     9    5   13 1   
    10    5   15 1   
    11    5   22 1   
    12    5   27 1   
    13    6   15 1   
    14    6   24 1   
    15    6   28 1   
    16    6   29 1   
    17    7    8 1   
    18    7    9 1   
    19    7   16 1   
    20    8   10 2   
    21    8   30 1   
    22    9   11 ar  
    23    9   21 ar  
    24   10   11 1   
    25   11   12 ar  
    26   12   14 1   
    27   12   18 ar  
    28   13   16 1   
    29   13   24 1   
    30   13   31 1   
    31   14   32 1   
    32   14   33 1   
    33   15   19 1   
    34   16   19 1   
    35   16   34 1   
    36   17   18 ar  
    37   17   21 ar  
    38   17   35 1   
    39   23   36 1   
@<TRIPOS>SUBSTRUCTURE
     1 LCA         1 TEMP              0 ****  ****    0 ROOT
