@<TRIPOS>MOLECULE
LCA
   36    33     1     0     0
SMALL
bcc


@<TRIPOS>ATOM
      1 P           3.3590   -1.2710   -4.1600 p3        1 LCA      2.537000
      2 O1P         2.7970   -0.1350   -4.9180 os        1 LCA     -1.189000
      3 O5'         2.8120   -1.2350   -2.6850 os        1 LCA     -0.747000
      4 C5'         1.4160   -1.4670   -2.4740 c3        1 LCA      0.083000
      5 C3'        -0.3670   -1.5120   -0.6320 c3        1 LCA      0.220000
      6 C6'         1.4650   -2.5150   -0.2240 c3        1 LCA     -0.017000
      7 N9         -0.4710    0.9260    0.7190 n2        1 LCA     -0.160000
      8 C8         -0.8840    1.7370   -0.2870 c1        1 LCA      0.002000
      9 C4         -0.9780    1.3970    1.8640 c1        1 LCA     -0.087000
     10 N7         -1.6450    2.7060    0.2470 n2        1 LCA     -0.160000
     11 C5         -1.7080    2.5020    1.5740 c1        1 LCA     -0.087000
     12 C6         -2.3520    3.1820    2.5830 c1        1 LCA      0.164000
     13 C2'        -0.0640   -1.4070    0.8860 c3        1 LCA     -0.121000
     14 N6         -3.3300    4.1850    2.6200 n3        1 LCA     -0.323000
     15 C4'         1.1110   -1.4070   -0.9790 c3        1 LCA     -0.095000
     16 C1'         0.5710   -0.1900    0.7670 c2        1 LCA      0.115000
     17 C2         -1.5220    1.6440    4.1350 c1        1 LCA     -0.028000
     18 N1         -2.2550    2.7530    3.8450 n1        1 LCA     -0.278000
     19 O4'         1.2770   -0.1930   -0.3710 os        1 LCA     -0.280000
     20 O2P         2.9440   -2.5810   -4.8230 o         1 LCA     -0.982500
     21 N3         -0.8830    0.9680    3.1390 n1        1 LCA     -0.168000
     22 O3'        -0.8810   -2.6690   -0.9650 oh        1 LCA     -0.640000
     23 OXT         4.8290   -1.1720   -4.1460 o         1 LCA     -0.982500
     24 O2'         0.7430   -2.5030    0.9050 os        1 LCA     -0.296000
     25 H5'1        1.1690   -2.3710   -2.8310 h1        1 LCA      0.072500
     26 H5'2        0.8940   -0.7730   -2.9430 h1        1 LCA      0.072500
     27 H3'        -0.8770   -0.7590   -0.9640 h1        1 LCA     -0.048000
     28 H6'1        1.2720   -3.3410   -0.7320 h1        1 LCA      0.091500
     29 H6'2        2.4010   -2.4780   -0.0090 h1        1 LCA      0.091500
     30 H8         -0.6950    1.6080   -1.2760 DU        1 LCA      0.234000
     31 H2'1       -0.8760   -1.4360    1.4640 h1        1 LCA      0.112000
     32 H61        -3.7610    4.4550    1.8190 hn        1 LCA      0.195000
     33 H62        -3.5300    4.6240    3.4360 hn        1 LCA      0.195000
     34 H1'         1.1850   -0.0480    1.5480 h4        1 LCA      0.109000
     35 H2         -1.4560    1.3450    5.0200 ha        1 LCA      0.165000
     36 HB         -1.7080   -2.5700   -1.1520 ho        1 LCA      0.228000
@<TRIPOS>BOND
     1    1    3 1   
     2    1   20 1   
     3    1   23 1   
     4    3    4 1   
     5    4   15 1   
     6    4   25 1   
     7    4   26 1   
     8    5   13 1   
     9    5   15 1   
    10    5   22 1   
    11    5   27 1   
    12    6   15 1   
    13    6   24 1   
    14    6   28 1   
    15    6   29 1   
    16    7    8 1   
    17    7    9 1   
    18    8   10 1   
    19    9   11 1   
    20   10   11 1   
    21   12   14 1   
    22   12   18 1   
    23   13   16 1   
    24   13   24 1   
    25   13   31 1   
    26   14   32 1   
    27   14   33 1   
    28   15   19 1   
    29   16   19 1   
    30   16   34 1   
    31   17   21 1   
    32   17   35 1   
    33   22   36 1   
@<TRIPOS>SUBSTRUCTURE
     1 LCA         1 TEMP              0 ****  ****    0 ROOT
