@<TRIPOS>MOLECULE
LCC
   37    39     1     0     0
SMALL
bcc


@<TRIPOS>ATOM
      1 O5'         1.0410   -0.1050   -2.6660 os        1 LCC     -0.588200
      2 C5'         0.2470   -0.9760   -1.9330 c3        1 LCC      0.237400
      3 C4'        -0.6150   -0.2760   -0.8950 c3        1 LCC      0.061800
      4 O4'        -0.6840   -1.0980    0.2990 os        1 LCC     -0.429600
      5 C1'        -1.3030   -0.2700    1.3480 c3        1 LCC      0.288500
      6 N1         -0.4980   -0.2130    2.5460 n         1 LCC     -0.330400
      7 C6          0.5880    0.6020    2.5960 c1        1 LCC     -0.086900
      8 C5          1.3760    0.6100    3.7680 ce        1 LCC     -0.541900
      9 C5M         2.5370    1.5110    3.8280 c3        1 LCC      0.030100
     10 C4          1.0250   -0.2600    4.8430 ce        1 LCC      0.681500
     11 N4          1.7980   -0.2450    6.0370 nh        1 LCC     -0.885800
     12 N3         -0.0500   -1.0900    4.7970 nf        1 LCC     -0.803100
     13 C2         -0.8510   -1.0660    3.6570 c         1 LCC      0.754500
     14 O2         -1.8960   -1.7720    3.5870 o         1 LCC     -0.699100
     15 C3'        -0.2470    1.1300   -0.2960 c3        1 LCC      0.119100
     16 C2'        -1.5090    1.1090    0.6290 c3        1 LCC      0.072100
     17 O2'        -2.5950    0.9020   -0.3040 os        1 LCC     -0.457600
     18 O3'        -0.2160    2.2070   -1.1870 oh        1 LCC     -0.587800
     19 C6'        -2.1010   -0.0360   -1.2970 c3        1 LCC      0.070400
     20 P           0.6080    0.2340   -4.2320 p5        1 LCC      1.434800
     21 O1P         1.5150   -0.4470   -5.1750 o         1 LCC     -0.846000
     22 O2P         1.0160    1.8050   -4.0860 oh        1 LCC     -0.785400
     23 OXT        -0.8680    0.1340   -4.2700 o         1 LCC     -0.846000
     24 H5'1       -0.4330   -1.5510   -2.6240 h1        1 LCC      0.033200
     25 H5'2        0.9310   -1.6900   -1.3900 h1        1 LCC      0.033200
     26 H1'        -2.2860   -0.7720    1.5790 h2        1 LCC      0.094700
     27 H6          0.9660    2.1200   -3.1880 ho        1 LCC      0.446000
     28 H5M1        3.4950    0.9400    3.9480 hc        1 LCC     -0.000633
     29 H5M2        2.6090    2.1090    2.8850 hc        1 LCC     -0.000633
     30 H5M3        2.4620    2.2220    4.6900 hc        1 LCC     -0.000633
     31 H41         1.6760   -1.0540    6.6090 hn        1 LCC      0.360800
     32 H42         2.7620   -0.0830    5.8350 hn        1 LCC      0.360800
     33 H3'         0.7150    1.1410    0.2790 h1        1 LCC      0.158700
     34 H2'1       -1.7360    1.9860    1.2560 h1        1 LCC      0.100700
     35 H3T        -1.0170    2.1650   -1.7280 ho        1 LCC      0.405000
     36 H6'1       -2.2120    0.4270   -2.3080 h1        1 LCC      0.073200
     37 H6'2       -2.7050   -0.9690   -1.2090 h1        1 LCC      0.073200
@<TRIPOS>BOND
     1    1    2 1   
     2    1   20 1   
     3    2    3 1   
     4    2   24 1   
     5    2   25 1   
     6    3    4 1   
     7    3   15 1   
     8    3   19 1   
     9    4    5 1   
    10    5    6 1   
    11    5   16 1   
    12    5   26 1   
    13    6    7 2   
    14    6   13 1   
    15    7    8 2   
    16    8    9 1   
    17    8   10 1   
    18    9   28 1   
    19    9   29 1   
    20    9   30 1   
    21   10   11 1   
    22   10   12 2   
    23   11   31 1   
    24   11   32 1   
    25   12   13 1   
    26   13   14 2   
    27   15   16 1   
    28   15   18 1   
    29   15   33 1   
    30   16   17 1   
    31   16   34 1   
    32   17   19 1   
    33   18   35 1   
    34   19   36 1   
    35   19   37 1   
    36   20   21 1   
    37   20   22 1   
    38   20   23 1   
    39   22   27 1   
@<TRIPOS>SUBSTRUCTURE
     1 LCC         1 TEMP              0 ****  ****    0 ROOT
