@<TRIPOS>MOLECULE
LCC
   37    37     1     0     0
SMALL
bcc


@<TRIPOS>ATOM
      1 O5'        -3.0680    1.5620   -1.7770 os        1 LCC     -0.747000
      2 C5'        -1.6570    1.6190   -1.7560 c3        1 LCC      0.085000
      3 C4'        -1.1630    1.6420   -0.2940 c3        1 LCC     -0.098000
      4 O4'        -1.1800    0.4380    0.3890 os        1 LCC     -0.288000
      5 C1'        -0.3090    0.5180    1.4030 c3        1 LCC      0.102000
      6 N1          0.7540   -0.5350    1.2400 n3        1 LCC     -0.224000
      7 C6          0.4230   -1.7890    0.6550 c2        1 LCC      0.113000
      8 C5          1.3930   -2.9000    0.7010 c1        1 LCC     -0.344000
      9 C5M         0.9860   -4.3010    0.2060 c2        1 LCC     -0.130000
     10 C4          2.7240   -2.6890    1.3040 c2        1 LCC      0.189000
     11 N4          3.6490   -3.7710    1.3880 n3        1 LCC     -0.331000
     12 N3          3.0600   -1.4290    1.8470 n1        1 LCC     -0.325000
     13 C2          2.0840   -0.3200    1.8070 c1        1 LCC      0.339000
     14 O2          2.3760    0.7600    2.2740 o         1 LCC     -0.371000
     15 C3'         0.3730    1.8380   -0.1470 c3        1 LCC      0.217000
     16 C2'         0.2830    1.8000    1.3740 c3        1 LCC     -0.113000
     17 O2'        -0.5680    2.8430    1.4540 os        1 LCC     -0.295000
     18 O3'         0.7790    3.0040   -0.6010 oh        1 LCC     -0.642000
     19 C6'        -1.4610    2.7460    0.4330 c3        1 LCC     -0.015000
     20 P          -3.8180    1.7510   -3.1810 p5        1 LCC      1.578500
     21 O1P        -3.1680    0.8690   -4.2230 o         1 LCC     -0.732167
     22 O2P        -5.2680    1.3670   -3.0320 o         1 LCC     -0.732167
     23 OXT        -3.7220    3.1930   -3.6120 o         1 LCC     -0.732167
     24 H5'1       -1.3580    2.4300   -2.2140 h1        1 LCC      0.070000
     25 H5'2       -1.2870    0.8230   -2.2180 h1        1 LCC      0.070000
     26 H1'        -0.7810    0.3870    2.2600 h2        1 LCC      0.120000
     27 H6         -0.4470   -1.9120    0.2080 h4        1 LCC      0.205000
     28 H5M1        0.0590   -4.2730   -0.1410 ha        1 LCC      0.064667
     29 H5M2        1.5930   -4.5820   -0.5080 ha        1 LCC      0.064667
     30 H5M3        1.0380   -4.9380    0.9500 ha        1 LCC      0.064667
     31 H41         4.5250   -3.6110    1.6250 hn        1 LCC      0.185000
     32 H42         3.3630   -4.6270    1.2510 hn        1 LCC      0.185000
     33 H3'         0.8810    1.0870   -0.5080 h1        1 LCC     -0.053000
     34 H2'1        1.1450    1.8980    1.8260 h1        1 LCC      0.115000
     35 H3T         1.5320    2.9000   -1.0430 ho        1 LCC      0.227000
     36 H6'1       -2.3650    2.6680    0.7930 h1        1 LCC      0.089500
     37 H6'2       -1.4000    3.5360   -0.1310 h1        1 LCC      0.089500
@<TRIPOS>BOND
     1    1    2 1   
     2    1   20 1   
     3    2    3 1   
     4    2   24 1   
     5    2   25 1   
     6    3    4 1   
     7    3   15 1   
     8    3   19 1   
     9    4    5 1   
    10    5    6 1   
    11    5   16 1   
    12    5   26 1   
    13    6    7 1   
    14    6   13 1   
    15    7    8 1   
    16    7   27 1   
    17    8   10 1   
    18    9   28 1   
    19    9   29 1   
    20    9   30 1   
    21   10   11 1   
    22   10   12 1   
    23   11   31 1   
    24   11   32 1   
    25   13   14 1   
    26   15   16 1   
    27   15   18 1   
    28   15   33 1   
    29   16   17 1   
    30   16   34 1   
    31   17   19 1   
    32   18   35 1   
    33   19   36 1   
    34   19   37 1   
    35   20   21 1   
    36   20   22 1   
    37   20   23 1   
@<TRIPOS>SUBSTRUCTURE
     1 LCC         1 TEMP              0 ****  ****    0 ROOT
