@<TRIPOS>MOLECULE
LCD
   41    43     1     0     0
SMALL
bcc


@<TRIPOS>ATOM
      1 CAB        -0.0470    0.1040    0.0360 c3        1 LCD      0.111700
      2 OAO         1.3730    0.0770   -0.0310 os        1 LCD     -0.309900
      3 CAV         2.0320    0.0070    1.1840 ca        1 LCD      0.090100
      4 CAK         1.4070   -0.0320    2.4260 ca        1 LCD     -0.168000
      5 CAU         3.4500   -0.0260    1.1030 ca        1 LCD      0.105100
      6 OAN         3.9740    0.0170   -0.1740 os        1 LCD     -0.307900
      7 CAA         5.3940   -0.0170   -0.2600 c3        1 LCD      0.110700
      8 CAH         4.2010   -0.0960    2.2750 ca        1 LCD     -0.185000
      9 CAG         3.5640   -0.1340    3.5170 ca        1 LCD     -0.096000
     10 CAS         2.1700   -0.1030    3.6100 ca        1 LCD     -0.049800
     11 CAF         1.4590   -0.1400    4.8690 ce        1 LCD     -0.085200
     12 CAX         1.9500   -0.2240    6.1160 cd        1 LCD     -0.025100
     13 CAW         1.1510   -0.2590    7.3960 c         1 LCD      0.594900
     14 OAD        -0.0770   -0.2130    7.4680 o         1 LCD     -0.541100
     15 OAQ         3.3270   -0.2940    6.4100 os        1 LCD     -0.236200
     16 CAY         3.4390   -0.3720    7.8080 ca        1 LCD      0.159100
     17 CAL         4.6310   -0.4560    8.4900 ca        1 LCD     -0.203000
     18 CAZ         2.1640   -0.3540    8.4450 ca        1 LCD     -0.315600
     19 CAJ         2.1010   -0.4240    9.8300 ca        1 LCD      0.019000
     20 CAI         3.2840   -0.5090   10.5590 ca        1 LCD     -0.273000
     21 CAT         4.5370   -0.5260    9.9090 ca        1 LCD      0.228100
     22 OAP         5.7330   -0.6070   10.5450 os        1 LCD     -0.269900
     23 CAM         5.7080   -0.6800   11.9790 c3        1 LCD     -0.019600
     24 CAR         7.1960   -0.7620   12.4480 c         1 LCD      0.928600
     25 OAE         7.7740    0.3280   12.6870 o         1 LCD     -0.811300
     26 OAC         7.6730   -1.9140   12.6080 o         1 LCD     -0.811300
     27 H1         -0.4020    1.0060    0.5920 h1        1 LCD      0.040700
     28 H2         -0.3560    0.1570   -1.0380 h1        1 LCD      0.040700
     29 H3         -0.4400   -0.8270    0.5130 h1        1 LCD      0.040700
     30 H4          0.3100   -0.0070    2.4980 ha        1 LCD      0.138000
     31 H5          5.7950   -0.9650    0.1730 h1        1 LCD      0.042367
     32 H6          5.5870    0.0260   -1.3620 h1        1 LCD      0.042367
     33 H7          5.8430    0.8680    0.2530 h1        1 LCD      0.042367
     34 H8          5.3000   -0.1220    2.2360 ha        1 LCD      0.141000
     35 H9          4.1820   -0.1890    4.4280 ha        1 LCD      0.165000
     36 H10         0.3540   -0.0930    4.7960 ha        1 LCD      0.148000
     37 H11         5.6100   -0.4690    7.9970 ha        1 LCD      0.171000
     38 H12         1.1270   -0.4120   10.3420 ha        1 LCD      0.138000
     39 H13         3.2410   -0.5650   11.6560 ha        1 LCD      0.152000
     40 H14         5.1510   -1.5980   12.2910 h1        1 LCD      0.028200
     41 H15         5.2230    0.2420   12.3860 h1        1 LCD      0.028200
@<TRIPOS>BOND
     1    1    2 1   
     2    1   27 1   
     3    1   28 1   
     4    1   29 1   
     5    2    3 1   
     6    3    4 ar  
     7    3    5 ar  
     8    4   10 ar  
     9    4   30 1   
    10    5    6 1   
    11    5    8 ar  
    12    6    7 1   
    13    7   31 1   
    14    7   32 1   
    15    7   33 1   
    16    8    9 ar  
    17    8   34 1   
    18    9   10 ar  
    19    9   35 1   
    20   10   11 1   
    21   11   12 2   
    22   11   36 1   
    23   12   13 1   
    24   12   15 1   
    25   13   14 2   
    26   13   18 1   
    27   15   16 1   
    28   16   17 ar  
    29   16   18 ar  
    30   17   21 ar  
    31   17   37 1   
    32   18   19 ar  
    33   19   20 ar  
    34   19   38 1   
    35   20   21 ar  
    36   20   39 1   
    37   21   22 1   
    38   22   23 1   
    39   23   24 1   
    40   23   40 1   
    41   23   41 1   
    42   24   25 1   
    43   24   26 1   
@<TRIPOS>SUBSTRUCTURE
     1 LCD         1 TEMP              0 ****  ****    0 ROOT
