@<TRIPOS>MOLECULE
LCD
   41    43     1     0     0
SMALL
bcc


@<TRIPOS>ATOM
      1 CAB        -0.0460    0.1610    0.0390 c3        1 LCD      0.111700
      2 OAO         1.3740    0.1180   -0.0290 os        1 LCD     -0.309900
      3 CAV         2.0320    0.0260    1.1850 ca        1 LCD      0.090100
      4 CAK         1.4070   -0.0270    2.4260 ca        1 LCD     -0.168000
      5 CAU         3.4500   -0.0130    1.1030 ca        1 LCD      0.105100
      6 OAN         3.9750    0.0450   -0.1730 os        1 LCD     -0.307900
      7 CAA         5.3940    0.0070   -0.2590 c3        1 LCD      0.110700
      8 CAH         4.2010   -0.1060    2.2740 ca        1 LCD     -0.185000
      9 CAG         3.5640   -0.1590    3.5150 ca        1 LCD     -0.096000
     10 CAS         2.1700   -0.1200    3.6090 ca        1 LCD     -0.049800
     11 CAF         1.4580   -0.1720    4.8680 ce        1 LCD     -0.085200
     12 CAX         1.9490   -0.2540    6.1140 cd        1 LCD     -0.025100
     13 CAW         1.1500   -0.3050    7.3930 c         1 LCD      0.594900
     14 OAD        -0.0790   -0.2770    7.4640 o         1 LCD     -0.541100
     15 OAQ         3.3270   -0.3060    6.4090 os        1 LCD     -0.236200
     16 CAY         3.4380   -0.3860    7.8080 ca        1 LCD      0.159100
     17 CAL         4.6310   -0.4550    8.4900 ca        1 LCD     -0.203000
     18 CAZ         2.1630   -0.3890    8.4430 ca        1 LCD     -0.315600
     19 CAJ         2.1000   -0.4640    9.8280 ca        1 LCD      0.019000
     20 CAI         3.2840   -0.5350   10.5580 ca        1 LCD     -0.273000
     21 CAT         4.5370   -0.5310    9.9090 ca        1 LCD      0.228100
     22 OAP         5.7340   -0.5970   10.5460 os        1 LCD     -0.269900
     23 CAM         5.7080   -0.6760   11.9790 c3        1 LCD     -0.019600
     24 CAR         7.1970   -0.7410   12.4500 c         1 LCD      0.928600
     25 OAE         7.7520    0.3550   12.7150 o         1 LCD     -0.811300
     26 OAC         7.6970   -1.8860   12.5830 o         1 LCD     -0.811300
     27 H1         -0.3900    1.0580    0.6090 h1        1 LCD      0.040700
     28 H2         -0.3540    0.2340   -1.0340 h1        1 LCD      0.040700
     29 H3         -0.4500   -0.7730    0.5010 h1        1 LCD      0.040700
     30 H4          0.3100    0.0030    2.4980 ha        1 LCD      0.138000
     31 H5          5.7910   -0.9500    0.1600 h1        1 LCD      0.042367
     32 H6          5.5880    0.0660   -1.3600 h1        1 LCD      0.042367
     33 H7          5.8470    0.8820    0.2680 h1        1 LCD      0.042367
     34 H8          5.2990   -0.1380    2.2350 ha        1 LCD      0.141000
     35 H9          4.1810   -0.2310    4.4260 ha        1 LCD      0.165000
     36 H10         0.3520   -0.1400    4.7940 ha        1 LCD      0.148000
     37 H11         5.6110   -0.4520    7.9980 ha        1 LCD      0.171000
     38 H12         1.1250   -0.4680   10.3390 ha        1 LCD      0.138000
     39 H13         3.2400   -0.5950   11.6550 ha        1 LCD      0.152000
     40 H14         5.1630   -1.6030   12.2870 h1        1 LCD      0.028700
     41 H15         5.2110    0.2370   12.3900 h1        1 LCD      0.028700
@<TRIPOS>BOND
     1    1    2 1   
     2    1   27 1   
     3    1   28 1   
     4    1   29 1   
     5    2    3 1   
     6    3    4 ar  
     7    3    5 ar  
     8    4   10 ar  
     9    4   30 1   
    10    5    6 1   
    11    5    8 ar  
    12    6    7 1   
    13    7   31 1   
    14    7   32 1   
    15    7   33 1   
    16    8    9 ar  
    17    8   34 1   
    18    9   10 ar  
    19    9   35 1   
    20   10   11 1   
    21   11   12 2   
    22   11   36 1   
    23   12   13 1   
    24   12   15 1   
    25   13   14 2   
    26   13   18 1   
    27   15   16 1   
    28   16   17 ar  
    29   16   18 ar  
    30   17   21 ar  
    31   17   37 1   
    32   18   19 ar  
    33   19   20 ar  
    34   19   38 1   
    35   20   21 ar  
    36   20   39 1   
    37   21   22 1   
    38   22   23 1   
    39   23   24 1   
    40   23   40 1   
    41   23   41 1   
    42   24   25 1   
    43   24   26 1   
@<TRIPOS>SUBSTRUCTURE
     1 LCD         1 TEMP              0 ****  ****    0 ROOT
