@<TRIPOS>MOLECULE
LCE
   22    23     1     0     0
SMALL
bcc


@<TRIPOS>ATOM
      1 CAA         0.4190    0.4880   -0.3690 c3        1 LCE      0.095700
      2 OAD         3.0450    1.9080    0.6060 o         1 LCE     -0.819800
      3 OAE         4.2090    0.4180   -0.5940 o         1 LCE     -0.819800
      4 OAF         5.8510   -1.5150    2.8010 o         1 LCE     -0.466100
      5 ClAG        4.8960   -4.7320    2.3920 cl        1 LCE     -0.137900
      6 ClAH        3.3940   -3.2470    4.3320 cl        1 LCE     -0.137900
      7 OAK         1.0020   -0.7340    0.0650 os        1 LCE     -0.405600
      8 SAM         1.3900   -2.3820    2.0030 ss        1 LCE     -0.328200
      9 CAN         3.4720    0.7430    0.3710 c         1 LCE      0.933600
     10 CAP         1.5730   -0.6830    1.3590 c3        1 LCE      0.294200
     11 CAQ         3.0090   -2.8920    1.5720 cy        1 LCE     -0.010600
     12 CAR         3.0610   -0.3580    1.4000 c3        1 LCE     -0.214700
     13 CAS         3.8560   -1.6310    1.2140 cy        1 LCE     -0.126700
     14 CAT         4.0170   -3.2480    2.7100 cy        1 LCE      0.028800
     15 CAU         4.8300   -1.9720    2.3300 c         1 LCE      0.594100
     16 HAA         1.1520    1.3320   -0.3050 h1        1 LCE      0.042367
     17 HAAA       -0.4910    0.7110    0.2420 h1        1 LCE      0.042367
     18 HAAB        0.1340    0.2880   -1.4320 h1        1 LCE      0.042367
     19 HAP         0.9930    0.0020    2.0250 h2        1 LCE      0.070700
     20 HAQ         2.9780   -3.6710    0.7820 h1        1 LCE      0.101700
     21 HAR         3.2820    0.0800    2.4130 hc        1 LCE      0.067700
     22 HAS         4.3290   -1.6480    0.1960 hc        1 LCE      0.152700
@<TRIPOS>BOND
     1    1    7 1   
     2    1   16 1   
     3    1   17 1   
     4    1   18 1   
     5    2    9 1   
     6    3    9 1   
     7    4   15 2   
     8    5   14 1   
     9    6   14 1   
    10    7   10 1   
    11    8   10 1   
    12    8   11 1   
    13    9   12 1   
    14   10   12 1   
    15   10   19 1   
    16   11   13 1   
    17   11   14 1   
    18   11   20 1   
    19   12   13 1   
    20   12   21 1   
    21   13   15 1   
    22   13   22 1   
    23   14   15 1   
@<TRIPOS>SUBSTRUCTURE
     1 LCE         1 TEMP              0 ****  ****    0 ROOT
