@<TRIPOS>MOLECULE
LCE
   22    23     1     0     0
SMALL
bcc


@<TRIPOS>ATOM
      1 CAA        -2.9160    0.6100   -1.1340 c3        1 LCE      0.095700
      2 OAD         0.4140    3.1970   -0.7560 o         1 LCE     -0.819800
      3 OAE         0.7710    1.4600   -2.0360 o         1 LCE     -0.819800
      4 OAF         3.0860   -0.0080    1.6840 o         1 LCE     -0.466100
      5 CLAG        0.9980   -2.6840    2.7630 cl        1 LCE     -0.137900
      6 CLAH        2.4300   -3.5260    0.8730 cl        1 LCE     -0.137900
      7 OAK        -1.4970    0.5450   -1.1300 os        1 LCE     -0.405600
      8 SAM        -0.7060   -1.0180    0.8030 ss        1 LCE     -0.328200
      9 CAN         0.5160    1.9460   -0.8990 c         1 LCE      0.933600
     10 CAP        -0.8890    0.5520    0.2500 c3        1 LCE      0.294200
     11 CAQ         0.5310   -1.4960    0.2050 cy        1 LCE     -0.010600
     12 CAR         0.4050    1.1100    0.2040 c3        1 LCE     -0.214700
     13 CAS         1.3800   -0.2990   -0.0290 cy        1 LCE     -0.126700
     14 CAT         1.5280   -2.0700    1.2160 cy        1 LCE      0.028800
     15 CAU         2.2110   -0.6040    1.0800 c         1 LCE      0.594100
     16 HAA        -3.2460    0.5210   -2.0560 h1        1 LCE      0.042367
     17 HAAA       -3.2060    1.4730   -0.7640 h1        1 LCE      0.042367
     18 HAAB       -3.2790   -0.1200   -0.5850 h1        1 LCE      0.042367
     19 HAP        -1.4560    1.0640    0.8680 h2        1 LCE      0.070700
     20 HAQ         0.4120   -2.0510   -0.5980 h1        1 LCE      0.101700
     21 HAR         0.6600    1.7220    0.9300 hc        1 LCE      0.067700
     22 HAS         1.8520   -0.3240   -0.8900 hc        1 LCE      0.152700
@<TRIPOS>BOND
     1    1    7 1   
     2    1   16 1   
     3    1   17 1   
     4    1   18 1   
     5    2    9 1   
     6    3    9 1   
     7    4   15 2   
     8    5   14 1   
     9    6   14 1   
    10    7   10 1   
    11    8   10 1   
    12    8   11 1   
    13    9   12 1   
    14   10   12 1   
    15   10   19 1   
    16   11   13 1   
    17   11   14 1   
    18   11   20 1   
    19   12   13 1   
    20   12   21 1   
    21   13   15 1   
    22   13   22 1   
    23   14   15 1   
@<TRIPOS>SUBSTRUCTURE
     1 LCE         1 TEMP              0 ****  ****    0 ROOT
