@<TRIPOS>MOLECULE
LCE
   22    23     1     0     0
SMALL
bcc


@<TRIPOS>ATOM
      1 CAA         3.4810    1.9020   -0.8650 c3        1 LCE      0.095700
      2 OAD         3.5310   -0.4690    1.1940 o         1 LCE     -0.819800
      3 OAE         2.6800   -1.7820   -0.4080 o         1 LCE     -0.819800
      4 OAF        -1.0670   -2.2460    1.5160 o         1 LCE     -0.466100
      5 CLAG       -3.2670   -1.1600   -0.8090 cl        1 LCE     -0.137900
      6 CLAH       -2.7330    0.6810    1.3250 cl        1 LCE     -0.137900
      7 OAK         2.1200    1.5720   -1.1060 os        1 LCE     -0.405600
      8 SAM        -0.3400    1.8810   -0.4140 ss        1 LCE     -0.328200
      9 CAN         2.6050   -0.8390    0.4210 c         1 LCE      0.933600
     10 CAP         1.3490    1.3770    0.0650 c3        1 LCE      0.294200
     11 CAQ        -0.8990    0.2570   -0.7610 cy        1 LCE     -0.010600
     12 CAR         1.2550   -0.0640    0.5480 c3        1 LCE     -0.214700
     13 CAS         0.1300   -0.7640   -0.1820 cy        1 LCE     -0.126700
     14 CAT        -2.0200   -0.3620    0.1320 cy        1 LCE      0.028800
     15 CAU        -0.9600   -1.3590    0.6960 c         1 LCE      0.594100
     16 HAA         3.9430    1.9000   -1.8840 h1        1 LCE      0.042367
     17 HAAA        3.5480    2.9220   -0.4100 h1        1 LCE      0.042367
     18 HAAB        3.9710    1.1430   -0.2030 h1        1 LCE      0.042367
     19 HAP         1.6900    2.0560    0.8860 h2        1 LCE      0.070700
     20 HAQ        -1.1120    0.1380   -1.8430 h1        1 LCE      0.101700
     21 HAR         1.0280   -0.0350    1.6510 hc        1 LCE      0.067700
     22 HAS         0.5450   -1.4950   -0.9250 hc        1 LCE      0.152700
@<TRIPOS>BOND
     1    1    7 1   
     2    1   16 1   
     3    1   17 1   
     4    1   18 1   
     5    2    9 1   
     6    3    9 1   
     7    4   15 2   
     8    5   14 1   
     9    6   14 1   
    10    7   10 1   
    11    8   10 1   
    12    8   11 1   
    13    9   12 1   
    14   10   12 1   
    15   10   19 1   
    16   11   13 1   
    17   11   14 1   
    18   11   20 1   
    19   12   13 1   
    20   12   21 1   
    21   13   15 1   
    22   13   22 1   
    23   14   15 1   
@<TRIPOS>SUBSTRUCTURE
     1 LCE         1 TEMP              0 ****  ****    0 ROOT
