@<TRIPOS>MOLECULE
LCE
   22    23     1     0     0
SMALL
bcc


@<TRIPOS>ATOM
      1 CAA         0.4030    0.4970   -0.3420 c3        1 LCE      0.095700
      2 OAD         3.0760    1.8950    0.5300 o         1 LCE     -0.819800
      3 OAE         4.1830    0.3640   -0.6710 o         1 LCE     -0.819800
      4 OAF         5.8910   -1.5250    2.7160 o         1 LCE     -0.466100
      5 CLAG        4.8780   -4.7350    2.4000 cl        1 LCE     -0.137900
      6 CLAH        3.4540   -3.1880    4.3510 cl        1 LCE     -0.137900
      7 OAK         0.9790   -0.7250    0.1010 os        1 LCE     -0.405600
      8 SAM         1.3970   -2.3390    2.0610 ss        1 LCE     -0.328200
      9 CAN         3.4790    0.7200    0.3080 c         1 LCE      0.933600
     10 CAP         1.5880   -0.6570    1.3770 c3        1 LCE      0.294200
     11 CAQ         2.9970   -2.8820    1.5960 cy        1 LCE     -0.010600
     12 CAR         3.0810   -0.3530    1.3700 c3        1 LCE     -0.214700
     13 CAS         3.8510   -1.6420    1.1880 cy        1 LCE     -0.126700
     14 CAT         4.0310   -3.2310    2.7120 cy        1 LCE      0.028800
     15 CAU         4.8510   -1.9750    2.2830 c         1 LCE      0.594100
     16 HAA         1.1490    1.3310   -0.3150 h1        1 LCE      0.042367
     17 HAAA       -0.4870    0.7460    0.2900 h1        1 LCE      0.042367
     18 HAAB        0.0850    0.2800   -1.3920 h1        1 LCE      0.042367
     19 HAP         1.0370    0.0510    2.0450 h2        1 LCE      0.070700
     20 HAQ         2.9320   -3.6760    0.8230 h1        1 LCE      0.101700
     21 HAR         3.3360    0.1010    2.3670 hc        1 LCE      0.067700
     22 HAS         4.2950   -1.6870    0.1580 hc        1 LCE      0.152700
@<TRIPOS>BOND
     1    1    7 1   
     2    1   16 1   
     3    1   17 1   
     4    1   18 1   
     5    2    9 1   
     6    3    9 1   
     7    4   15 2   
     8    5   14 1   
     9    6   14 1   
    10    7   10 1   
    11    8   10 1   
    12    8   11 1   
    13    9   12 1   
    14   10   12 1   
    15   10   19 1   
    16   11   13 1   
    17   11   14 1   
    18   11   20 1   
    19   12   13 1   
    20   12   21 1   
    21   13   15 1   
    22   13   22 1   
    23   14   15 1   
@<TRIPOS>SUBSTRUCTURE
     1 LCE         1 TEMP              0 ****  ****    0 ROOT
