@<TRIPOS>MOLECULE
LCF
   48    51     1     0     0
SMALL
bcc


@<TRIPOS>ATOM
      1 C1         -0.0340    0.1400   -0.0650 cc        1 LCF      0.027400
      2 C2         -1.6810    0.2640    1.9630 c3        1 LCF      0.028300
      3 C3         -1.2780    0.3050    3.4780 c3        1 LCF     -0.070000
      4 C4          0.2470   -0.0090    3.5270 c3        1 LCF      0.001900
      5 C5          0.6640   -0.0740    2.1010 cc        1 LCF     -0.144600
      6 C6          1.8250   -0.0830    1.3140 cd        1 LCF     -0.084000
      7 C7          1.3860    0.0510   -0.0640 cd        1 LCF     -0.158000
      8 N          -0.4510    0.0210    1.2490 na        1 LCF     -0.050100
      9 C8         -0.9700    0.3150   -1.1920 c3        1 LCF     -0.171100
     10 C9         -1.5200    1.7660   -1.2160 c         1 LCF      0.922600
     11 O1         -1.0160    2.5640   -2.0510 o         1 LCF     -0.834300
     12 O2         -2.4450    2.0510   -0.4050 o         1 LCF     -0.834300
     13 C10        -2.0600   -0.7340    4.2510 c3        1 LCF     -0.084100
     14 C11        -1.5500    1.6880    4.0320 c3        1 LCF     -0.084100
     15 C12         3.1710   -0.1670    1.8260 ca        1 LCF      0.031000
     16 C13         4.2250    0.5400    1.2220 ca        1 LCF     -0.132000
     17 C14         5.5140    0.4710    1.7430 ca        1 LCF     -0.136500
     18 C15         5.7770   -0.3020    2.8740 ca        1 LCF     -0.156000
     19 C16         4.7390   -1.0060    3.4840 ca        1 LCF     -0.136500
     20 C17         3.4480   -0.9390    2.9670 ca        1 LCF     -0.132000
     21 C18         2.2070    0.1080   -1.2490 ca        1 LCF      0.026000
     22 C19         3.2930   -0.7670   -1.4160 ca        1 LCF     -0.126500
     23 C20         4.0770   -0.7220   -2.5650 ca        1 LCF     -0.134500
     24 C21         3.7770    0.2070   -3.5640 ca        1 LCF     -0.003600
     25 C22         2.7010    1.0860   -3.4180 ca        1 LCF     -0.134500
     26 C23         1.9210    1.0380   -2.2660 ca        1 LCF     -0.126500
     27 Cl1         4.7390    0.2650   -4.9760 cl        1 LCF     -0.145400
     28 H21        -2.4030   -0.5740    1.7640 h1        1 LCF      0.091200
     29 H22A       -2.1470    1.2300    1.6060 h1        1 LCF      0.091200
     30 H41         0.4370   -0.9810    4.0480 hc        1 LCF      0.049200
     31 H42         0.8060    0.7940    4.0680 hc        1 LCF      0.049200
     32 H81        -1.8390   -0.3860   -1.0950 hc        1 LCF      0.052200
     33 H82        -0.4430    0.1000   -2.1550 hc        1 LCF      0.052200
     34 H101       -3.1550   -0.5240    4.1830 hc        1 LCF      0.035200
     35 H102       -1.7620   -0.7200    5.3280 hc        1 LCF      0.035200
     36 H103       -1.8680   -1.7550    3.8420 hc        1 LCF      0.035200
     37 H111       -0.9820    2.4560    3.4530 hc        1 LCF      0.035200
     38 H112       -2.6390    1.9260    3.9610 hc        1 LCF      0.035200
     39 H113       -1.2410    1.7440    5.1040 hc        1 LCF      0.035200
     40 H13         4.0180    1.1470    0.3260 ha        1 LCF      0.140500
     41 H14         6.3280    1.0300    1.2590 ha        1 LCF      0.117500
     42 H15         6.7950   -0.3550    3.2830 ha        1 LCF      0.115000
     43 H16         4.9400   -1.6160    4.3750 ha        1 LCF      0.117500
     44 H17         2.6300   -1.4920    3.4510 ha        1 LCF      0.140500
     45 H19         3.5260   -1.4920   -0.6220 ha        1 LCF      0.173000
     46 H20         4.9220   -1.4150   -2.6820 ha        1 LCF      0.135000
     47 H22         2.4650    1.8160   -4.2070 ha        1 LCF      0.135000
     48 H23         1.0580    1.7320   -2.1530 ha        1 LCF      0.173000
@<TRIPOS>BOND
     1    1    7 2   
     2    1    8 1   
     3    1    9 1   
     4    2    3 1   
     5    2    8 1   
     6    2   28 1   
     7    2   29 1   
     8    3    4 1   
     9    3   13 1   
    10    3   14 1   
    11    4    5 1   
    12    4   30 1   
    13    4   31 1   
    14    5    6 2   
    15    5    8 1   
    16    6    7 1   
    17    6   15 1   
    18    7   21 1   
    19    9   10 1   
    20    9   32 1   
    21    9   33 1   
    22   10   11 1   
    23   10   12 1   
    24   13   34 1   
    25   13   35 1   
    26   13   36 1   
    27   14   37 1   
    28   14   38 1   
    29   14   39 1   
    30   15   16 ar  
    31   15   20 ar  
    32   16   17 ar  
    33   16   40 1   
    34   17   18 ar  
    35   17   41 1   
    36   18   19 ar  
    37   18   42 1   
    38   19   20 ar  
    39   19   43 1   
    40   20   44 1   
    41   21   22 ar  
    42   21   26 ar  
    43   22   23 ar  
    44   22   45 1   
    45   23   24 ar  
    46   23   46 1   
    47   24   25 ar  
    48   24   27 1   
    49   25   26 ar  
    50   25   47 1   
    51   26   48 1   
@<TRIPOS>SUBSTRUCTURE
     1 LCF         1 TEMP              0 ****  ****    0 ROOT
