@<TRIPOS>MOLECULE
LCF
   48    44     1     0     0
SMALL
bcc


@<TRIPOS>ATOM
      1 C1         -1.3140   -0.0910   -1.0420 c1        1 LCF      0.122100
      2 C2         -2.9520   -0.0210    1.1830 c3        1 LCF      0.028300
      3 C3         -2.5080   -0.1170    2.5960 c3        1 LCF     -0.070000
      4 C4         -1.0660   -0.1900    2.5900 c3        1 LCF     -0.001200
      5 C5         -0.6060   -0.1390    1.1190 c2        1 LCF     -0.144300
      6 C6          0.5270   -0.0530    0.2850 ce        1 LCF     -0.050700
      7 C7          0.0870   -0.0240   -1.0460 ce        1 LCF     -0.187800
      8 N          -1.7430   -0.1630    0.3030 nh        1 LCF     -0.071600
      9 C8         -2.2090   -0.1760   -2.2770 c2        1 LCF     -0.207000
     10 C9         -2.7860    1.2120   -2.5830 c         1 LCF      0.872600
     11 O1         -3.7530    1.3320   -3.4020 o         1 LCF     -0.834300
     12 O2         -2.2500    2.2410   -2.0850 o         1 LCF     -0.834300
     13 C10        -3.0570   -1.4290    3.2090 c3        1 LCF     -0.084100
     14 C11        -2.9330    1.1580    3.3280 c3        1 LCF     -0.084100
     15 C12         1.8540   -0.0520    0.7070 cg        1 LCF     -0.002300
     16 C13         2.4970    1.1620    1.0000 c1        1 LCF     -0.075333
     17 C14         3.8130    1.1630    1.4440 c1        1 LCF     -0.075333
     18 C15         4.5030   -0.0550    1.6020 c1        1 LCF     -0.075333
     19 C16         3.8680   -1.2530    1.3120 c1        1 LCF     -0.075333
     20 C17         2.5310   -1.2500    0.8610 c1        1 LCF     -0.084500
     21 C18         0.9220   -0.0360   -2.1990 cg        1 LCF     -0.007300
     22 C19         1.4140    1.1570   -2.7130 c1        1 LCF     -0.075333
     23 C20         2.2310    1.1440   -3.8240 c1        1 LCF     -0.075333
     24 C21         2.5630   -0.0660   -4.4300 c1        1 LCF      0.007900
     25 C22         2.0750   -1.2480   -3.9210 c1        1 LCF     -0.084500
     26 C23         1.2520   -1.2360   -2.8010 c1        1 LCF     -0.076500
     27 CL1         3.5420   -0.0810   -5.8610 cl        1 LCF     -0.156900
     28 H21        -3.5860   -0.7310    0.9870 h1        1 LCF      0.091200
     29 H22A       -3.3760    0.8610    1.0280 h1        1 LCF      0.091200
     30 H41        -0.7920   -1.0700    2.9790 hc        1 LCF      0.049200
     31 H42        -0.7050    0.6030    3.0620 hc        1 LCF      0.049200
     32 H81        -2.9440   -0.8070   -2.1080 ha        1 LCF      0.091500
     33 H82        -1.6740   -0.4890   -3.0490 ha        1 LCF      0.091500
     34 H101       -2.6820   -2.2000    2.7250 hc        1 LCF      0.035200
     35 H102       -4.0410   -1.4410    3.1360 hc        1 LCF      0.035200
     36 H103       -2.8000   -1.4790    4.1510 hc        1 LCF      0.035200
     37 H111       -2.4440    1.9130    2.9680 hc        1 LCF      0.035200
     38 H112       -3.8940    1.3040    3.2040 hc        1 LCF      0.035200
     39 H113       -2.7390    1.0660    4.2850 hc        1 LCF      0.035200
     40 H13         2.0050    2.0300    0.8860 ha        1 LCF      0.085000
     41 H14         4.2630    2.0180    1.6520 ha        1 LCF      0.085000
     42 H15         5.4310   -0.0550    1.9090 ha        1 LCF      0.085000
     43 H16         4.3510   -2.1110    1.4230 ha        1 LCF      0.085000
     44 H17         2.0760   -2.1030    0.6530 ha        1 LCF      0.071500
     45 H19         1.1820    2.0040   -2.2870 ha        1 LCF      0.085000
     46 H20         2.6690    1.9830   -4.1240 ha        1 LCF      0.085000
     47 H22         2.3170   -2.1250   -4.3620 ha        1 LCF      0.069500
     48 H23         0.8800   -2.0570   -2.4710 ha        1 LCF      0.078500
@<TRIPOS>BOND
     1    1    7 2   
     2    1    8 2   
     3    2    3 1   
     4    2    8 1   
     5    2   28 1   
     6    2   29 1   
     7    3    4 1   
     8    3   13 1   
     9    3   14 1   
    10    4    5 1   
    11    4   30 1   
    12    4   31 1   
    13    5    6 2   
    14    5    8 1   
    15    6    7 1   
    16    6   15 1   
    17    7   21 1   
    18    9   10 2   
    19    9   32 1   
    20    9   33 1   
    21   10   11 1   
    22   10   12 1   
    23   13   34 1   
    24   13   35 1   
    25   13   36 1   
    26   14   37 1   
    27   14   38 1   
    28   14   39 1   
    29   15   20 3   
    30   16   17 3   
    31   16   40 1   
    32   17   41 1   
    33   18   19 3   
    34   18   42 1   
    35   19   43 1   
    36   20   44 1   
    37   21   26 3   
    38   22   23 3   
    39   22   45 1   
    40   23   46 1   
    41   24   25 3   
    42   24   27 1   
    43   25   47 1   
    44   26   48 1   
@<TRIPOS>SUBSTRUCTURE
     1 LCF         1 TEMP              0 ****  ****    0 ROOT
