@<TRIPOS>MOLECULE
LCF
   48    51     1     0     0
SMALL
bcc


@<TRIPOS>ATOM
      1 C1         -0.0250    0.1910   -0.0780 cc        1 LCF      0.027400
      2 C2         -1.6890    0.3040    1.9380 c3        1 LCF      0.028300
      3 C3         -1.2990    0.3030    3.4570 c3        1 LCF     -0.070000
      4 C4          0.2200   -0.0440    3.5120 c3        1 LCF      0.001900
      5 C5          0.6480   -0.0860    2.0890 cc        1 LCF     -0.144600
      6 C6          1.8160   -0.1010    1.3120 cd        1 LCF     -0.084000
      7 C7          1.3930    0.0730   -0.0670 cd        1 LCF     -0.158000
      8 N          -0.4570    0.0520    1.2300 na        1 LCF     -0.050100
      9 C8         -0.9470    0.4110   -1.2080 c3        1 LCF     -0.171100
     10 C9         -1.4670    1.8740   -1.2050 c         1 LCF      0.922600
     11 O1         -2.3930    2.1600   -0.3950 o         1 LCF     -0.834300
     12 O2         -0.9380    2.6800   -2.0170 o         1 LCF     -0.834300
     13 C10        -2.1090   -0.7370    4.2000 c3        1 LCF     -0.084100
     14 C11        -1.5460    1.6780    4.0400 c3        1 LCF     -0.084100
     15 C12         3.1550   -0.2250    1.8330 ca        1 LCF      0.031000
     16 C13         4.2290    0.4730    1.2550 ca        1 LCF     -0.132000
     17 C14         5.5110    0.3650    1.7860 ca        1 LCF     -0.136500
     18 C15         5.7480   -0.4390    2.9010 ca        1 LCF     -0.156000
     19 C16         4.6900   -1.1340    3.4850 ca        1 LCF     -0.136500
     20 C17         3.4050   -1.0290    2.9590 ca        1 LCF     -0.132000
     21 C18         2.2250    0.1390   -1.2430 ca        1 LCF      0.026000
     22 C19         3.2940   -0.7550   -1.4200 ca        1 LCF     -0.126500
     23 C20         4.0900   -0.7010   -2.5610 ca        1 LCF     -0.134500
     24 C21         3.8180    0.2570   -3.5410 ca        1 LCF     -0.003600
     25 C22         2.7600    1.1550   -3.3850 ca        1 LCF     -0.134500
     26 C23         1.9680    1.0980   -2.2410 ca        1 LCF     -0.126500
     27 CL1         4.7940    0.3260   -4.9430 cl        1 LCF     -0.145400
     28 H21        -2.1310    1.2880    1.5990 h1        1 LCF      0.091200
     29 H22A       -2.4250   -0.5140    1.7140 h1        1 LCF      0.091200
     30 H41         0.3840   -1.0320    4.0130 hc        1 LCF      0.049200
     31 H42         0.7900    0.7340    4.0770 hc        1 LCF      0.049200
     32 H81        -1.8310   -0.2730   -1.1350 hc        1 LCF      0.052200
     33 H82        -0.4160    0.2070   -2.1720 hc        1 LCF      0.052200
     34 H101       -3.1990   -0.5020    4.1270 hc        1 LCF      0.035200
     35 H102       -1.9350   -1.7520    3.7690 hc        1 LCF      0.035200
     36 H103       -1.8210   -0.7530    5.2790 hc        1 LCF      0.035200
     37 H111       -1.2460    1.7040    5.1150 hc        1 LCF      0.035200
     38 H112       -0.9570    2.4460    3.4830 hc        1 LCF      0.035200
     39 H113       -2.6290    1.9410    3.9650 hc        1 LCF      0.035200
     40 H13         4.0430    1.1050    0.3720 ha        1 LCF      0.140500
     41 H14         6.3410    0.9180    1.3220 ha        1 LCF      0.117500
     42 H15         6.7610   -0.5220    3.3170 ha        1 LCF      0.115000
     43 H16         4.8700   -1.7690    4.3650 ha        1 LCF      0.117500
     44 H17         2.5710   -1.5750    3.4230 ha        1 LCF      0.140500
     45 H19         3.5040   -1.5020   -0.6400 ha        1 LCF      0.173000
     46 H20         4.9210   -1.4080   -2.6870 ha        1 LCF      0.135000
     47 H22         2.5460    1.9070   -4.1580 ha        1 LCF      0.135000
     48 H23         1.1190    1.8070   -2.1200 ha        1 LCF      0.173000
@<TRIPOS>BOND
     1    1    7 2   
     2    1    8 1   
     3    1    9 1   
     4    2    3 1   
     5    2    8 1   
     6    2   28 1   
     7    2   29 1   
     8    3    4 1   
     9    3   13 1   
    10    3   14 1   
    11    4    5 1   
    12    4   30 1   
    13    4   31 1   
    14    5    6 2   
    15    5    8 1   
    16    6    7 1   
    17    6   15 1   
    18    7   21 1   
    19    9   10 1   
    20    9   32 1   
    21    9   33 1   
    22   10   11 1   
    23   10   12 1   
    24   13   34 1   
    25   13   35 1   
    26   13   36 1   
    27   14   37 1   
    28   14   38 1   
    29   14   39 1   
    30   15   16 ar  
    31   15   20 ar  
    32   16   17 ar  
    33   16   40 1   
    34   17   18 ar  
    35   17   41 1   
    36   18   19 ar  
    37   18   42 1   
    38   19   20 ar  
    39   19   43 1   
    40   20   44 1   
    41   21   22 ar  
    42   21   26 ar  
    43   22   23 ar  
    44   22   45 1   
    45   23   24 ar  
    46   23   46 1   
    47   24   25 ar  
    48   24   27 1   
    49   25   26 ar  
    50   25   47 1   
    51   26   48 1   
@<TRIPOS>SUBSTRUCTURE
     1 LCF         1 TEMP              0 ****  ****    0 ROOT
