@<TRIPOS>MOLECULE
LCF
   48    51     1     0     0
SMALL
bcc


@<TRIPOS>ATOM
      1 C1          0.6030   -3.2840    0.6070 cc        1 LCF      0.027400
      2 C2          3.0770   -3.3480   -0.2410 c3        1 LCF      0.028300
      3 C3          3.9010   -2.1270   -0.7760 c3        1 LCF     -0.070000
      4 C4          2.8810   -0.9600   -0.9480 c3        1 LCF      0.001900
      5 C5          1.6060   -1.4920   -0.3970 cc        1 LCF     -0.144600
      6 C6          0.3400   -1.0510    0.0140 cd        1 LCF     -0.084000
      7 C7         -0.3020   -2.1870    0.6510 cd        1 LCF     -0.158000
      8 N           1.7340   -2.8530   -0.0670 na        1 LCF     -0.050100
      9 C8          0.4580   -4.6530    1.1370 c3        1 LCF     -0.171100
     10 C9          1.3120   -4.8290    2.4200 c         1 LCF      0.922600
     11 O1          0.7120   -4.7800    3.5280 o         1 LCF     -0.834300
     12 O2          2.5520   -5.0190    2.2720 o         1 LCF     -0.834300
     13 C10         4.5400   -2.4730   -2.1030 c3        1 LCF     -0.084100
     14 C11         4.9630   -1.7530    0.2370 c3        1 LCF     -0.084100
     15 C12        -0.1620    0.2920   -0.1490 ca        1 LCF      0.031000
     16 C13        -0.9730    0.8900    0.8300 ca        1 LCF     -0.132000
     17 C14        -1.4270    2.1960    0.6720 ca        1 LCF     -0.136500
     18 C15        -1.0840    2.9300   -0.4640 ca        1 LCF     -0.156000
     19 C16        -0.2790    2.3480   -1.4420 ca        1 LCF     -0.136500
     20 C17         0.1800    1.0420   -1.2880 ca        1 LCF     -0.132000
     21 C18        -1.6130   -2.2370    1.2520 ca        1 LCF      0.026000
     22 C19        -2.7190   -1.6480    0.6170 ca        1 LCF     -0.126500
     23 C20        -3.9870   -1.7070    1.1890 ca        1 LCF     -0.134500
     24 C21        -4.1570   -2.3610    2.4100 ca        1 LCF     -0.003600
     25 C22        -3.0710   -2.9540    3.0590 ca        1 LCF     -0.134500
     26 C23        -1.8050   -2.8920    2.4830 ca        1 LCF     -0.126500
     27 CL1        -5.7130   -2.4350    3.1160 cl        1 LCF     -0.145400
     28 H21         3.0750   -4.1870   -0.9890 h1        1 LCF      0.091200
     29 H22A        3.4700   -3.7450    0.7420 h1        1 LCF      0.091200
     30 H41         2.7710   -0.6840   -2.0270 hc        1 LCF      0.049200
     31 H42         3.2100   -0.0520   -0.3850 hc        1 LCF      0.049200
     32 H81         0.8030   -5.4060    0.3820 hc        1 LCF      0.052200
     33 H82        -0.6180   -4.8510    1.3750 hc        1 LCF      0.052200
     34 H101        3.7620   -2.7550   -2.8530 hc        1 LCF      0.035200
     35 H102        5.1130   -1.5990   -2.4970 hc        1 LCF      0.035200
     36 H103        5.2430   -3.3320   -1.9810 hc        1 LCF      0.035200
     37 H111        5.6700   -2.6040    0.3870 hc        1 LCF      0.035200
     38 H112        5.5410   -0.8650   -0.1150 hc        1 LCF      0.035200
     39 H113        4.4900   -1.5090    1.2200 hc        1 LCF      0.035200
     40 H13        -1.2470    0.3090    1.7260 ha        1 LCF      0.140500
     41 H14        -2.0600    2.6500    1.4480 ha        1 LCF      0.117500
     42 H15        -1.4450    3.9600   -0.5860 ha        1 LCF      0.115000
     43 H16        -0.0040    2.9200   -2.3400 ha        1 LCF      0.117500
     44 H17         0.8180    0.5850   -2.0590 ha        1 LCF      0.140500
     45 H19        -2.5740   -1.1290   -0.3420 ha        1 LCF      0.173000
     46 H20        -4.8430   -1.2430    0.6790 ha        1 LCF      0.135000
     47 H22        -3.2070   -3.4720    4.0200 ha        1 LCF      0.135000
     48 H23        -0.9410   -3.3710    2.9940 ha        1 LCF      0.173000
@<TRIPOS>BOND
     1    1    7 2   
     2    1    8 1   
     3    1    9 1   
     4    2    3 1   
     5    2    8 1   
     6    2   28 1   
     7    2   29 1   
     8    3    4 1   
     9    3   13 1   
    10    3   14 1   
    11    4    5 1   
    12    4   30 1   
    13    4   31 1   
    14    5    6 2   
    15    5    8 1   
    16    6    7 1   
    17    6   15 1   
    18    7   21 1   
    19    9   10 1   
    20    9   32 1   
    21    9   33 1   
    22   10   11 1   
    23   10   12 1   
    24   13   34 1   
    25   13   35 1   
    26   13   36 1   
    27   14   37 1   
    28   14   38 1   
    29   14   39 1   
    30   15   16 ar  
    31   15   20 ar  
    32   16   17 ar  
    33   16   40 1   
    34   17   18 ar  
    35   17   41 1   
    36   18   19 ar  
    37   18   42 1   
    38   19   20 ar  
    39   19   43 1   
    40   20   44 1   
    41   21   22 ar  
    42   21   26 ar  
    43   22   23 ar  
    44   22   45 1   
    45   23   24 ar  
    46   23   46 1   
    47   24   25 ar  
    48   24   27 1   
    49   25   26 ar  
    50   25   47 1   
    51   26   48 1   
@<TRIPOS>SUBSTRUCTURE
     1 LCF         1 TEMP              0 ****  ****    0 ROOT
