@<TRIPOS>MOLECULE
LCG
   37    40     1     0     0
SMALL
bcc


@<TRIPOS>ATOM
      1 P           0.4800    0.6740    4.9800 p5        1 LCG      1.327900
      2 OP1        -0.5860    1.7250    4.9040 o         1 LCG     -0.907833
      3 O5'        -0.1520   -0.5510    3.9110 os        1 LCG     -0.556200
      4 C5'        -0.6760   -0.0610    2.7480 c3        1 LCG      0.239400
      5 C3'         0.8250    1.1540    0.9080 c3        1 LCG      0.152100
      6 C6'         1.6440   -0.9050    1.7920 c3        1 LCG      0.091400
      7 N9         -0.3360    0.0210   -1.7740 na        1 LCG     -0.160900
      8 C8         -1.5170    0.7760   -1.6310 cc        1 LCG      0.437400
      9 C4         -0.1310   -0.1050   -3.1470 cc        1 LCG      0.062800
     10 N7         -2.0670    1.1440   -2.8120 nd        1 LCG     -0.633000
     11 C5         -1.2210    0.6070   -3.7790 cd        1 LCG      0.190800
     12 C6         -1.2770    0.6690   -5.2230 c         1 LCG      0.646000
     13 C2'         1.6370    0.3360   -0.1660 c3        1 LCG      0.067100
     14 O6         -2.1210    1.2280   -5.9470 o         1 LCG     -0.644500
     15 C4'         0.3020   -0.1690    1.5750 c3        1 LCG      0.054800
     16 C1'         0.4740   -0.5770   -0.7230 c3        1 LCG      0.190800
     17 C2          0.8080   -0.6740   -5.1690 cd        1 LCG      0.601800
     18 N1         -0.2230   -0.0190   -5.8760 n         1 LCG     -0.498400
     19 O4'        -0.3390   -0.8440    0.4330 os        1 LCG     -0.431600
     20 OP2         0.6880   -0.0510    6.2700 o         1 LCG     -0.907833
     21 N2          1.8570   -1.2420   -5.9750 nh        1 LCG     -0.867800
     22 N3          0.8790   -0.7650   -3.8320 nc        1 LCG     -0.616100
     23 O2'         2.4290   -0.5770    0.6010 os        1 LCG     -0.440600
     24 O3'         1.6080    1.9950    1.6690 oh        1 LCG     -0.664800
     25 OP3         1.7250    0.9960    4.1690 o         1 LCG     -0.907833
     26 H5'        -1.5940   -0.6570    2.4660 h1        1 LCG      0.022700
     27 H5''       -0.9550    1.0290    2.8590 h1        1 LCG      0.022700
     28 H3'         0.0030    1.7460    0.4310 h1        1 LCG      0.026700
     29 H6'1        2.1770   -0.4960    2.6950 h1        1 LCG      0.103200
     30 H6'2        1.5310   -2.0120    1.8110 h1        1 LCG      0.103200
     31 H8         -1.9130    1.0070   -0.6300 h5        1 LCG      0.097100
     32 H2'         2.2740    0.8580   -0.8950 h1        1 LCG      0.088700
     33 H1'         0.8600   -1.5630   -1.1080 h2        1 LCG      0.082700
     34 H1         -0.1700    0.0520   -6.8670 hn        1 LCG      0.323500
     35 H21         2.6410   -1.5130   -5.4120 hn        1 LCG      0.385800
     36 H22         1.5130   -2.0260   -6.4950 hn        1 LCG      0.385800
     37 HO3'        1.6260    1.6690    2.6360 ho        1 LCG      0.532000
@<TRIPOS>BOND
     1    1    2 1   
     2    1    3 1   
     3    1   20 1   
     4    1   25 1   
     5    3    4 1   
     6    4   15 1   
     7    4   26 1   
     8    4   27 1   
     9    5   13 1   
    10    5   15 1   
    11    5   24 1   
    12    5   28 1   
    13    6   15 1   
    14    6   23 1   
    15    6   29 1   
    16    6   30 1   
    17    7    8 1   
    18    7    9 1   
    19    7   16 1   
    20    8   10 2   
    21    8   31 1   
    22    9   11 2   
    23    9   22 1   
    24   10   11 1   
    25   11   12 1   
    26   12   14 2   
    27   12   18 1   
    28   13   16 1   
    29   13   23 1   
    30   13   32 1   
    31   15   19 1   
    32   16   19 1   
    33   16   33 1   
    34   17   18 1   
    35   17   21 1   
    36   17   22 2   
    37   18   34 1   
    38   21   35 1   
    39   21   36 1   
    40   24   37 1   
@<TRIPOS>SUBSTRUCTURE
     1 LCG         1 TEMP              0 ****  ****    0 ROOT
