@<TRIPOS>MOLECULE
LCG
   37    34     1     0     0
SMALL
bcc


@<TRIPOS>ATOM
      1 P          -1.7520   -2.8130   -4.8430 p3        1 LCG      2.537000
      2 OP1        -0.4930   -2.6350   -5.5860 o         1 LCG     -1.051667
      3 O5'        -1.4900   -2.5680   -3.2860 o         1 LCG     -0.747000
      4 C5'        -1.4580   -1.2100   -2.7970 c3        1 LCG      0.082000
      5 C3'        -1.5860    0.0510   -0.6080 c3        1 LCG      0.221000
      6 C6'        -1.9080   -2.0640   -0.5240 c3        1 LCG     -0.019000
      7 N9          0.9630    0.7430    0.3380 n2        1 LCG     -0.108000
      8 C8          1.2650    1.5940   -0.6700 c1        1 LCG     -0.046000
      9 C4          1.5310    1.2240    1.4780 c1        1 LCG     -0.113000
     10 N7          2.0230    2.6080   -0.1580 n2        1 LCG     -0.108000
     11 C5          2.1880    2.3810    1.1640 c1        1 LCG     -0.113000
     12 C6          2.9230    3.1460    2.2390 c1        1 LCG      0.391000
     13 C2'        -1.0500   -0.4790    0.7490 c3        1 LCG     -0.121000
     14 O6          3.5750    4.1770    1.9420 o         1 LCG     -0.381000
     15 C4'        -1.1430   -1.2130   -1.3350 c3        1 LCG     -0.094000
     16 C1'         0.2250   -0.6300    0.2910 c2        1 LCG      0.110000
     17 C2          2.2360    1.4760    3.8790 c1        1 LCG      0.137000
     18 N1          2.9260    2.6720    3.5550 n2        1 LCG     -0.335000
     19 O4'         0.1690   -1.0780   -0.9870 os        1 LCG     -0.276000
     20 OP2        -2.2680   -4.2320   -5.0550 o         1 LCG     -1.051667
     21 N2          2.3290    0.9370    5.1910 n3        1 LCG     -0.304000
     22 N3          1.5230    0.7420    2.8410 n1        1 LCG     -0.177000
     23 O2'        -1.8430   -1.6150    0.7350 os        1 LCG     -0.298000
     24 O3'        -2.8920    0.2030   -0.6080 oh        1 LCG     -0.638000
     25 OP3        -2.7920   -1.8110   -5.3500 o         1 LCG     -1.051667
     26 H5'        -0.8080   -0.7310   -3.2520 h1        1 LCG      0.074000
     27 H5''       -2.3340   -0.7880   -2.9420 h1        1 LCG      0.074000
     28 H3'        -1.1140    0.8340   -0.9090 h1        1 LCG     -0.043000
     29 H6'1       -1.5360   -3.0070   -0.5720 h1        1 LCG      0.092500
     30 H6'2       -2.8640   -2.0600   -0.8350 h1        1 LCG      0.092500
     31 H8          0.9920    1.5190   -1.5220 DU        1 LCG      0.234000
     32 H2'        -1.1810    0.1530    1.5110 h1        1 LCG      0.111000
     33 H1'         0.7100   -1.2920    0.8580 h4        1 LCG      0.106000
     34 H1          3.3260    3.1380    4.1910 hn        1 LCG      0.235000
     35 H21         1.8490    0.1730    5.4140 hn        1 LCG      0.175000
     36 H22         2.8570    1.3920    5.8660 hn        1 LCG      0.175000
     37 HO3'       -3.0970    1.0620   -0.4050 ho        1 LCG      0.227000
@<TRIPOS>BOND
     1    1    2 1   
     2    1   20 1   
     3    1   25 1   
     4    3    4 1   
     5    4   15 1   
     6    4   26 1   
     7    4   27 1   
     8    5   13 1   
     9    5   15 1   
    10    5   24 1   
    11    5   28 1   
    12    6   15 1   
    13    6   23 1   
    14    6   29 1   
    15    6   30 1   
    16    7    8 1   
    17    7    9 1   
    18    8   10 1   
    19    9   11 1   
    20   10   11 1   
    21   12   14 1   
    22   12   18 1   
    23   13   16 1   
    24   13   23 1   
    25   13   32 1   
    26   15   19 1   
    27   16   19 1   
    28   16   33 1   
    29   17   21 1   
    30   17   22 1   
    31   18   34 1   
    32   21   35 1   
    33   21   36 1   
    34   24   37 1   
@<TRIPOS>SUBSTRUCTURE
     1 LCG         1 TEMP              0 ****  ****    0 ROOT
