@<TRIPOS>MOLECULE
LCH
   37    39     1     0     0
SMALL
bcc


@<TRIPOS>ATOM
      1 O5'        -3.1860   -1.2940    1.8740 os        1 LCH     -0.562200
      2 C5'        -2.5620   -0.6800    0.8260 c3        1 LCH      0.264400
      3 C4'        -1.2880   -1.4220    0.4300 c3        1 LCH      0.047800
      4 O4'        -0.3950   -1.5420    1.5800 os        1 LCH     -0.407600
      5 C1'         0.4430   -2.6960    1.3570 c3        1 LCH      0.257500
      6 N1          0.1490   -3.7160    2.3610 n         1 LCH     -0.371000
      7 C6         -1.0770   -3.7570    2.9780 cc        1 LCH      0.089600
      8 C5         -1.3890   -4.7290    3.9130 cd        1 LCH     -0.364800
      9 C5M        -2.7450   -4.7810    4.4920 c3        1 LCH     -0.071900
     10 C4         -0.3450   -5.6790    4.2540 cd        1 LCH      0.711500
     11 N4         -0.5960   -6.6170    5.2660 nh        1 LCH     -0.897800
     12 N3          0.8740   -5.6620    3.6750 nc        1 LCH     -0.763100
     13 C2          1.1540   -4.6690    2.7280 c         1 LCH      0.822900
     14 O2          2.2810   -4.5930    2.1760 o         1 LCH     -0.690500
     15 C3'        -1.4480   -2.9060   -0.0820 c3        1 LCH      0.139100
     16 C2'         0.1010   -3.1000   -0.1310 c3        1 LCH      0.084100
     17 O2'         0.5680   -1.9830   -0.9200 os        1 LCH     -0.439600
     18 O3'        -2.0240   -3.0020   -1.3500 oh        1 LCH     -0.645800
     19 C6'        -0.3570   -0.8830   -0.6840 c3        1 LCH      0.102400
     20 P          -4.7090   -2.0610    1.5040 p5        1 LCH      1.336900
     21 O1P        -4.7390   -3.0350    2.6480 o         1 LCH     -0.928500
     22 O2P        -5.6960   -0.9380    1.4700 o         1 LCH     -0.928500
     23 OXT        -4.3380   -2.6550    0.1630 o         1 LCH     -0.928500
     24 H5'1       -3.2200   -0.6510   -0.0910 h1        1 LCH      0.005700
     25 H5'2       -2.2570    0.3690    1.1150 h1        1 LCH      0.005700
     26 H1'         1.5140   -2.3770    1.4730 h2        1 LCH      0.090700
     27 H6         -1.8300   -2.9640    2.7030 h4        1 LCH      0.267000
     28 H5M1       -2.7210   -4.5280    5.5800 hc        1 LCH      0.063700
     29 H5M2       -3.1850   -5.8040    4.3770 hc        1 LCH      0.063700
     30 H5M3       -3.4420   -4.0570    3.9600 hc        1 LCH      0.063700
     31 H41        -1.5630   -6.8190    5.3890 hn        1 LCH      0.396800
     32 H42        -0.0020   -7.4140    5.2840 hn        1 LCH      0.396800
     33 H3'        -1.9750   -3.5660    0.6480 h1        1 LCH      0.101700
     34 H2'1        0.5420   -4.0270   -0.5260 h1        1 LCH      0.097700
     35 HA         -2.9960   -2.9300   -1.1980 ho        1 LCH      0.501000
     36 H6'1       -0.9090   -0.6930   -1.6340 h1        1 LCH      0.044700
     37 H6'2        0.2550   -0.0080   -0.3660 h1        1 LCH      0.044700
@<TRIPOS>BOND
     1    1    2 1   
     2    1   20 1   
     3    2    3 1   
     4    2   24 1   
     5    2   25 1   
     6    3    4 1   
     7    3   15 1   
     8    3   19 1   
     9    4    5 1   
    10    5    6 1   
    11    5   16 1   
    12    5   26 1   
    13    6    7 1   
    14    6   13 1   
    15    7    8 2   
    16    7   27 1   
    17    8    9 1   
    18    8   10 1   
    19    9   28 1   
    20    9   29 1   
    21    9   30 1   
    22   10   11 1   
    23   10   12 2   
    24   11   31 1   
    25   11   32 1   
    26   12   13 1   
    27   13   14 2   
    28   15   16 1   
    29   15   18 1   
    30   15   33 1   
    31   16   17 1   
    32   16   34 1   
    33   17   19 1   
    34   18   35 1   
    35   19   36 1   
    36   19   37 1   
    37   20   21 1   
    38   20   22 1   
    39   20   23 1   
@<TRIPOS>SUBSTRUCTURE
     1 LCH         1 TEMP              0 ****  ****    0 ROOT
