@<TRIPOS>MOLECULE
LCK
   32    31     1     0     0
SMALL
bcc


@<TRIPOS>ATOM
      1 OXT         5.2590    0.9240   -1.2040 o         1 LCK     -0.854800
      2 O2         -6.2850   -0.3720    0.0700 o         1 LCK     -0.847300
      3 C4         -5.1370   -0.8160    0.3710 c         1 LCK      0.917600
      4 O1         -4.9090   -1.5310    1.3850 o         1 LCK     -0.847300
      5 C3         -3.9620   -0.5200   -0.5880 c3        1 LCK     -0.293700
      6 C2         -3.4310    0.8790   -0.4690 c2        1 LCK      0.463300
      7 C1         -4.4740    1.9240   -0.7650 c3        1 LCK     -0.151400
      8 NZ         -2.2270    1.2620   -0.1910 n2        1 LCK     -0.662900
      9 CE         -1.1620    0.3320    0.0690 c3        1 LCK      0.119800
     10 CD          0.2140    1.0030    0.0010 c3        1 LCK     -0.070400
     11 CB          2.6830    0.6480    0.1640 c3        1 LCK     -0.065400
     12 CA          3.8360   -0.3500    0.2920 c3        1 LCK      0.025500
     13 N           3.8660   -1.0510    1.5700 n3        1 LCK     -0.892800
     14 C           5.1670    0.3880   -0.0640 c         1 LCK      0.886600
     15 O           6.1020    0.3940    0.7910 o         1 LCK     -0.854800
     16 H3         -3.1620   -1.2800   -0.3950 hc        1 LCK      0.038700
     17 H3A        -4.3370   -0.6580   -1.6350 hc        1 LCK      0.038700
     18 H1         -5.4320    1.6290   -0.2610 hc        1 LCK      0.047367
     19 H1A        -4.1740    2.9440   -0.4260 hc        1 LCK      0.047367
     20 H1B        -4.6470    1.9500   -1.8690 hc        1 LCK      0.047367
     21 HE         -1.2920   -0.1160    1.0970 h1        1 LCK      0.033200
     22 HEA        -1.1640   -0.5300   -0.6620 h1        1 LCK      0.033200
     23 HD          0.3540    1.4880   -1.0000 hc        1 LCK      0.034700
     24 HDA         0.2790    1.8130    0.7730 hc        1 LCK      0.034700
     25 HG          1.1770   -0.4970    1.2290 hc        1 LCK      0.034200
     26 HGA         1.2570   -0.8170   -0.5430 hc        1 LCK      0.034200
     27 HB          2.8090    1.1700   -0.8220 hc        1 LCK      0.042200
     28 HBA         2.7630    1.4280    0.9660 hc        1 LCK      0.042200
     29 HA          3.6960   -1.1470   -0.4960 h1        1 LCK      0.041700
     30 HN          4.8210   -1.3260    1.7410 hn        1 LCK      0.327300
     31 HNA         3.6220   -0.4060    2.3010 hn        1 LCK      0.327300
     32 CG          1.3190   -0.0070    0.2310 c3        1 LCK     -0.078400
@<TRIPOS>BOND
     1    1   14 1   
     2    2    3 1   
     3    3    4 1   
     4    3    5 1   
     5    5    6 1   
     6    5   16 1   
     7    5   17 1   
     8    6    7 1   
     9    6    8 2   
    10    7   18 1   
    11    7   19 1   
    12    7   20 1   
    13    8    9 1   
    14    9   10 1   
    15    9   21 1   
    16    9   22 1   
    17   10   23 1   
    18   10   24 1   
    19   10   32 1   
    20   11   12 1   
    21   11   27 1   
    22   11   28 1   
    23   11   32 1   
    24   12   13 1   
    25   12   14 1   
    26   12   29 1   
    27   13   30 1   
    28   13   31 1   
    29   14   15 1   
    30   25   32 1   
    31   26   32 1   
@<TRIPOS>SUBSTRUCTURE
     1 LCK         1 TEMP              0 ****  ****    0 ROOT
