@<TRIPOS>MOLECULE
LCL
   32    32     1     0     0
SMALL
bcc


@<TRIPOS>ATOM
      1 C1         -2.4090   -1.7180   -0.7440 c3        1 LCL      0.054100
      2 CL1        -1.7840   -2.3550    0.7600 cl        1 LCL     -0.120400
      3 CL2        -4.1040   -1.3060   -0.6190 cl        1 LCL     -0.120400
      4 C2         -1.6000   -0.4990   -1.1890 c         1 LCL      0.656100
      5 O2         -0.9700   -0.5440   -2.2620 o         1 LCL     -0.585100
      6 N2         -1.5670    0.5850   -0.3410 n         1 LCL     -0.536900
      7 C3         -0.9840    1.8440   -0.7430 c3        1 LCL      0.024700
      8 C4         -2.0300    2.9870   -0.7660 c3        1 LCL      0.119400
      9 O4         -2.7690    3.0620    0.4310 oh        1 LCL     -0.603800
     10 C5          0.1990    2.2750    0.1670 c3        1 LCL      0.172400
     11 O5         -0.2700    2.5830    1.4700 oh        1 LCL     -0.603800
     12 C6          1.3560    1.3190    0.2000 ca        1 LCL     -0.080300
     13 C7          1.6940    0.5230   -0.8980 ca        1 LCL     -0.130500
     14 C8          2.8100   -0.3110   -0.8550 ca        1 LCL     -0.067000
     15 C9          3.5970   -0.3460    0.3060 ca        1 LCL     -0.172200
     16 N9          4.7890   -1.2330    0.3610 no        1 LCL      0.312200
     17 O9A         5.0660   -1.8970   -0.6010 o         1 LCL     -0.206500
     18 O9B         5.4460   -1.2620    1.3680 o         1 LCL     -0.206500
     19 C10         3.2710    0.4480    1.4170 ca        1 LCL     -0.067000
     20 C11         2.1550    1.2750    1.3520 ca        1 LCL     -0.130500
     21 H1         -2.3140   -2.5250   -1.5160 h2        1 LCL      0.134700
     22 H2         -2.2320    0.6370    0.4010 hn        1 LCL      0.332500
     23 H3         -0.5820    1.7420   -1.7970 h1        1 LCL      0.097700
     24 H4         -1.5010    3.9530   -0.9780 h1        1 LCL      0.059700
     25 H5         -2.7960    2.7920   -1.5640 h1        1 LCL      0.059700
     26 H6         -2.1870    3.4190    1.1160 ho        1 LCL      0.422000
     27 H7          0.5770    3.2700   -0.2220 h1        1 LCL      0.094700
     28 H8         -0.4980    1.7520    1.9080 ho        1 LCL      0.416000
     29 H9          1.0730    0.5220   -1.8110 ha        1 LCL      0.164000
     30 H10         3.0670   -0.9400   -1.7250 ha        1 LCL      0.174000
     31 H13         3.8940    0.4170    2.3270 ha        1 LCL      0.174000
     32 H14         1.9000    1.9110    2.2160 ha        1 LCL      0.164000
@<TRIPOS>BOND
     1    1    2 1   
     2    1    3 1   
     3    1    4 1   
     4    1   21 1   
     5    4    5 2   
     6    4    6 1   
     7    6    7 1   
     8    6   22 1   
     9    7    8 1   
    10    7   10 1   
    11    7   23 1   
    12    8    9 1   
    13    8   24 1   
    14    8   25 1   
    15    9   26 1   
    16   10   11 1   
    17   10   12 1   
    18   10   27 1   
    19   11   28 1   
    20   12   13 ar  
    21   12   20 ar  
    22   13   14 ar  
    23   13   29 1   
    24   14   15 ar  
    25   14   30 1   
    26   15   16 1   
    27   15   19 ar  
    28   16   17 1   
    29   16   18 1   
    30   19   20 ar  
    31   19   31 1   
    32   20   32 1   
@<TRIPOS>SUBSTRUCTURE
     1 LCL         1 TEMP              0 ****  ****    0 ROOT
