@<TRIPOS>MOLECULE
LCL
   33    33     1     0     0
SMALL
bcc


@<TRIPOS>ATOM
      1 C1         -0.1820    0.1440    0.3340 c3        1 LCL      0.020100
      2 CL1        -0.5700   -1.3350   -0.5020 cl        1 LCL     -0.049900
      3 CL2         1.5230    0.3360    0.6150 cl        1 LCL     -0.049900
      4 C2         -0.7120    1.3260   -0.4610 c         1 LCL      0.529100
      5 O2         -1.5670    2.1070   -0.0820 o         1 LCL     -0.371100
      6 N2         -0.1070    1.5090   -1.8210 n4        1 LCL     -0.665800
      7 C3         -0.6260    2.6990   -2.5800 c3        1 LCL      0.081500
      8 C4          0.1260    3.9850   -2.1530 c3        1 LCL      0.121400
      9 O4          1.5090    3.7450   -2.0700 oh        1 LCL     -0.595800
     10 C5         -0.4770    2.4740   -4.1090 c3        1 LCL      0.174400
     11 O5          0.9160    2.3220   -4.3390 oh        1 LCL     -0.625800
     12 C6         -1.2720    1.2880   -4.5680 ca        1 LCL     -0.160300
     13 C7         -2.6430    1.4340   -4.8040 ca        1 LCL     -0.137500
     14 C8         -3.4020    0.3510   -5.2440 ca        1 LCL     -0.056000
     15 C9         -2.7730   -0.8870   -5.4470 ca        1 LCL     -0.152200
     16 N9         -3.5800   -2.0590   -5.9080 no        1 LCL      0.312200
     17 O9A        -4.7480   -1.8970   -6.1200 o         1 LCL     -0.174500
     18 O9B        -3.0250   -3.1130   -6.0370 o         1 LCL     -0.174500
     19 C10        -1.3950   -1.0410   -5.2280 ca        1 LCL     -0.056000
     20 C11        -0.6530    0.0520   -4.7860 ca        1 LCL     -0.137500
     21 H1         -0.7000    0.1220    1.3350 h2        1 LCL      0.178700
     22 H2          0.9190    1.6430   -1.7170 hn        1 LCL      0.487300
     23 H3         -1.7260    2.8180   -2.3490 hx        1 LCL      0.130700
     24 H4         -0.1260    4.7990   -2.8810 h1        1 LCL      0.094200
     25 H5         -0.1900    4.2870   -1.1160 h1        1 LCL      0.094200
     26 H6          1.8850    3.8040   -2.9620 ho        1 LCL      0.442000
     27 H7         -0.8510    3.4080   -4.6220 h1        1 LCL      0.098700
     28 H8          1.0510    2.2470   -5.2950 ho        1 LCL      0.455000
     29 H9         -3.1330    2.4110   -4.6590 ha        1 LCL      0.156500
     30 H10        -4.4850    0.4660   -5.4370 ha        1 LCL      0.193500
     31 H13        -0.9060   -2.0160   -5.4130 ha        1 LCL      0.193500
     32 H14         0.4350   -0.0550   -4.6440 ha        1 LCL      0.156500
     33 H22        -0.2670    0.6570   -2.3810 hn        1 LCL      0.487300
@<TRIPOS>BOND
     1    1    2 1   
     2    1    3 1   
     3    1    4 1   
     4    1   21 1   
     5    4    5 2   
     6    4    6 1   
     7    6    7 1   
     8    6   22 1   
     9    6   33 1   
    10    7    8 1   
    11    7   10 1   
    12    7   23 1   
    13    8    9 1   
    14    8   24 1   
    15    8   25 1   
    16    9   26 1   
    17   10   11 1   
    18   10   12 1   
    19   10   27 1   
    20   11   28 1   
    21   12   13 ar  
    22   12   20 ar  
    23   13   14 ar  
    24   13   29 1   
    25   14   15 ar  
    26   14   30 1   
    27   15   16 1   
    28   15   19 ar  
    29   16   17 1   
    30   16   18 1   
    31   19   20 ar  
    32   19   31 1   
    33   20   32 1   
@<TRIPOS>SUBSTRUCTURE
     1 LCL         1 TEMP              0 ****  ****    0 ROOT
