@<TRIPOS>MOLECULE
LCL
   32    32     1     0     0
SMALL
bcc


@<TRIPOS>ATOM
      1 C1         -0.1520    0.2060    0.1570 c3        1 LCL      0.056100
      2 CL1        -0.0670   -1.2660   -0.7850 cl        1 LCL     -0.123900
      3 CL2         1.4130    0.6540    0.7990 cl        1 LCL     -0.123900
      4 C2         -0.7310    1.3450   -0.6830 c         1 LCL      0.655100
      5 O2         -1.7860    1.8960   -0.3220 o         1 LCL     -0.575100
      6 N2         -0.0200    1.7390   -1.7920 n         1 LCL     -0.548900
      7 C3         -0.5360    2.7220   -2.7140 c3        1 LCL      0.030700
      8 C4          0.0880    4.1200   -2.4960 c3        1 LCL      0.112400
      9 O4          1.4710    4.1390   -2.7810 oh        1 LCL     -0.608800
     10 C5         -0.3280    2.3020   -4.1990 c3        1 LCL      0.178400
     11 O5          1.0220    1.9320   -4.4340 oh        1 LCL     -0.607800
     12 C6         -1.2130    1.1480   -4.5690 ca        1 LCL     -0.051300
     13 C7         -2.5990    1.3490   -4.6240 ca        1 LCL     -0.125000
     14 C8         -3.4520    0.3060   -4.9720 ca        1 LCL     -0.067500
     15 C9         -2.9050   -0.9520   -5.2740 ca        1 LCL     -0.173200
     16 N9         -3.8080   -2.0730   -5.6490 no        1 LCL      0.313200
     17 O9A        -4.9920   -1.8740   -5.7000 o         1 LCL     -0.207000
     18 O9B        -3.3300   -3.1490   -5.8910 o         1 LCL     -0.207000
     19 C10        -1.5180   -1.1640   -5.2280 ca        1 LCL     -0.067500
     20 C11        -0.6810   -0.1080   -4.8750 ca        1 LCL     -0.125000
     21 H1         -0.8290    0.0090    1.0280 h2        1 LCL      0.134700
     22 H2          0.7500    1.1930   -2.1090 hn        1 LCL      0.335500
     23 H3         -1.6510    2.8320   -2.5370 h1        1 LCL      0.095700
     24 H4         -0.3660    4.8430   -3.2280 h1        1 LCL      0.064200
     25 H5         -0.1110    4.4720   -1.4500 h1        1 LCL      0.064200
     26 H6          1.9250    3.6890   -2.0580 ho        1 LCL      0.413000
     27 H7         -0.5980    3.1900   -4.8420 h1        1 LCL      0.062700
     28 H8          1.5490    2.7420   -4.3700 ho        1 LCL      0.435000
     29 H9         -3.0240    2.3380   -4.3910 ha        1 LCL      0.157500
     30 H10        -4.5430    0.4640   -5.0120 ha        1 LCL      0.173000
     31 H13        -1.0970   -2.1550   -5.4700 ha        1 LCL      0.173000
     32 H14         0.4100   -0.2610   -4.8440 ha        1 LCL      0.157500
@<TRIPOS>BOND
     1    1    2 1   
     2    1    3 1   
     3    1    4 1   
     4    1   21 1   
     5    4    5 2   
     6    4    6 1   
     7    6    7 1   
     8    6   22 1   
     9    7    8 1   
    10    7   10 1   
    11    7   23 1   
    12    8    9 1   
    13    8   24 1   
    14    8   25 1   
    15    9   26 1   
    16   10   11 1   
    17   10   12 1   
    18   10   27 1   
    19   11   28 1   
    20   12   13 ar  
    21   12   20 ar  
    22   13   14 ar  
    23   13   29 1   
    24   14   15 ar  
    25   14   30 1   
    26   15   16 1   
    27   15   19 ar  
    28   16   17 1   
    29   16   18 1   
    30   19   20 ar  
    31   19   31 1   
    32   20   32 1   
@<TRIPOS>SUBSTRUCTURE
     1 LCL         1 TEMP              0 ****  ****    0 ROOT
