@<TRIPOS>MOLECULE
LCL
   32    29     1     0     0
SMALL
bcc


@<TRIPOS>ATOM
      1 C1          3.3300    0.8000    3.1290 c3        1 LCL     -0.080000
      2 CL1         3.4110    2.3240    3.9720 cl        1 LCL     -0.047000
      3 CL2         3.5830   -0.5020    4.2560 cl        1 LCL     -0.047000
      4 C2          1.9550    0.6550    2.4740 c2        1 LCL      0.305000
      5 O2          1.0100    0.1840    3.1150 o         1 LCL     -0.349000
      6 N2          1.7980    0.9650    1.1220 n         1 LCL     -0.343000
      7 C3          0.4890    1.0620    0.5620 c3        1 LCL     -0.060000
      8 C4          0.0120    2.4510    0.6650 c3        1 LCL     -0.022000
      9 O4         -0.6310    2.6390    1.9220 oh        1 LCL     -0.311000
     10 C5          0.5210    0.6420   -0.9180 c3        1 LCL      0.045000
     11 O5          1.7970    0.1260   -1.2450 oh        1 LCL     -0.311000
     12 C6         -0.5070   -0.4000   -1.1520 c2        1 LCL     -0.071000
     13 C7         -1.7980   -0.0340   -1.5660 c2        1 LCL     -0.129000
     14 C8         -2.7230   -1.0180   -1.9180 c1        1 LCL     -0.066000
     15 C9         -2.3660   -2.3460   -1.8570 c1        1 LCL     -0.125000
     16 N9         -3.3250   -3.3850   -2.2390 n2        1 LCL      0.459400
     17 O9A        -4.6970   -3.0780   -2.3540 o         1 LCL     -0.300700
     18 O9B        -2.9310   -4.5360   -2.4540 o         1 LCL     -0.300700
     19 C10        -1.0560   -2.7140   -1.4370 c1        1 LCL     -0.062000
     20 C11        -0.1520   -1.7500   -1.0930 c1        1 LCL     -0.130000
     21 H1          4.0080    0.7740    2.4550 h2        1 LCL      0.175000
     22 H2          2.5600    1.1470    0.5870 hn        1 LCL      0.234000
     23 H3         -0.0780    0.5090    1.0210 h1        1 LCL      0.140000
     24 H4         -0.6250    2.6320   -0.0590 h1        1 LCL      0.096500
     25 H5          0.7950    3.0810    0.5900 h1        1 LCL      0.096500
     26 H6         -1.0640    3.4080    1.9210 ho        1 LCL      0.208000
     27 H7          0.3290    1.4270   -1.4870 h1        1 LCL      0.124000
     28 H8          2.0920    0.5170   -1.9950 ho        1 LCL      0.221000
     29 H9         -2.0380    0.8710   -1.6050 ha        1 LCL      0.148000
     30 H10        -3.6790   -0.7480   -2.2240 ha        1 LCL      0.174000
     31 H13        -0.7940   -3.6910   -1.3930 ha        1 LCL      0.175000
     32 H14         0.7740   -2.0130   -0.7960 ha        1 LCL      0.157000
@<TRIPOS>BOND
     1    1    2 1   
     2    1    3 1   
     3    1    4 1   
     4    1   21 1   
     5    4    5 1   
     6    4    6 1   
     7    6    7 1   
     8    6   22 1   
     9    7    8 1   
    10    7   10 1   
    11    7   23 1   
    12    8    9 1   
    13    8   24 1   
    14    8   25 1   
    15    9   26 1   
    16   10   11 1   
    17   10   12 1   
    18   10   27 1   
    19   11   28 1   
    20   12   13 1   
    21   12   20 1   
    22   13   14 1   
    23   13   29 1   
    24   14   30 1   
    25   15   19 1   
    26   16   17 2   
    27   16   18 2   
    28   19   31 1   
    29   20   32 1   
@<TRIPOS>SUBSTRUCTURE
     1 LCL         1 TEMP              0 ****  ****    0 ROOT
