@<TRIPOS>MOLECULE
LCM
   48    49     1     0     0
SMALL
bcc


@<TRIPOS>ATOM
      1 C1          0.6290    0.2370   -0.3770 ca        1 LCM     -0.085000
      2 C2          1.1790   -0.6900    0.5120 ca        1 LCM      0.062100
      3 C3          1.1800   -0.4440    1.9060 ca        1 LCM      0.156100
      4 C4          0.6200    0.7490    2.4050 ca        1 LCM     -0.215600
      5 C5          0.0690    1.6750    1.4870 ca        1 LCM     -0.048000
      6 C6          0.0750    1.4190    0.1230 ca        1 LCM     -0.113000
      7 C7          0.5480    1.1420    3.8050 c         1 LCM      0.590700
      8 N8          1.1310    0.1780    4.8340 ny        1 LCM     -0.670800
      9 O9          0.0690    2.1660    4.2770 o         1 LCM     -0.439100
     10 C10         1.0110    0.6670    6.2330 c3        1 LCM      0.105800
     11 C11         1.5970   -0.2990    7.2580 c3        1 LCM     -0.102400
     12 C12         1.4260    0.2870    8.6490 c3        1 LCM     -0.102400
     13 C13         2.0120   -0.6790    9.6740 c3        1 LCM      0.105800
     14 N14         1.8920   -0.1900   11.0730 ny        1 LCM     -0.670800
     15 C15         2.4780   -1.1530   12.1020 c         1 LCM      0.590700
     16 C16         2.4070   -0.7590   13.5020 ca        1 LCM     -0.215600
     17 O17         2.9560   -2.1770   11.6300 o         1 LCM     -0.439100
     18 C18         1.8440    0.4330   14.0020 ca        1 LCM      0.156100
     19 C19         1.8480    0.6790   15.3950 ca        1 LCM      0.062100
     20 C20         2.4030   -0.2450   16.2830 ca        1 LCM     -0.085000
     21 C21         2.9590   -1.4250   15.7830 ca        1 LCM     -0.113000
     22 C22         2.9640   -1.6820   14.4200 ca        1 LCM     -0.048000
     23 O23         1.2980    1.3400   13.1270 oh        1 LCM     -0.563100
     24 O24         1.2730    1.8700   15.7710 oh        1 LCM     -0.508100
     25 O25         1.7200   -1.3550    2.7810 oh        1 LCM     -0.563100
     26 O26         1.7490   -1.8830    0.1370 oh        1 LCM     -0.508100
     27 H1          0.6320    0.0370   -1.4620 ha        1 LCM      0.179000
     28 H5         -0.3720    2.6120    1.8710 ha        1 LCM      0.179000
     29 H6         -0.3600    2.1550   -0.5750 ha        1 LCM      0.184000
     30 HN8         2.1190    0.0180    4.5920 hn        1 LCM      0.468800
     31 H10        -0.0850    0.8420    6.4420 hx        1 LCM      0.117700
     32 H10A        1.5350    1.6660    6.2930 hx        1 LCM      0.117700
     33 H11         1.0760   -1.2930    7.2020 hc        1 LCM      0.076700
     34 H11A        2.6880   -0.4730    7.0540 hc        1 LCM      0.076700
     35 H12         0.3350    0.4600    8.8540 hc        1 LCM      0.076700
     36 H12A        1.9460    1.2810    8.7050 hc        1 LCM      0.076700
     37 H13         3.1080   -0.8530    9.4650 hx        1 LCM      0.117700
     38 H13A        1.4890   -1.6780    9.6140 hx        1 LCM      0.117700
     39 HN14        0.9040   -0.0320   11.3160 hn        1 LCM      0.468800
     40 H20         2.4010   -0.0440   17.3680 ha        1 LCM      0.179000
     41 H21         3.4000   -2.1580   16.4810 ha        1 LCM      0.184000
     42 H22         3.4070   -2.6190   14.0350 ha        1 LCM      0.179000
     43 HO23        0.9550    2.1020   13.6300 ho        1 LCM      0.495000
     44 HO24        1.3220    1.9500   16.7380 ho        1 LCM      0.466000
     45 HO25        2.0610   -2.1180    2.2780 ho        1 LCM      0.495000
     46 HO26        1.7020   -1.9620   -0.8300 ho        1 LCM      0.466000
     47 H82         0.6520   -0.7270    4.7260 hn        1 LCM      0.468800
     48 H142        2.3690    0.7160   11.1810 hn        1 LCM      0.468800
@<TRIPOS>BOND
     1    1    2 ar  
     2    1    6 ar  
     3    1   27 1   
     4    2    3 ar  
     5    2   26 1   
     6    3    4 ar  
     7    3   25 1   
     8    4    5 ar  
     9    4    7 1   
    10    5    6 ar  
    11    5   28 1   
    12    6   29 1   
    13    7    8 1   
    14    7    9 2   
    15    8   10 1   
    16    8   30 1   
    17    8   47 1   
    18   10   11 1   
    19   10   31 1   
    20   10   32 1   
    21   11   12 1   
    22   11   33 1   
    23   11   34 1   
    24   12   13 1   
    25   12   35 1   
    26   12   36 1   
    27   13   14 1   
    28   13   37 1   
    29   13   38 1   
    30   14   15 1   
    31   14   39 1   
    32   14   48 1   
    33   15   16 1   
    34   15   17 2   
    35   16   18 ar  
    36   16   22 ar  
    37   18   19 ar  
    38   18   23 1   
    39   19   20 ar  
    40   19   24 1   
    41   20   21 ar  
    42   20   40 1   
    43   21   22 ar  
    44   21   41 1   
    45   22   42 1   
    46   23   43 1   
    47   24   44 1   
    48   25   45 1   
    49   26   46 1   
@<TRIPOS>SUBSTRUCTURE
     1 LCM         1 TEMP              0 ****  ****    0 ROOT
