@<TRIPOS>MOLECULE
LCM
   48    49     1     0     0
SMALL
bcc


@<TRIPOS>ATOM
      1 C1          0.8600    0.0150   -0.4010 ca        1 LCM     -0.085000
      2 C2         -0.0660    0.0690    0.6420 ca        1 LCM      0.062100
      3 C3          0.3600    0.0500    1.9910 ca        1 LCM      0.156100
      4 C4          1.7360   -0.0240    2.2870 ca        1 LCM     -0.215600
      5 C5          2.6580   -0.0770    1.2150 ca        1 LCM     -0.048000
      6 C6          2.2230   -0.0580   -0.1020 ca        1 LCM     -0.113000
      7 C7          2.3260   -0.0520    3.6190 c         1 LCM      0.590700
      8 N8          1.3730    0.0010    4.8090 n4        1 LCM     -0.670800
      9 O9          3.5130   -0.1140    3.9150 o         1 LCM     -0.439100
     10 C10         2.0680   -0.0340    6.1220 c3        1 LCM      0.105800
     11 C11         1.1110    0.0180    7.3090 c3        1 LCM     -0.102400
     12 C12         1.9140   -0.0230    8.5980 c3        1 LCM     -0.102400
     13 C13         0.9580    0.0280    9.7850 c3        1 LCM      0.105800
     14 N14         1.6530   -0.0060   11.0980 n4        1 LCM     -0.670800
     15 C15         0.7000    0.0440   12.2880 c         1 LCM      0.590700
     16 C16         1.2900    0.0140   13.6200 ca        1 LCM     -0.215600
     17 O17        -0.4870    0.1060   11.9920 o         1 LCM     -0.439100
     18 C18         2.6660   -0.0560   13.9160 ca        1 LCM      0.156100
     19 C19         3.0920   -0.0770   15.2650 ca        1 LCM      0.062100
     20 C20         2.1650   -0.0310   16.3080 ca        1 LCM     -0.085000
     21 C21         0.8020    0.0380   16.0100 ca        1 LCM     -0.113000
     22 C22         0.3670    0.0600   14.6930 ca        1 LCM     -0.048000
     23 O23         3.5760   -0.1020   12.8880 oh        1 LCM     -0.563100
     24 O24         4.4540   -0.1460   15.4370 oh        1 LCM     -0.508100
     25 O25        -0.5500    0.1020    3.0190 oh        1 LCM     -0.563100
     26 O26        -1.4280    0.1420    0.4700 oh        1 LCM     -0.508100
     27 H1          0.5180    0.0310   -1.4500 ha        1 LCM      0.179000
     28 H5          3.7390   -0.1350    1.4400 ha        1 LCM      0.179000
     29 H6          2.9600   -0.1000   -0.9240 ha        1 LCM      0.184000
     30 HN8         0.8080    0.8580    4.7230 hn        1 LCM      0.468800
     31 H10         2.6850   -0.9800    6.1580 hx        1 LCM      0.117700
     32 H10A        2.7820    0.8410    6.1560 hx        1 LCM      0.117700
     33 H11         0.4020   -0.8520    7.2790 hc        1 LCM      0.076700
     34 H11A        0.4980    0.9590    7.2770 hc        1 LCM      0.076700
     35 H12         2.5280   -0.9630    8.6300 hc        1 LCM      0.076700
     36 H12A        2.6230    0.8480    8.6280 hc        1 LCM      0.076700
     37 H13         0.2450   -0.8480    9.7510 hx        1 LCM      0.117700
     38 H13A        0.3400    0.9740    9.7490 hx        1 LCM      0.117700
     39 HN14        2.2200   -0.8620   11.1840 hn        1 LCM      0.468800
     40 H20         2.5070   -0.0480   17.3580 ha        1 LCM      0.179000
     41 H21         0.0650    0.0750   16.8310 ha        1 LCM      0.184000
     42 H22        -0.7130    0.1150   14.4680 ha        1 LCM      0.179000
     43 HO23        4.4770   -0.1460   13.2610 ho        1 LCM      0.495000
     44 HO24        4.6490   -0.1560   16.3890 ho        1 LCM      0.466000
     45 HO25       -1.4510    0.1500    2.6460 ho        1 LCM      0.495000
     46 HO26       -1.6240    0.1500   -0.4820 ho        1 LCM      0.466000
     47 H82         0.7200   -0.7900    4.7250 hn        1 LCM      0.468800
     48 H142        2.3050    0.7870   11.1820 hn        1 LCM      0.468800
@<TRIPOS>BOND
     1    1    2 ar  
     2    1    6 ar  
     3    1   27 1   
     4    2    3 ar  
     5    2   26 1   
     6    3    4 ar  
     7    3   25 1   
     8    4    5 ar  
     9    4    7 1   
    10    5    6 ar  
    11    5   28 1   
    12    6   29 1   
    13    7    8 1   
    14    7    9 2   
    15    8   10 1   
    16    8   30 1   
    17    8   47 1   
    18   10   11 1   
    19   10   31 1   
    20   10   32 1   
    21   11   12 1   
    22   11   33 1   
    23   11   34 1   
    24   12   13 1   
    25   12   35 1   
    26   12   36 1   
    27   13   14 1   
    28   13   37 1   
    29   13   38 1   
    30   14   15 1   
    31   14   39 1   
    32   14   48 1   
    33   15   16 1   
    34   15   17 2   
    35   16   18 ar  
    36   16   22 ar  
    37   18   19 ar  
    38   18   23 1   
    39   19   20 ar  
    40   19   24 1   
    41   20   21 ar  
    42   20   40 1   
    43   21   22 ar  
    44   21   41 1   
    45   22   42 1   
    46   23   43 1   
    47   24   44 1   
    48   25   45 1   
    49   26   46 1   
@<TRIPOS>SUBSTRUCTURE
     1 LCM         1 TEMP              0 ****  ****    0 ROOT
