@<TRIPOS>MOLECULE
LCM
   48    49     1     0     0
SMALL
bcc


@<TRIPOS>ATOM
      1 C1          0.6290    0.1990   -0.3780 ca        1 LCM     -0.085000
      2 C2          1.2030   -0.7110    0.5130 ca        1 LCM      0.062100
      3 C3          1.1980   -0.4630    1.9060 ca        1 LCM      0.156100
      4 C4          0.6070    0.7160    2.4020 ca        1 LCM     -0.215600
      5 C5          0.0300    1.6250    1.4830 ca        1 LCM     -0.048000
      6 C6          0.0440    1.3660    0.1200 ca        1 LCM     -0.113000
      7 C7          0.5240    1.1100    3.8020 c         1 LCM      0.590700
      8 N8          1.1310    0.1640    4.8330 n4        1 LCM     -0.670800
      9 O9          0.0190    2.1230    4.2710 o         1 LCM     -0.439100
     10 C10         0.9970    0.6510    6.2310 c3        1 LCM      0.105800
     11 C11         1.6060   -0.2980    7.2590 c3        1 LCM     -0.102400
     12 C12         1.4190    0.2870    8.6480 c3        1 LCM     -0.102400
     13 C13         2.0280   -0.6620    9.6760 c3        1 LCM      0.105800
     14 N14         1.8940   -0.1740   11.0740 n4        1 LCM     -0.670800
     15 C15         2.5020   -1.1210   12.1050 c         1 LCM      0.590700
     16 C16         2.4190   -0.7270   13.5050 ca        1 LCM     -0.215600
     17 O17         3.0060   -2.1340   11.6360 o         1 LCM     -0.439100
     18 C18         1.8280    0.4520   14.0010 ca        1 LCM      0.156100
     19 C19         1.8230    0.7000   15.3940 ca        1 LCM      0.062100
     20 C20         2.3980   -0.2090   16.2850 ca        1 LCM     -0.085000
     21 C21         2.9820   -1.3770   15.7870 ca        1 LCM     -0.113000
     22 C22         2.9960   -1.6360   14.4250 ca        1 LCM     -0.048000
     23 O23         1.2640    1.3460   13.1240 oh        1 LCM     -0.563100
     24 O24         1.2210    1.8790   15.7670 oh        1 LCM     -0.508100
     25 O25         1.7620   -1.3570    2.7830 oh        1 LCM     -0.563100
     26 O26         1.8050   -1.8890    0.1400 oh        1 LCM     -0.508100
     27 H1          0.6370   -0.0040   -1.4620 ha        1 LCM      0.179000
     28 H5         -0.4350    2.5510    1.8650 ha        1 LCM      0.179000
     29 H6         -0.4120    2.0880   -0.5800 ha        1 LCM      0.184000
     30 HN8         2.1230    0.0290    4.5920 hn        1 LCM      0.468800
     31 H10        -0.1030    0.7990    6.4390 hx        1 LCM      0.117700
     32 H10A        1.4960    1.6630    6.2900 hx        1 LCM      0.117700
     33 H11         1.1110   -1.3040    7.2040 hc        1 LCM      0.076700
     34 H11A        2.7010   -0.4450    7.0560 hc        1 LCM      0.076700
     35 H12         0.3240    0.4340    8.8510 hc        1 LCM      0.076700
     36 H12A        1.9150    1.2940    8.7030 hc        1 LCM      0.076700
     37 H13         3.1290   -0.8100    9.4680 hx        1 LCM      0.117700
     38 H13A        1.5300   -1.6740    9.6170 hx        1 LCM      0.117700
     39 HN14        0.9030   -0.0400   11.3150 hn        1 LCM      0.468800
     40 H20         2.3890   -0.0070   17.3690 ha        1 LCM      0.179000
     41 H21         3.4380   -2.0990   16.4870 ha        1 LCM      0.184000
     42 H22         3.4610   -2.5620   14.0420 ha        1 LCM      0.179000
     43 HO23        0.9020    2.1010   13.6250 ho        1 LCM      0.495000
     44 HO24        1.2660    1.9620   16.7340 ho        1 LCM      0.466000
     45 HO25        2.1240   -2.1120    2.2820 ho        1 LCM      0.495000
     46 HO26        1.7600   -1.9720   -0.8270 ho        1 LCM      0.466000
     47 H82         0.6760   -0.7540    4.7260 hn        1 LCM      0.468800
     48 H142        2.3500    0.7430   11.1810 hn        1 LCM      0.468800
@<TRIPOS>BOND
     1    1    2 ar  
     2    1    6 ar  
     3    1   27 1   
     4    2    3 ar  
     5    2   26 1   
     6    3    4 ar  
     7    3   25 1   
     8    4    5 ar  
     9    4    7 1   
    10    5    6 ar  
    11    5   28 1   
    12    6   29 1   
    13    7    8 1   
    14    7    9 2   
    15    8   10 1   
    16    8   30 1   
    17    8   47 1   
    18   10   11 1   
    19   10   31 1   
    20   10   32 1   
    21   11   12 1   
    22   11   33 1   
    23   11   34 1   
    24   12   13 1   
    25   12   35 1   
    26   12   36 1   
    27   13   14 1   
    28   13   37 1   
    29   13   38 1   
    30   14   15 1   
    31   14   39 1   
    32   14   48 1   
    33   15   16 1   
    34   15   17 2   
    35   16   18 ar  
    36   16   22 ar  
    37   18   19 ar  
    38   18   23 1   
    39   19   20 ar  
    40   19   24 1   
    41   20   21 ar  
    42   20   40 1   
    43   21   22 ar  
    44   21   41 1   
    45   22   42 1   
    46   23   43 1   
    47   24   44 1   
    48   25   45 1   
    49   26   46 1   
@<TRIPOS>SUBSTRUCTURE
     1 LCM         1 TEMP              0 ****  ****    0 ROOT
