@<TRIPOS>MOLECULE
LCM
   46    47     1     0     0
SMALL
bcc


@<TRIPOS>ATOM
      1 C1         -7.8430    1.6170   -0.0190 ca        1 LCM     -0.115000
      2 C2         -7.8120    0.2310   -0.1900 ca        1 LCM      0.099100
      3 C3         -6.5720   -0.4560   -0.2530 ca        1 LCM      0.112100
      4 C4         -5.3720    0.2590   -0.1210 ca        1 LCM     -0.186600
      5 C5         -5.4220    1.6530    0.0330 ca        1 LCM     -0.113000
      6 C6         -6.6410    2.3190    0.0840 ca        1 LCM     -0.135000
      7 C7         -4.0690   -0.4610   -0.1770 c         1 LCM      0.680700
      8 N8         -3.0540   -0.0180    0.6420 n         1 LCM     -0.553900
      9 O9         -3.9140   -1.4680   -0.9060 o         1 LCM     -0.639100
     10 C10        -1.7300   -0.5760    0.6080 c3        1 LCM      0.086000
     11 C11        -0.6770    0.3360   -0.0260 c3        1 LCM     -0.103400
     12 C12         0.6770   -0.3360    0.0250 c3        1 LCM     -0.103400
     13 C13         1.7300    0.5760   -0.6090 c3        1 LCM      0.086000
     14 N14         3.0540    0.0180   -0.6430 n         1 LCM     -0.553900
     15 C15         4.0690    0.4610    0.1760 c         1 LCM      0.680700
     16 C16         5.3720   -0.2590    0.1210 ca        1 LCM     -0.186600
     17 O17         3.9140    1.4690    0.9050 o         1 LCM     -0.639100
     18 C18         6.5720    0.4560    0.2530 ca        1 LCM      0.112100
     19 C19         7.8120   -0.2310    0.1910 ca        1 LCM      0.099100
     20 C20         7.8430   -1.6170    0.0210 ca        1 LCM     -0.115000
     21 C21         6.6410   -2.3190   -0.0820 ca        1 LCM     -0.135000
     22 C22         5.4220   -1.6530   -0.0320 ca        1 LCM     -0.113000
     23 O23         6.6740    1.8150    0.4130 oh        1 LCM     -0.525100
     24 O24         9.0170    0.4220    0.2880 oh        1 LCM     -0.493100
     25 O25        -6.6740   -1.8140   -0.4140 oh        1 LCM     -0.525100
     26 O26        -9.0170   -0.4220   -0.2880 oh        1 LCM     -0.493100
     27 H1         -8.8120    2.1340    0.0240 ha        1 LCM      0.157000
     28 H5         -4.4920    2.2370    0.0950 ha        1 LCM      0.133000
     29 H6         -6.6640    3.4120    0.2030 ha        1 LCM      0.141000
     30 HN8        -3.1840    0.8150    1.1660 hn        1 LCM      0.314500
     31 H10        -1.4220   -0.7990    1.6710 h1        1 LCM      0.065700
     32 H10A       -1.7620   -1.5500    0.0390 h1        1 LCM      0.065700
     33 H11        -0.9520    0.5570   -1.0900 hc        1 LCM      0.049200
     34 H11A       -0.6330    1.3150    0.5200 hc        1 LCM      0.049200
     35 H12         0.9520   -0.5560    1.0900 hc        1 LCM      0.049200
     36 H12A        0.6330   -1.3150   -0.5210 hc        1 LCM      0.049200
     37 H13         1.4220    0.7990   -1.6710 h1        1 LCM      0.065700
     38 H13A        1.7620    1.5510   -0.0400 h1        1 LCM      0.065700
     39 HN14        3.1840   -0.8150   -1.1660 hn        1 LCM      0.314500
     40 H20         8.8120   -2.1350   -0.0220 ha        1 LCM      0.157000
     41 H21         6.6630   -3.4130   -0.2010 ha        1 LCM      0.141000
     42 H22         4.4920   -2.2370   -0.0940 ha        1 LCM      0.133000
     43 HO23        5.8170    2.1710    0.7050 ho        1 LCM      0.469000
     44 HO24        8.8400    1.3610    0.4630 ho        1 LCM      0.442000
     45 HO25       -5.8170   -2.1710   -0.7070 ho        1 LCM      0.469000
     46 HO26       -8.8400   -1.3610   -0.4620 ho        1 LCM      0.442000
@<TRIPOS>BOND
     1    1    2 ar  
     2    1    6 ar  
     3    1   27 1   
     4    2    3 ar  
     5    2   26 1   
     6    3    4 ar  
     7    3   25 1   
     8    4    5 ar  
     9    4    7 1   
    10    5    6 ar  
    11    5   28 1   
    12    6   29 1   
    13    7    8 1   
    14    7    9 2   
    15    8   10 1   
    16    8   30 1   
    17   10   11 1   
    18   10   31 1   
    19   10   32 1   
    20   11   12 1   
    21   11   33 1   
    22   11   34 1   
    23   12   13 1   
    24   12   35 1   
    25   12   36 1   
    26   13   14 1   
    27   13   37 1   
    28   13   38 1   
    29   14   15 1   
    30   14   39 1   
    31   15   16 1   
    32   15   17 2   
    33   16   18 ar  
    34   16   22 ar  
    35   18   19 ar  
    36   18   23 1   
    37   19   20 ar  
    38   19   24 1   
    39   20   21 ar  
    40   20   40 1   
    41   21   22 ar  
    42   21   41 1   
    43   22   42 1   
    44   23   43 1   
    45   24   44 1   
    46   25   45 1   
    47   26   46 1   
@<TRIPOS>SUBSTRUCTURE
     1 LCM         1 TEMP              0 ****  ****    0 ROOT
