@<TRIPOS>MOLECULE
LCN
   21    19     1     0     0
SMALL
bcc


@<TRIPOS>ATOM
      1 C1         -0.9620   -0.5570   -1.8490 c1        1 LCN     -0.088000
      2 C2          0.7490   -0.5570   -1.8490 c1        1 LCN     -0.100000
      3 O2          1.4530   -1.0750   -2.9530 oh        1 LCN     -0.257000
      4 C3          1.3620   -0.5570   -0.5300 c2        1 LCN      0.052000
      5 O3          2.6940   -0.0290   -0.6100 oh        1 LCN     -0.330000
      6 C4          0.4480    0.2490    0.5620 c3        1 LCN      0.012000
      7 O4          1.0430    0.0220    1.9340 oh        1 LCN     -0.321000
      8 C5         -0.7870   -0.0950    0.6000 c3        1 LCN     -0.017000
      9 O5         -1.5440    0.0270   -0.7460 o         1 LCN     -0.215000
     10 C6         -1.5320    0.8300    1.6800 c3        1 LCN     -0.012000
     11 O6         -2.9280    0.7110    1.5180 oh        1 LCN     -0.320000
     12 H1         -1.4500   -0.6000   -2.6940 ha        1 LCN      0.171000
     13 H3          1.5420   -1.4610   -0.2100 h4        1 LCN      0.107000
     14 H4          0.4950    1.2030    0.3580 h1        1 LCN      0.108000
     15 H5         -0.8390   -1.0230    0.8990 h1        1 LCN      0.119000
     16 H6         -1.2840    0.5450    2.5800 h1        1 LCN      0.105500
     17 H6A        -1.2680    1.7610    1.5490 h1        1 LCN      0.105500
     18 HO2         1.3030   -0.5660   -3.6650 ho        1 LCN      0.220000
     19 HO3         3.2500   -0.6680   -0.8740 ho        1 LCN      0.228000
     20 HO4         1.5950    0.6890    2.1310 ho        1 LCN      0.224000
     21 HO6        -3.3410    1.1510    2.1690 ho        1 LCN      0.208000
@<TRIPOS>BOND
     1    1    2 1   
     2    1   12 1   
     3    2    3 1   
     4    3   18 1   
     5    4    5 1   
     6    4    6 1   
     7    4   13 1   
     8    5   19 1   
     9    6    7 1   
    10    6    8 1   
    11    6   14 1   
    12    7   20 1   
    13    8    9 1   
    14    8   10 1   
    15    8   15 1   
    16   10   11 1   
    17   10   16 1   
    18   10   17 1   
    19   11   21 1   
@<TRIPOS>SUBSTRUCTURE
     1 LCN         1 TEMP              0 ****  ****    0 ROOT
