@<TRIPOS>MOLECULE
LCN
   21    21     1     0     0
SMALL
bcc


@<TRIPOS>ATOM
      1 C1         -0.4570   -1.6870    0.1080 c2        1 LCN     -0.043900
      2 C2         -1.4670   -0.8260   -0.1320 c2        1 LCN     -0.060100
      3 O2         -2.7890   -1.1940   -0.2670 oh        1 LCN     -0.502100
      4 C3         -1.2620    0.6450   -0.3390 c3        1 LCN      0.167300
      5 O3         -2.2140    1.4360    0.3520 oh        1 LCN     -0.602800
      6 C4          0.1190    1.0460    0.2170 c3        1 LCN      0.123100
      7 O4          0.5110    2.3040   -0.3030 oh        1 LCN     -0.593800
      8 C5          1.1680    0.0220   -0.2300 c3        1 LCN      0.094100
      9 O5          0.8550   -1.2960    0.2580 os        1 LCN     -0.330900
     10 C6          2.5460    0.3540    0.3480 c3        1 LCN      0.138400
     11 O6          3.5460   -0.4760   -0.1990 oh        1 LCN     -0.592800
     12 H1         -0.5460   -2.7710    0.2630 h4        1 LCN      0.171000
     13 H3         -1.3210    0.8800   -1.4410 h1        1 LCN      0.067700
     14 H4          0.0700    1.0940    1.3410 h1        1 LCN      0.068700
     15 H5          1.2150   -0.0220   -1.3530 h1        1 LCN      0.079700
     16 H6          2.8250    1.4000    0.0480 h1        1 LCN      0.066200
     17 H6A         2.5240    0.2610    1.4660 h1        1 LCN      0.066200
     18 HO2        -2.8770   -2.1110    0.0300 ho        1 LCN      0.421000
     19 HO3        -3.0850    1.0550    0.1770 ho        1 LCN      0.429000
     20 HO4        -0.1940    2.9230   -0.0710 ho        1 LCN      0.425000
     21 HO6         3.3140   -1.3860    0.0250 ho        1 LCN      0.409000
@<TRIPOS>BOND
     1    1    2 2   
     2    1    9 1   
     3    1   12 1   
     4    2    3 1   
     5    2    4 1   
     6    3   18 1   
     7    4    5 1   
     8    4    6 1   
     9    4   13 1   
    10    5   19 1   
    11    6    7 1   
    12    6    8 1   
    13    6   14 1   
    14    7   20 1   
    15    8    9 1   
    16    8   10 1   
    17    8   15 1   
    18   10   11 1   
    19   10   16 1   
    20   10   17 1   
    21   11   21 1   
@<TRIPOS>SUBSTRUCTURE
     1 LCN         1 TEMP              0 ****  ****    0 ROOT
