@<TRIPOS>MOLECULE
LCO
    4     3     1     0     0
SMALL
bcc


@<TRIPOS>ATOM
      1 CL          0.0100    0.0190    0.5320 cl        1 LCO      0.913000
      2 O1         -1.3730   -0.6130   -0.2600 o         1 LCO     -0.638000
      3 O2          0.0290    1.6590    0.0340 o         1 LCO     -0.638000
      4 O3          1.3110   -0.6700   -0.3460 o         1 LCO     -0.638000
@<TRIPOS>BOND
     1    1    2 1   
     2    1    3 1   
     3    1    4 1   
@<TRIPOS>SUBSTRUCTURE
     1 LCO         1 TEMP              0 ****  ****    0 ROOT
