@<TRIPOS>MOLECULE
LCO
    4     2     1     0     0
SMALL
bcc


@<TRIPOS>ATOM
      1 CL          0.0000   -0.0000   -0.0000 cl        1 LCO      0.913000
      2 O1         -1.0690    0.3150   -0.8560 o         1 LCO     -0.638000
      3 O2         -0.2210   -0.1320    1.3820 o         1 LCO     -0.638000
      4 O3          1.2890   -0.1840   -0.5260 os        1 LCO     -0.638000
@<TRIPOS>BOND
     1    1    2 1   
     2    1    3 1   
@<TRIPOS>SUBSTRUCTURE
     1 LCO         1 TEMP              0 ****  ****    0 ROOT
