@<TRIPOS>MOLECULE
LCP
    5     3     1     0     0
SMALL
bcc


@<TRIPOS>ATOM
      1 CL          0.0600   -0.0090    0.0470 cl        1 LCP      1.011000
      2 O1         -0.1120   -1.0360   -0.8970 o         1 LCP     -0.503000
      3 O2          0.0820    1.1550   -0.7420 o         1 LCP     -0.503000
      4 O3         -1.1900    0.0570    0.6850 o         1 LCP     -0.503000
      5 O4          1.1600   -0.1670    0.9060 os        1 LCP     -0.503000
@<TRIPOS>BOND
     1    1    2 1   
     2    1    3 1   
     3    1    4 1   
@<TRIPOS>SUBSTRUCTURE
     1 LCP         1 TEMP              0 ****  ****    0 ROOT
