@<TRIPOS>MOLECULE
LCS
   34    35     1     0     0
SMALL
bcc


@<TRIPOS>ATOM
      1 N1         -0.1330   -0.0550    0.0360 nb        1 LCS     -0.665000
      2 C2          1.2150   -0.2020    0.1770 ca        1 LCS      0.273600
      3 C2A         2.0850   -0.0860   -1.0300 c3        1 LCS     -0.127400
      4 C3          1.7970   -0.4440    1.4400 ca        1 LCS     -0.004200
      5 O3          3.1670   -0.5530    1.6150 oh        1 LCS     -0.535100
      6 C4          0.9830   -0.5860    2.5870 ca        1 LCS     -0.115300
      7 C4A         1.5950   -0.8080    3.9360 c3        1 LCS      0.148100
      8 C5         -0.3970   -0.4280    2.4380 ca        1 LCS     -0.089600
      9 C6         -0.8900   -0.1510    1.1280 ca        1 LCS      0.399200
     10 C5A        -1.3780   -0.5180    3.5850 c3        1 LCS      0.251700
     11 O4P        -2.6420   -0.1760    3.2130 os        1 LCS     -0.549200
     12 P          -3.3230    1.1220    4.2050 p5        1 LCS      1.304900
     13 O1P        -3.6390    0.3730    5.4670 o         1 LCS     -0.921500
     14 O2P        -2.1180    2.0230    4.2940 o         1 LCS     -0.921500
     15 O3P        -4.4650    1.5810    3.3510 o         1 LCS     -0.921500
     16 N           2.3610   -2.0270    4.0520 n2        1 LCS     -0.461900
     17 CA          3.6260   -2.0060    4.2450 ce        1 LCS      0.315300
     18 C           4.4790   -3.2470    4.3850 c         1 LCS      0.543200
     19 O           4.1460   -4.4310    4.3880 o         1 LCS     -0.548500
     20 ND          5.8470   -2.8170    4.6060 n         1 LCS     -0.325400
     21 OG          5.9320   -1.4730    4.4660 os        1 LCS     -0.289900
     22 CB          4.6110   -0.8610    4.3270 c3        1 LCS      0.025100
     23 H2A1        2.7430   -0.9860   -1.1150 hc        1 LCS      0.027367
     24 H2A2        2.7330    0.8240   -0.9490 hc        1 LCS      0.027367
     25 H2A3        1.4840   -0.0010   -1.9680 hc        1 LCS      0.027367
     26 HO3         3.5900   -0.2070    0.8190 ho        1 LCS      0.403000
     27 H4A1        2.2020    0.1140    4.1870 h1        1 LCS      0.081200
     28 H4A2        0.7720   -0.9070    4.7110 h1        1 LCS      0.081200
     29 H6         -1.9860    0.0130    1.0210 h4        1 LCS      0.084100
     30 H5A1       -1.3350   -1.6000    3.9290 h1        1 LCS      0.024700
     31 H5A2       -1.0060    0.1590    4.4160 h1        1 LCS      0.024700
     32 HND         6.4820   -3.2430    3.9380 hn        1 LCS      0.265500
     33 HB1         4.4570   -0.2170    5.2280 h1        1 LCS      0.084700
     34 HB2         4.6370   -0.2550    3.3860 h1        1 LCS      0.084700
@<TRIPOS>BOND
     1    1    2 ar  
     2    1    9 ar  
     3    2    3 1   
     4    2    4 ar  
     5    3   23 1   
     6    3   24 1   
     7    3   25 1   
     8    4    5 1   
     9    4    6 ar  
    10    5   26 1   
    11    6    7 1   
    12    6    8 ar  
    13    7   16 1   
    14    7   27 1   
    15    7   28 1   
    16    8    9 ar  
    17    8   10 1   
    18    9   29 1   
    19   10   11 1   
    20   10   30 1   
    21   10   31 1   
    22   11   12 1   
    23   12   13 1   
    24   12   14 1   
    25   12   15 1   
    26   16   17 2   
    27   17   18 1   
    28   17   22 1   
    29   18   19 2   
    30   18   20 1   
    31   20   21 1   
    32   20   32 1   
    33   21   22 1   
    34   22   33 1   
    35   22   34 1   
@<TRIPOS>SUBSTRUCTURE
     1 LCS         1 TEMP              0 ****  ****    0 ROOT
