@<TRIPOS>MOLECULE
LCS
   34    31     1     0     0
SMALL
bcc


@<TRIPOS>ATOM
      1 N1         -1.4100    0.2440   -3.2080 n1        1 LCS     -0.125000
      2 C2         -0.0520    0.2780   -3.2220 c1        1 LCS     -0.158000
      3 C2A         0.7050    0.2420   -4.5610 c3        1 LCS     -0.153000
      4 C3          0.6540    0.3100   -2.0260 c1        1 LCS      0.039000
      5 O3          2.0620    0.3420   -2.0390 o         1 LCS     -0.271000
      6 C4         -0.0150    0.3080   -0.8400 c2        1 LCS     -0.185000
      7 C4A         0.7910    0.3640    0.5160 c3        1 LCS      0.066000
      8 C5         -1.3810    0.2740   -0.8260 c1        1 LCS      0.013000
      9 C6         -2.0830    0.2420   -2.0190 c1        1 LCS     -0.081000
     10 C5A        -2.1350    0.3380    0.5010 c3        1 LCS      0.031000
     11 O4P        -3.5630    0.2550    0.2440 os        1 LCS     -0.713000
     12 P          -4.5570    0.1800    1.4770 p5        1 LCS      1.540500
     13 O1P        -5.9990    0.1120    0.9660 o         1 LCS     -0.920833
     14 O2P        -4.2530   -1.0710    2.3050 o         1 LCS     -0.920833
     15 O3P        -4.3810    1.4220    2.3430 o         1 LCS     -0.920833
     16 N           1.4940   -0.8810    0.7080 n2        1 LCS     -0.130000
     17 CA          2.0650   -1.1480    1.8780 c1        1 LCS      0.139000
     18 C           2.3040    0.0180    3.3090 c1        1 LCS      0.305000
     19 O           2.5650   -0.4340    4.4210 o         1 LCS     -0.295000
     20 ND          2.9880    0.3710    3.0460 n3        1 LCS     -0.360000
     21 OG          3.6950   -0.8940    2.4190 os        1 LCS     -0.637000
     22 CB          2.5210   -1.7140    1.9950 c3        1 LCS      0.227000
     23 H2A1        1.2250    1.0400   -4.6540 hc        1 LCS      0.071333
     24 H2A2        1.2940   -0.5340   -4.5810 hc        1 LCS      0.071333
     25 H2A3        0.0550    0.1830   -5.3060 hc        1 LCS      0.071333
     26 HO3         2.3370    1.1730   -2.1590 ho        1 LCS      0.211000
     27 H4A1        0.1460    0.5120    1.2900 h1        1 LCS      0.145000
     28 H4A2        1.4560    1.1240    0.4800 h1        1 LCS      0.145000
     29 H6         -3.0490    0.1710   -2.0090 ha        1 LCS      0.220000
     30 H5A1       -1.9300    1.1880    0.9560 h1        1 LCS      0.102000
     31 H5A2       -1.8520   -0.4370    1.0890 h1        1 LCS      0.102000
     32 HND         3.4490    1.0760    3.4530 hn        1 LCS      0.327000
     33 HB1         2.6930   -2.3830    1.3120 h1        1 LCS      0.023500
     34 HB2         2.1590   -2.2700    2.7400 h1        1 LCS      0.023500
@<TRIPOS>BOND
     1    1    9 1   
     2    2    3 1   
     3    2    4 1   
     4    3   23 1   
     5    3   24 1   
     6    3   25 1   
     7    4    6 1   
     8    5   26 1   
     9    6    7 1   
    10    6    8 1   
    11    7   16 1   
    12    7   27 1   
    13    7   28 1   
    14    8   10 1   
    15    9   29 1   
    16   10   11 1   
    17   10   30 1   
    18   10   31 1   
    19   11   12 1   
    20   12   13 1   
    21   12   14 1   
    22   12   15 1   
    23   16   17 1   
    24   17   22 1   
    25   18   19 1   
    26   18   20 1   
    27   20   21 1   
    28   20   32 1   
    29   21   22 1   
    30   22   33 1   
    31   22   34 1   
@<TRIPOS>SUBSTRUCTURE
     1 LCS         1 TEMP              0 ****  ****    0 ROOT
