@<TRIPOS>MOLECULE
LCS
   34    35     1     0     0
SMALL
bcc


@<TRIPOS>ATOM
      1 N1         -0.1010   -0.0590    0.0210 nb        1 LCS     -0.665000
      2 C2          1.2470   -0.1950    0.1800 ca        1 LCS      0.273600
      3 C2A         2.1320   -0.0660   -1.0150 c3        1 LCS     -0.127400
      4 C3          1.8130   -0.4370    1.4490 ca        1 LCS     -0.004200
      5 O3          3.1820   -0.5360    1.6430 oh        1 LCS     -0.535100
      6 C4          0.9850   -0.5920    2.5850 ca        1 LCS     -0.115300
      7 C4A         1.5810   -0.8140    3.9410 c3        1 LCS      0.148100
      8 C5         -0.3940   -0.4450    2.4170 ca        1 LCS     -0.089600
      9 C6         -0.8720   -0.1660    1.1030 ca        1 LCS      0.399200
     10 C5A        -1.3890   -0.5470    3.5500 c3        1 LCS      0.251700
     11 O4P        -2.6510   -0.2150    3.1630 os        1 LCS     -0.549200
     12 P          -3.3570    1.0730    4.1510 p5        1 LCS      1.304900
     13 O1P        -3.6880    0.3150    5.4040 o         1 LCS     -0.921500
     14 O2P        -2.1610    1.9830    4.2630 o         1 LCS     -0.921500
     15 O3P        -4.4900    1.5280    3.2810 o         1 LCS     -0.921500
     16 N           2.3550   -2.0280    4.0620 n2        1 LCS     -0.461900
     17 CA          3.6170   -1.9970    4.2720 ce        1 LCS      0.315300
     18 C           4.4780   -3.2310    4.4190 c         1 LCS      0.543200
     19 O           4.1550   -4.4190    4.4120 o         1 LCS     -0.548500
     20 ND          5.8400   -2.7920    4.6600 ns        1 LCS     -0.325400
     21 OG          5.9160   -1.4460    4.5270 os        1 LCS     -0.289900
     22 CB          4.5910   -0.8440    4.3730 c3        1 LCS      0.025100
     23 H2A1        1.5420    0.0180   -1.9600 hc        1 LCS      0.027367
     24 H2A2        2.7710    0.8480   -0.9220 hc        1 LCS      0.027367
     25 H2A3        2.7980   -0.9610   -1.0950 hc        1 LCS      0.027367
     26 HO3         3.6130   -0.1840    0.8540 ho        1 LCS      0.403000
     27 H4A1        0.7480   -0.9230    4.7040 h1        1 LCS      0.081200
     28 H4A2        2.1770    0.1110    4.2040 h1        1 LCS      0.081200
     29 H6         -1.9680   -0.0100    0.9810 h4        1 LCS      0.084100
     30 H5A1       -1.3420   -1.6300    3.8910 h1        1 LCS      0.024700
     31 H5A2       -1.0350    0.1290    4.3900 h1        1 LCS      0.024700
     32 HND         6.4870   -3.2100    3.9980 hn        1 LCS      0.265500
     33 HB1         4.6250   -0.2340    3.4350 h1        1 LCS      0.084700
     34 HB2         4.4210   -0.2060    5.2740 h1        1 LCS      0.084700
@<TRIPOS>BOND
     1    1    2 ar  
     2    1    9 ar  
     3    2    3 1   
     4    2    4 ar  
     5    3   23 1   
     6    3   24 1   
     7    3   25 1   
     8    4    5 1   
     9    4    6 ar  
    10    5   26 1   
    11    6    7 1   
    12    6    8 ar  
    13    7   16 1   
    14    7   27 1   
    15    7   28 1   
    16    8    9 ar  
    17    8   10 1   
    18    9   29 1   
    19   10   11 1   
    20   10   30 1   
    21   10   31 1   
    22   11   12 1   
    23   12   13 1   
    24   12   14 1   
    25   12   15 1   
    26   16   17 2   
    27   17   18 1   
    28   17   22 1   
    29   18   19 2   
    30   18   20 1   
    31   20   21 1   
    32   20   32 1   
    33   21   22 1   
    34   22   33 1   
    35   22   34 1   
@<TRIPOS>SUBSTRUCTURE
     1 LCS         1 TEMP              0 ****  ****    0 ROOT
