@<TRIPOS>MOLECULE
LCS
   34    35     1     0     0
SMALL
bcc


@<TRIPOS>ATOM
      1 N1          0.7520   -3.1740   -0.8430 nb        1 LCS     -0.665000
      2 C2         -0.5770   -3.0650   -0.5550 ca        1 LCS      0.273600
      3 C2A        -1.4490   -4.2670   -0.7030 c3        1 LCS     -0.127400
      4 C3         -1.1310   -1.8470   -0.1070 ca        1 LCS     -0.004200
      5 O3         -2.4680   -1.7220    0.2330 oh        1 LCS     -0.535100
      6 C4         -0.3220   -0.6930    0.0090 ca        1 LCS     -0.115300
      7 C4A        -0.8950    0.5950    0.5160 c3        1 LCS      0.148100
      8 C5          1.0390   -0.8120   -0.2820 ca        1 LCS     -0.089600
      9 C6          1.5150   -2.0920   -0.6930 ca        1 LCS      0.399200
     10 C5A         2.0220    0.3300   -0.1640 c3        1 LCS      0.251700
     11 O4P         3.3090   -0.0720   -0.3510 os        1 LCS     -0.549200
     12 P           4.3670    0.3570    1.0020 p5        1 LCS      1.304900
     13 O1P         4.5410    1.8290    0.7640 o         1 LCS     -0.921500
     14 O2P         3.4540    0.0090    2.1490 o         1 LCS     -0.921500
     15 O3P         5.5410   -0.5420    0.7580 o         1 LCS     -0.921500
     16 N          -1.9520    1.1420   -0.3020 n2        1 LCS     -0.461900
     17 CA         -3.1520    1.2360    0.1310 ce        1 LCS      0.315300
     18 C          -4.2970    1.8100   -0.6730 c         1 LCS      0.543200
     19 O          -4.2940    2.3050   -1.8000 o         1 LCS     -0.548500
     20 ND         -5.4870    1.7620    0.1580 n         1 LCS     -0.325400
     21 OG         -5.2160    1.0920    1.3040 os        1 LCS     -0.289900
     22 CB         -3.7890    0.7980    1.4320 c3        1 LCS      0.025100
     23 H2A1       -1.8240   -4.5930    0.3000 hc        1 LCS      0.027367
     24 H2A2       -2.3280   -4.0240   -1.3510 hc        1 LCS      0.027367
     25 H2A3       -0.9000   -5.1240   -1.1630 hc        1 LCS      0.027367
     26 HO3        -2.8270   -2.6140    0.3310 ho        1 LCS      0.403000
     27 H4A1       -1.2190    0.4210    1.5870 h1        1 LCS      0.081200
     28 H4A2       -0.0870    1.3910    0.5190 h1        1 LCS      0.081200
     29 H6          2.6070   -2.1920   -0.8850 h4        1 LCS      0.084100
     30 H5A1        1.7100    1.0750   -0.9640 h1        1 LCS      0.024700
     31 H5A2        1.8920    0.8000    0.8610 h1        1 LCS      0.024700
     32 HND        -6.2480    1.2830   -0.3130 hn        1 LCS      0.265500
     33 HB1        -3.7040   -0.3060    1.5950 h1        1 LCS      0.084700
     34 HB2        -3.4190    1.3740    2.3150 h1        1 LCS      0.084700
@<TRIPOS>BOND
     1    1    2 ar  
     2    1    9 ar  
     3    2    3 1   
     4    2    4 ar  
     5    3   23 1   
     6    3   24 1   
     7    3   25 1   
     8    4    5 1   
     9    4    6 ar  
    10    5   26 1   
    11    6    7 1   
    12    6    8 ar  
    13    7   16 1   
    14    7   27 1   
    15    7   28 1   
    16    8    9 ar  
    17    8   10 1   
    18    9   29 1   
    19   10   11 1   
    20   10   30 1   
    21   10   31 1   
    22   11   12 1   
    23   12   13 1   
    24   12   14 1   
    25   12   15 1   
    26   16   17 2   
    27   17   18 1   
    28   17   22 1   
    29   18   19 2   
    30   18   20 1   
    31   20   21 1   
    32   20   32 1   
    33   21   22 1   
    34   22   33 1   
    35   22   34 1   
@<TRIPOS>SUBSTRUCTURE
     1 LCS         1 TEMP              0 ****  ****    0 ROOT
