@<TRIPOS>MOLECULE
LCT
   26    25     1     0     0
SMALL
bcc


@<TRIPOS>ATOM
      1 C1          1.1040    0.3770   -1.4860 c1        1 LCT      0.360000
      2 C2          2.1080   -0.1430   -0.7920 c2        1 LCT     -0.536000
      3 C3          1.4580   -0.6270    2.6490 c1        1 LCT     -0.183000
      4 C4          0.3610   -0.1810    2.4640 c1        1 LCT     -0.161000
      5 C5         -0.9310    0.3460    2.2330 c2        1 LCT      0.052000
      6 C6         -1.3200    0.7510    1.0100 c2        1 LCT     -0.144000
      7 O34        -1.3280   -0.6520    7.6140 o         1 LCT     -0.342000
      8 C32        -2.4880   -0.2750    7.8620 c2        1 LCT      0.303000
      9 C36        -3.0930   -0.3440    9.2380 c3        1 LCT     -0.238000
     10 C22        -2.8670    0.3610    5.5310 c2        1 LCT     -0.222000
     11 N23        -3.6670    0.8710    4.5220 n2        1 LCT     -0.105000
     12 N24        -3.0760    0.8970    3.3770 n2        1 LCT     -0.028000
     13 S21        -1.3060   -0.0940    4.9560 ss        1 LCT      0.623000
     14 C19        -1.7990    0.4190    3.4010 c2        1 LCT     -0.367000
     15 N13         3.4540   -0.5620   -1.1760 no        1 LCT      0.615000
     16 O15         3.7960   -0.4470   -2.3220 o         1 LCT     -0.346000
     17 O17         4.1740   -1.0100   -0.3260 o         1 LCT     -0.346000
     18 H1         -2.3180    1.1630    0.8110 ha        1 LCT      0.131000
     19 H2          1.9010   -0.2980    0.3030 h4        1 LCT      0.244000
     20 H3          2.4280   -1.0240    2.8280 ha        1 LCT      0.239000
     21 H4         -0.6510    0.6890    0.1390 ha        1 LCT      0.131000
     22 H5         -3.9980   -0.9990    9.2360 hc        1 LCT      0.116667
     23 H6         -3.3790    0.6760    9.5930 hc        1 LCT      0.116667
     24 H7         -2.3340   -0.7740    9.9380 hc        1 LCT      0.116667
     25 H8         -4.2200    0.5360    7.0610 hn        1 LCT      0.258000
     26 N30        -3.2930    0.2390    6.8460 n         1 LCT     -0.291000
@<TRIPOS>BOND
     1    1    2 1   
     2    2   15 1   
     3    2   19 1   
     4    3    4 1   
     5    3   20 1   
     6    4    5 1   
     7    5    6 1   
     8    5   14 1   
     9    6   18 1   
    10    6   21 1   
    11    7    8 1   
    12    8    9 1   
    13    8   26 1   
    14    9   22 1   
    15    9   23 1   
    16    9   24 1   
    17   10   11 1   
    18   10   13 1   
    19   10   26 1   
    20   11   12 1   
    21   12   14 1   
    22   13   14 1   
    23   15   16 1   
    24   15   17 1   
    25   25   26 1   
@<TRIPOS>SUBSTRUCTURE
     1 LCT         1 TEMP              0 ****  ****    0 ROOT
