@<TRIPOS>MOLECULE
LCT
   26    30     1     0     0
SMALL
bcc


@<TRIPOS>ATOM
      1 C1          0.0000    0.0000    0.0000 c2        1 LCT     -0.173000
      2 C2          1.3830    0.0000    0.0000 c2        1 LCT     -0.203000
      3 C3          2.0820    0.0000    1.1940 c3        1 LCT     -0.194000
      4 C4          1.4000    0.0010    2.3950 c2        1 LCT     -0.322000
      5 C5          0.0050    0.0020    2.4010 c2        1 LCT      0.237000
      6 C6         -0.6930    0.0010    1.1920 c2        1 LCT      0.284000
      7 O34        -1.8580    0.0070    8.1970 o         1 LCT     -0.290000
      8 C32        -3.0150    0.0070    7.8310 c3        1 LCT      0.506000
      9 C36        -4.1270    0.0080    8.8480 c3        1 LCT     -0.052000
     10 C22        -2.2800    0.0040    5.5770 c2        1 LCT     -0.152000
     11 N23        -1.0080    0.0040    5.8470 n2        1 LCT     -0.073000
     12 N24        -0.2020    0.0030    4.8750 n2        1 LCT      0.087000
     13 S21        -2.4850   -0.0040    3.8770 ss        1 LCT      0.356000
     14 C19        -0.7310    0.0030    3.6830 c2        1 LCT     -0.297000
     15 N13         2.1200   -0.0010   -1.2830 no        1 LCT      1.302000
     16 O15         1.5090   -0.0020   -2.3370 o         1 LCT     -0.563500
     17 O17         3.3390   -0.0020   -1.2860 o         1 LCT     -0.563500
     18 H1         -0.4900    0.0010    0.9660 ha        1 LCT     -0.235000
     19 H2          1.2810    0.0070    0.4650 hc        1 LCT      0.083000
     20 H3          2.3530   -0.0500    1.8820 DU        1 LCT      0.270000
     21 H4          0.1100    0.0020    1.9190 ha        1 LCT      0.085000
     22 H5         -3.8920    0.0080    7.7900 DU        1 LCT     -0.114000
     23 H6         -4.8700    0.7430    8.5630 hc        1 LCT      0.085500
     24 H7         -4.5820   -0.9740    8.8890 hc        1 LCT      0.085500
     25 H8         -3.3270    0.1180    7.5090 DU        1 LCT      0.117000
     26 N30        -3.3060    0.0060    6.5150 nu        1 LCT     -0.265000
@<TRIPOS>BOND
     1    1    2 1   
     2    1    6 1   
     3    1   18 1   
     4    2    3 1   
     5    2   15 1   
     6    3    4 1   
     7    3   19 1   
     8    3   20 1   
     9    4    5 1   
    10    4   20 1   
    11    5    6 1   
    12    5   14 1   
    13    6   21 1   
    14    7    8 1   
    15    8    9 1   
    16    8   22 1   
    17    8   26 1   
    18    9   22 1   
    19    9   23 1   
    20    9   24 1   
    21   10   11 1   
    22   10   13 1   
    23   10   26 1   
    24   11   12 1   
    25   12   14 1   
    26   13   14 1   
    27   15   16 1   
    28   15   17 1   
    29   22   25 1   
    30   25   26 1   
@<TRIPOS>SUBSTRUCTURE
     1 LCT         1 TEMP              0 ****  ****    0 ROOT
