@<TRIPOS>MOLECULE
LCX
   27    26     1     0     0
SMALL
bcc


@<TRIPOS>ATOM
      1 N           1.3520   -0.4680    3.3840 n3        1 LCX     -0.912800
      2 CA          0.0540    0.1690    3.2380 c3        1 LCX      0.116500
      3 C          -0.8670   -0.1640    4.4300 c3        1 LCX      0.138400
      4 O          -0.4210    0.4180    5.6370 oh        1 LCX     -0.612800
      5 CB         -0.7040   -0.1650    1.9460 c3        1 LCX     -0.113400
      6 CG          0.0950    0.1700    0.7060 c3        1 LCX     -0.080400
      7 CD         -0.7410    0.0060   -0.5460 c3        1 LCX     -0.091400
      8 CE          0.1160    0.2700   -1.7920 c3        1 LCX      0.090000
      9 NZ         -0.5890    0.0750   -3.0180 n         1 LCX     -0.600900
     10 CX          0.1630   -0.3600   -4.1830 c         1 LCX      0.989600
     11 OX1        -0.3380   -0.0610   -5.3090 o         1 LCX     -0.844300
     12 OX2         1.2340   -1.0140   -4.0100 o         1 LCX     -0.844300
     13 H           1.2660   -1.4590    3.2660 hn        1 LCX      0.349800
     14 H2          1.9780   -0.1200    2.6820 hn        1 LCX      0.349800
     15 HA          0.2390    1.2860    3.2600 h1        1 LCX      0.066700
     16 HC1        -1.8820    0.2830    4.2570 h1        1 LCX      0.039700
     17 HC2        -0.9670   -1.2750    4.5560 h1        1 LCX      0.039700
     18 HO          0.5090    0.1860    5.7470 ho        1 LCX      0.412000
     19 HB2        -0.9750   -1.2530    1.9370 hc        1 LCX      0.043200
     20 HB3        -1.6630    0.4180    1.9380 hc        1 LCX      0.043200
     21 HG2         0.4730    1.2240    0.7730 hc        1 LCX      0.034700
     22 HG3         0.9930   -0.5000    0.6330 hc        1 LCX      0.034700
     23 HD2        -1.1580   -1.0330   -0.5880 hc        1 LCX      0.033700
     24 HD3        -1.6080    0.7150   -0.5160 hc        1 LCX      0.033700
     25 HE2         0.5250    1.3220   -1.6940 h1        1 LCX      0.021200
     26 HE3         0.9990   -0.4340   -1.7820 h1        1 LCX      0.021200
     27 HZ         -1.2470    0.7920   -3.2220 hn        1 LCX      0.241500
@<TRIPOS>BOND
     1    1    2 1   
     2    1   13 1   
     3    1   14 1   
     4    2    3 1   
     5    2    5 1   
     6    2   15 1   
     7    3    4 1   
     8    3   16 1   
     9    3   17 1   
    10    4   18 1   
    11    5    6 1   
    12    5   19 1   
    13    5   20 1   
    14    6    7 1   
    15    6   21 1   
    16    6   22 1   
    17    7    8 1   
    18    7   23 1   
    19    7   24 1   
    20    8    9 1   
    21    8   25 1   
    22    8   26 1   
    23    9   10 1   
    24    9   27 1   
    25   10   11 1   
    26   10   12 1   
@<TRIPOS>SUBSTRUCTURE
     1 LCX         1 TEMP              0 ****  ****    0 ROOT
