@<TRIPOS>MOLECULE
LCX
   27    26     1     0     0
SMALL
bcc


@<TRIPOS>ATOM
      1 N          -2.3350   -1.1500    1.8170 n3        1 LCX     -0.890800
      2 CA         -0.9080   -1.1830    1.8450 c3        1 LCX      0.166500
      3 C          -0.4330   -1.2370    3.2820 c3        1 LCX      0.081400
      4 O          -0.8150   -2.4500    3.8530 oh        1 LCX     -0.610800
      5 CB         -0.3610    0.0630    1.1810 c3        1 LCX     -0.073400
      6 CG          0.0260   -0.2600   -0.2980 c3        1 LCX     -0.075400
      7 CD          0.4350    1.0370   -1.0140 c3        1 LCX     -0.092400
      8 CE          0.8860    0.7180   -2.4530 c3        1 LCX      0.090000
      9 NZ          1.3290    1.9400   -3.0970 n         1 LCX     -0.601900
     10 CX          1.7040    1.9240   -4.4550 c         1 LCX      0.988600
     11 OX1         1.7880    0.8440   -5.0650 o         1 LCX     -0.846300
     12 OX2         1.9330    3.0120   -5.0600 o         1 LCX     -0.846300
     13 H          -2.6530   -0.9070    2.6460 hn        1 LCX      0.345800
     14 H2         -2.6520   -1.9720    1.5990 hn        1 LCX      0.345800
     15 HA         -0.5930   -1.9700    1.3700 h1        1 LCX      0.072700
     16 HC1        -0.8370   -0.4950    3.7890 h1        1 LCX      0.023200
     17 HC2         0.5440   -1.1570    3.3070 h1        1 LCX      0.023200
     18 HO         -0.3290   -2.6020    4.5730 ho        1 LCX      0.395000
     19 HB2        -1.0460    0.7680    1.1940 hc        1 LCX      0.035200
     20 HB3         0.4310    0.3690    1.6640 hc        1 LCX      0.035200
     21 HG2         0.7750   -0.8880   -0.3090 hc        1 LCX      0.046200
     22 HG3        -0.7470   -0.6620   -0.7600 hc        1 LCX      0.046200
     23 HD2        -0.3310    1.6510   -1.0400 hc        1 LCX      0.029700
     24 HD3         1.1660    1.4530   -0.5320 hc        1 LCX      0.029700
     25 HE2         0.1270    0.3340   -2.9600 h1        1 LCX      0.023200
     26 HE3         1.6190    0.0770   -2.4300 h1        1 LCX      0.023200
     27 HZ          1.2780    2.7410   -2.6450 hn        1 LCX      0.239500
@<TRIPOS>BOND
     1    1    2 1   
     2    1   13 1   
     3    1   14 1   
     4    2    3 1   
     5    2    5 1   
     6    2   15 1   
     7    3    4 1   
     8    3   16 1   
     9    3   17 1   
    10    4   18 1   
    11    5    6 1   
    12    5   19 1   
    13    5   20 1   
    14    6    7 1   
    15    6   21 1   
    16    6   22 1   
    17    7    8 1   
    18    7   23 1   
    19    7   24 1   
    20    8    9 1   
    21    8   25 1   
    22    8   26 1   
    23    9   10 1   
    24    9   27 1   
    25   10   11 1   
    26   10   12 1   
@<TRIPOS>SUBSTRUCTURE
     1 LCX         1 TEMP              0 ****  ****    0 ROOT
