@<TRIPOS>MOLECULE
LCY
   15    15     1     0     0
SMALL
bcc


@<TRIPOS>ATOM
      1 C1          0.7640   -1.6220    0.0010 c3        1 LCY     -0.162400
      2 C2         -0.7640   -1.6220    0.0010 c3        1 LCY     -0.162400
      3 C3         -1.1640   -0.1490   -0.0070 c         1 LCY      0.698500
      4 O2         -2.3150    0.2980   -0.0150 o         1 LCY     -0.584500
      5 N1          0.0000    0.6480   -0.0100 n         1 LCY     -0.516400
      6 C4          1.1640   -0.1490   -0.0070 c         1 LCY      0.698500
      7 O1          2.3150    0.2980   -0.0150 o         1 LCY     -0.584500
      8 C5          0.0000    2.0770    0.0040 c3        1 LCY      0.086300
      9 H1          1.1850   -2.1150    0.9110 hc        1 LCY      0.089700
     10 H1A         1.1850   -2.1250   -0.9030 hc        1 LCY      0.089700
     11 H2         -1.1850   -2.1250   -0.9030 hc        1 LCY      0.089700
     12 H2A        -1.1850   -2.1150    0.9110 hc        1 LCY      0.089700
     13 H5          0.0000    2.4560    1.0620 h1        1 LCY      0.056033
     14 H5A         0.9200    2.4540   -0.5170 h1        1 LCY      0.056033
     15 H5B        -0.9200    2.4540   -0.5170 h1        1 LCY      0.056033
@<TRIPOS>BOND
     1    1    2 1   
     2    1    6 1   
     3    1    9 1   
     4    1   10 1   
     5    2    3 1   
     6    2   11 1   
     7    2   12 1   
     8    3    4 2   
     9    3    5 1   
    10    5    6 1   
    11    5    8 1   
    12    6    7 2   
    13    8   13 1   
    14    8   14 1   
    15    8   15 1   
@<TRIPOS>SUBSTRUCTURE
     1 LCY         1 TEMP              0 ****  ****    0 ROOT
