@<TRIPOS>MOLECULE
LCY
   15    15     1     0     0
SMALL
bcc


@<TRIPOS>ATOM
      1 C1          0.0080   -0.0020   -0.0280 c3        1 LCY     -0.162400
      2 C2          1.5360   -0.0070   -0.0280 c3        1 LCY     -0.162400
      3 C3          1.9360    0.0010    1.4450 c         1 LCY      0.698500
      4 O2          3.0860    0.0060    1.8930 o         1 LCY     -0.584500
      5 N1          0.7710    0.0090    2.2420 n         1 LCY     -0.516400
      6 C4         -0.3930    0.0090    1.4440 c         1 LCY      0.698500
      7 O1         -1.5440    0.0210    1.8920 o         1 LCY     -0.584500
      8 C5          0.7710   -0.0040    3.6710 c3        1 LCY      0.086300
      9 H1         -0.4160   -0.9110   -0.5210 hc        1 LCY      0.089700
     10 H1A        -0.4100    0.9030   -0.5330 hc        1 LCY      0.089700
     11 H2          1.9600    0.8950   -0.5320 hc        1 LCY      0.089700
     12 H2A         1.9540   -0.9190   -0.5200 hc        1 LCY      0.089700
     13 H5          1.6930    0.5150    4.0470 h1        1 LCY      0.056033
     14 H5A        -0.1480    0.5210    4.0470 h1        1 LCY      0.056033
     15 H5B         0.7670   -1.0610    4.0510 h1        1 LCY      0.056033
@<TRIPOS>BOND
     1    1    2 1   
     2    1    6 1   
     3    1    9 1   
     4    1   10 1   
     5    2    3 1   
     6    2   11 1   
     7    2   12 1   
     8    3    4 2   
     9    3    5 1   
    10    5    6 1   
    11    5    8 1   
    12    6    7 2   
    13    8   13 1   
    14    8   14 1   
    15    8   15 1   
@<TRIPOS>SUBSTRUCTURE
     1 LCY         1 TEMP              0 ****  ****    0 ROOT
