@<TRIPOS>MOLECULE
LCZ
   21    20     1     0     0
SMALL
bcc


@<TRIPOS>ATOM
      1 N          -1.9450   -0.7570    1.1040 n3        1 LCZ     -0.887800
      2 CA         -0.5220   -0.7570    1.1040 c3        1 LCZ      0.050500
      3 C          -0.0180   -0.7570    2.5290 c         1 LCZ      0.524900
      4 CB         -0.0180    0.4770    0.3920 c3        1 LCZ     -0.066400
      5 CG          0.3480    0.1220   -1.0330 c3        1 LCZ     -0.068700
      6 CD1         1.8410    0.2740   -1.2220 c3        1 LCZ     -0.091100
      7 CD2        -0.3780    1.0480   -1.9850 c3        1 LCZ     -0.091100
      8 O           0.4840   -1.7620    2.9970 o         1 LCZ     -0.531100
      9 HN1        -2.2490   -1.5430    0.7550 hn        1 LCZ      0.355800
     10 HN2        -2.2490   -0.6670    1.9590 hn        1 LCZ      0.355800
     11 HA         -0.1970   -1.5540    0.6440 h1        1 LCZ      0.083700
     12 HC2        -0.1210    0.0400    3.0830 h4        1 LCZ      0.000200
     13 HB1         0.7690    0.8210    0.8540 hc        1 LCZ      0.044700
     14 HB2        -0.7170    1.1590    0.3880 hc        1 LCZ      0.044700
     15 HG          0.0880   -0.8010   -1.2150 hc        1 LCZ      0.071700
     16 HD11        2.3090   -0.3290   -0.6130 hc        1 LCZ      0.034033
     17 HD12        2.0760    0.0520   -2.1430 hc        1 LCZ      0.034033
     18 HD13        2.1010    1.1950   -1.0320 hc        1 LCZ      0.034033
     19 HD21       -0.3460    1.9600   -1.6400 hc        1 LCZ      0.034033
     20 HD22       -1.3080    0.7640   -2.0690 hc        1 LCZ      0.034033
     21 HD23        0.0520    1.0160   -2.8600 hc        1 LCZ      0.034033
@<TRIPOS>BOND
     1    1    2 1   
     2    1    9 1   
     3    1   10 1   
     4    2    3 1   
     5    2    4 1   
     6    2   11 1   
     7    3    8 2   
     8    3   12 1   
     9    4    5 1   
    10    4   13 1   
    11    4   14 1   
    12    5    6 1   
    13    5    7 1   
    14    5   15 1   
    15    6   16 1   
    16    6   17 1   
    17    6   18 1   
    18    7   19 1   
    19    7   20 1   
    20    7   21 1   
@<TRIPOS>SUBSTRUCTURE
     1 LCZ         1 TEMP              0 ****  ****    0 ROOT
