@<TRIPOS>MOLECULE
LCZ
   21    20     1     0     0
SMALL
bcc


@<TRIPOS>ATOM
      1 N          -1.1040    0.8580    1.2750 n3        1 LCZ     -0.887800
      2 CA         -0.8360    0.3600   -0.0590 c3        1 LCZ      0.050500
      3 C          -2.0060   -0.3330   -0.7490 c         1 LCZ      0.524900
      4 CB          0.3730   -0.5850   -0.1250 c3        1 LCZ     -0.066400
      5 CG          1.6910    0.1130    0.1750 c3        1 LCZ     -0.068700
      6 CD1         2.7510   -0.9190    0.5060 c3        1 LCZ     -0.091100
      7 CD2         2.1440    0.9640   -0.9930 c3        1 LCZ     -0.091100
      8 O          -3.1270   -0.4260   -0.2480 o         1 LCZ     -0.531100
      9 HN1        -2.0040    1.3010    1.2960 hn        1 LCZ      0.355800
     10 HN2        -1.1030    0.1070    1.9380 hn        1 LCZ      0.355800
     11 HA         -0.6070    1.2720   -0.6960 h1        1 LCZ      0.083700
     12 HC2        -1.7810   -0.7390   -1.7600 h4        1 LCZ      0.000200
     13 HB1         0.2260   -1.4290    0.6000 hc        1 LCZ      0.044700
     14 HB2         0.4200   -1.0310   -1.1540 hc        1 LCZ      0.044700
     15 HG          1.5550    0.7820    1.0710 hc        1 LCZ      0.071700
     16 HD11        3.7270   -0.4160    0.7120 hc        1 LCZ      0.034033
     17 HD12        2.4580   -1.5050    1.4100 hc        1 LCZ      0.034033
     18 HD13        2.8910   -1.6270   -0.3450 hc        1 LCZ      0.034033
     19 HD21        3.1180    1.4570   -0.7530 hc        1 LCZ      0.034033
     20 HD22        2.2830    0.3390   -1.9080 hc        1 LCZ      0.034033
     21 HD23        1.3950    1.7610   -1.2170 hc        1 LCZ      0.034033
@<TRIPOS>BOND
     1    1    2 1   
     2    1    9 1   
     3    1   10 1   
     4    2    3 1   
     5    2    4 1   
     6    2   11 1   
     7    3    8 2   
     8    3   12 1   
     9    4    5 1   
    10    4   13 1   
    11    4   14 1   
    12    5    6 1   
    13    5    7 1   
    14    5   15 1   
    15    6   16 1   
    16    6   17 1   
    17    6   18 1   
    18    7   19 1   
    19    7   20 1   
    20    7   21 1   
@<TRIPOS>SUBSTRUCTURE
     1 LCZ         1 TEMP              0 ****  ****    0 ROOT
