@<TRIPOS>MOLECULE
LD1
   39    43     1     0     0
SMALL
bcc


@<TRIPOS>ATOM
      1 C1          0.2710    0.7790   -0.0230 ca        1 LD1      0.086100
      2 C2          1.3750   -0.1130    0.0090 ca        1 LD1      0.013600
      3 C3          2.0820   -0.2680    1.2160 ca        1 LD1     -0.111000
      4 C4          1.6820    0.4400    2.3550 ca        1 LD1     -0.130900
      5 C5          0.5910    1.3160    2.3020 ca        1 LD1     -0.107000
      6 C6         -0.1130    1.4920    1.1150 ca        1 LD1     -0.120000
      7 O7         -0.5140    0.9230   -1.1550 os        1 LD1     -0.310900
      8 C8          0.1510    0.6660   -2.3910 c3        1 LD1      0.059400
      9 C9          1.1360   -0.4900   -2.3670 c         1 LD1      0.675500
     10 N10         1.7280   -0.8100   -1.1530 ns        1 LD1     -0.467100
     11 O11         1.4380   -1.1160   -3.3960 o         1 LD1     -0.604500
     12 C12         2.4170    0.2520    3.6240 ce        1 LD1      0.439900
     13 C13         1.5600    0.0470    4.8490 c3        1 LD1     -0.043600
     14 S14         2.3230   -0.9850    6.1110 ss        1 LD1     -0.136400
     15 C15         3.9450   -0.6150    5.9040 cc        1 LD1      0.393800
     16 N16         4.4310   -0.0230    4.6880 na        1 LD1     -0.144600
     17 N17         3.7330    0.2400    3.5830 n2        1 LD1     -0.475100
     18 N18         5.0130   -0.8310    6.7200 nd        1 LD1     -0.303000
     19 N19         6.1200   -0.4340    6.1070 nd        1 LD1     -0.344000
     20 C20         5.8370    0.0560    4.8800 cc        1 LD1      0.420400
     21 C21         1.0870    1.3210    5.4580 ca        1 LD1     -0.095300
     22 C22        -0.2200    1.3800    5.9660 ca        1 LD1     -0.114000
     23 C23        -0.6870    2.5440    6.5720 ca        1 LD1     -0.124000
     24 C24         0.1410    3.6620    6.6740 ca        1 LD1     -0.117000
     25 C25         1.4380    3.6110    6.1660 ca        1 LD1     -0.124000
     26 C26         1.9110    2.4480    5.5600 ca        1 LD1     -0.114000
     27 H3          2.9450   -0.9500    1.2630 ha        1 LD1      0.155000
     28 H5          0.2900    1.8760    3.2030 ha        1 LD1      0.157000
     29 H6         -0.9720    2.1780    1.0610 ha        1 LD1      0.161000
     30 H8          0.7020    1.5920   -2.7110 h1        1 LD1      0.093700
     31 H8A        -0.6860    0.4390   -3.1060 h1        1 LD1      0.093700
     32 HN10        2.4260   -1.5170   -1.1070 hn        1 LD1      0.341500
     33 H13         0.6640   -0.5690    4.5420 h1        1 LD1      0.116700
     34 H20         6.5230    0.4700    4.1350 h5        1 LD1      0.087100
     35 H22        -0.8790    0.5010    5.8930 ha        1 LD1      0.137000
     36 H23        -1.7110    2.5780    6.9720 ha        1 LD1      0.139500
     37 H24        -0.2280    4.5800    7.1550 ha        1 LD1      0.138000
     38 H25         2.0960    4.4900    6.2450 ha        1 LD1      0.139500
     39 H26         2.9380    2.4260    5.1670 ha        1 LD1      0.137000
@<TRIPOS>BOND
     1    1    2 ar  
     2    1    6 ar  
     3    1    7 1   
     4    2    3 ar  
     5    2   10 1   
     6    3    4 ar  
     7    3   27 1   
     8    4    5 ar  
     9    4   12 1   
    10    5    6 ar  
    11    5   28 1   
    12    6   29 1   
    13    7    8 1   
    14    8    9 1   
    15    8   30 1   
    16    8   31 1   
    17    9   10 1   
    18    9   11 2   
    19   10   32 1   
    20   12   13 1   
    21   12   17 2   
    22   13   14 1   
    23   13   21 1   
    24   13   33 1   
    25   14   15 1   
    26   15   16 1   
    27   15   18 2   
    28   16   17 1   
    29   16   20 1   
    30   18   19 1   
    31   19   20 2   
    32   20   34 1   
    33   21   22 ar  
    34   21   26 ar  
    35   22   23 ar  
    36   22   35 1   
    37   23   24 ar  
    38   23   36 1   
    39   24   25 ar  
    40   24   37 1   
    41   25   26 ar  
    42   25   38 1   
    43   26   39 1   
@<TRIPOS>SUBSTRUCTURE
     1 LD1         1 TEMP              0 ****  ****    0 ROOT
