@<TRIPOS>MOLECULE
LD1
   39    43     1     0     0
SMALL
bcc


@<TRIPOS>ATOM
      1 C1          0.2640    0.7740   -0.0220 ca        1 LD1      0.086100
      2 C2          1.3780   -0.1060    0.0070 ca        1 LD1      0.013600
      3 C3          2.0890   -0.2540    1.2120 ca        1 LD1     -0.111000
      4 C4          1.6840    0.4480    2.3530 ca        1 LD1     -0.130900
      5 C5          0.5830    1.3110    2.3040 ca        1 LD1     -0.107000
      6 C6         -0.1260    1.4810    1.1180 ca        1 LD1     -0.120000
      7 O7         -0.5250    0.9100   -1.1520 os        1 LD1     -0.310900
      8 C8          0.1410    0.6620   -2.3890 c3        1 LD1      0.059400
      9 C9          1.1390   -0.4830   -2.3690 c         1 LD1      0.675500
     10 N10         1.7370   -0.7980   -1.1570 n         1 LD1     -0.467100
     11 O11         1.4450   -1.1040   -3.4000 o         1 LD1     -0.604500
     12 C12         2.4230    0.2670    3.6200 ce        1 LD1      0.439900
     13 C13         1.5710    0.0480    4.8460 c3        1 LD1     -0.043600
     14 S14         2.3500   -0.9770    6.1050 ss        1 LD1     -0.136400
     15 C15         3.9670   -0.5860    5.8960 cc        1 LD1      0.393800
     16 N16         4.4430    0.0150    4.6800 na        1 LD1     -0.144600
     17 N17         3.7400    0.2720    3.5770 n2        1 LD1     -0.475100
     18 N18         5.0400   -0.7890    6.7090 nd        1 LD1     -0.303000
     19 N19         6.1400   -0.3770    6.0940 nd        1 LD1     -0.344000
     20 C20         5.8490    0.1120    4.8690 cc        1 LD1      0.420400
     21 C21         1.0840    1.3140    5.4590 ca        1 LD1     -0.095300
     22 C22        -0.2230    1.3550    5.9700 ca        1 LD1     -0.114000
     23 C23        -0.7040    2.5120    6.5780 ca        1 LD1     -0.124000
     24 C24         0.1090    3.6410    6.6810 ca        1 LD1     -0.117000
     25 C25         1.4060    3.6080    6.1700 ca        1 LD1     -0.124000
     26 C26         1.8930    2.4520    5.5610 ca        1 LD1     -0.114000
     27 H3          2.9610   -0.9260    1.2560 ha        1 LD1      0.155000
     28 H5          0.2770    1.8670    3.2050 ha        1 LD1      0.157000
     29 H6         -0.9920    2.1570    1.0670 ha        1 LD1      0.161000
     30 H8          0.6800    1.5950   -2.7090 h1        1 LD1      0.093700
     31 H8A        -0.6950    0.4270   -3.1040 h1        1 LD1      0.093700
     32 HN10        2.4430   -1.4960   -1.1130 hn        1 LD1      0.341500
     33 H13         0.6830   -0.5790    4.5400 h1        1 LD1      0.116700
     34 H20         6.5280    0.5360    4.1230 h5        1 LD1      0.087100
     35 H22        -0.8700    0.4680    5.8960 ha        1 LD1      0.137000
     36 H23        -1.7280    2.5320    6.9810 ha        1 LD1      0.139500
     37 H24        -0.2710    4.5520    7.1650 ha        1 LD1      0.138000
     38 H25         2.0530    4.4950    6.2490 ha        1 LD1      0.139500
     39 H26         2.9200    2.4440    5.1660 ha        1 LD1      0.137000
@<TRIPOS>BOND
     1    1    2 ar  
     2    1    6 ar  
     3    1    7 1   
     4    2    3 ar  
     5    2   10 1   
     6    3    4 ar  
     7    3   27 1   
     8    4    5 ar  
     9    4   12 1   
    10    5    6 ar  
    11    5   28 1   
    12    6   29 1   
    13    7    8 1   
    14    8    9 1   
    15    8   30 1   
    16    8   31 1   
    17    9   10 1   
    18    9   11 2   
    19   10   32 1   
    20   12   13 1   
    21   12   17 2   
    22   13   14 1   
    23   13   21 1   
    24   13   33 1   
    25   14   15 1   
    26   15   16 1   
    27   15   18 2   
    28   16   17 1   
    29   16   20 1   
    30   18   19 1   
    31   19   20 2   
    32   20   34 1   
    33   21   22 ar  
    34   21   26 ar  
    35   22   23 ar  
    36   22   35 1   
    37   23   24 ar  
    38   23   36 1   
    39   24   25 ar  
    40   24   37 1   
    41   25   26 ar  
    42   25   38 1   
    43   26   39 1   
@<TRIPOS>SUBSTRUCTURE
     1 LD1         1 TEMP              0 ****  ****    0 ROOT
