@<TRIPOS>MOLECULE
LD1
   39    43     1     0     0
SMALL
bcc


@<TRIPOS>ATOM
      1 C1         -3.4420    0.8750   -0.1190 ca        1 LD1      0.086100
      2 C2         -3.1870   -0.5010    0.1210 ca        1 LD1      0.013600
      3 C3         -1.8510   -0.9410    0.1630 ca        1 LD1     -0.111000
      4 C4         -0.8080   -0.0250   -0.0130 ca        1 LD1     -0.130900
      5 C5         -1.0810    1.3270   -0.2490 ca        1 LD1     -0.107000
      6 C6         -2.3960    1.7800   -0.3080 ca        1 LD1     -0.120000
      7 O7         -4.7280    1.3890   -0.1000 os        1 LD1     -0.310900
      8 C8         -5.7560    0.4650   -0.4560 c3        1 LD1      0.059400
      9 C9         -5.5620   -0.9500    0.0650 c         1 LD1      0.675500
     10 N10        -4.2640   -1.3770    0.3050 n         1 LD1     -0.467100
     11 O11        -6.5190   -1.7200    0.2410 o         1 LD1     -0.604500
     12 C12         0.5920   -0.4940    0.0580 ce        1 LD1      0.439900
     13 C13         1.5190    0.3490    0.8990 c3        1 LD1     -0.043600
     14 S14         2.8520   -0.5810    1.6740 ss        1 LD1     -0.136400
     15 C15         3.1210   -1.7830    0.5370 cc        1 LD1      0.393800
     16 N16         2.1340   -2.1140   -0.4530 na        1 LD1     -0.144600
     17 N17         0.9070   -1.6070   -0.5730 n2        1 LD1     -0.475100
     18 N18         4.1740   -2.6310    0.3770 nd        1 LD1     -0.303000
     19 N19         3.9170   -3.4660   -0.6190 nd        1 LD1     -0.344000
     20 C20         2.7040   -3.2110   -1.1560 cc        1 LD1      0.420400
     21 C21         2.0800    1.5180    0.1670 ca        1 LD1     -0.095300
     22 C22         2.2200    2.7360    0.8500 ca        1 LD1     -0.114000
     23 C23         2.7700    3.8430    0.2080 ca        1 LD1     -0.124000
     24 C24         3.1830    3.7490   -1.1210 ca        1 LD1     -0.117000
     25 C25         3.0420    2.5440   -1.8060 ca        1 LD1     -0.124000
     26 C26         2.4920    1.4320   -1.1680 ca        1 LD1     -0.114000
     27 H3         -1.6290   -2.0060    0.3420 ha        1 LD1      0.155000
     28 H5         -0.2530    2.0400   -0.3960 ha        1 LD1      0.157000
     29 H6         -2.6230    2.8410   -0.4920 ha        1 LD1      0.161000
     30 H8         -6.6870    0.9100   -0.0090 h1        1 LD1      0.093700
     31 H8A        -5.8390    0.4200   -1.5750 h1        1 LD1      0.093700
     32 HN10       -4.0890   -2.3160    0.5830 hn        1 LD1      0.341500
     33 H13         0.9320    0.7190    1.7900 h1        1 LD1      0.116700
     34 H20         2.2080   -3.7110   -1.9930 h5        1 LD1      0.087100
     35 H22         1.9000    2.8180    1.9000 ha        1 LD1      0.137000
     36 H23         2.8810    4.7920    0.7540 ha        1 LD1      0.139500
     37 H24         3.6200    4.6230   -1.6260 ha        1 LD1      0.138000
     38 H25         3.3670    2.4630   -2.8550 ha        1 LD1      0.139500
     39 H26         2.3910    0.4880   -1.7240 ha        1 LD1      0.137000
@<TRIPOS>BOND
     1    1    2 ar  
     2    1    6 ar  
     3    1    7 1   
     4    2    3 ar  
     5    2   10 1   
     6    3    4 ar  
     7    3   27 1   
     8    4    5 ar  
     9    4   12 1   
    10    5    6 ar  
    11    5   28 1   
    12    6   29 1   
    13    7    8 1   
    14    8    9 1   
    15    8   30 1   
    16    8   31 1   
    17    9   10 1   
    18    9   11 2   
    19   10   32 1   
    20   12   13 1   
    21   12   17 2   
    22   13   14 1   
    23   13   21 1   
    24   13   33 1   
    25   14   15 1   
    26   15   16 1   
    27   15   18 2   
    28   16   17 1   
    29   16   20 1   
    30   18   19 1   
    31   19   20 2   
    32   20   34 1   
    33   21   22 ar  
    34   21   26 ar  
    35   22   23 ar  
    36   22   35 1   
    37   23   24 ar  
    38   23   36 1   
    39   24   25 ar  
    40   24   37 1   
    41   25   26 ar  
    42   25   38 1   
    43   26   39 1   
@<TRIPOS>SUBSTRUCTURE
     1 LD1         1 TEMP              0 ****  ****    0 ROOT
