@<TRIPOS>MOLECULE
LD1
   39    43     1     0     0
SMALL
bcc


@<TRIPOS>ATOM
      1 C1          0.2730    0.7880   -0.0240 ca        1 LD1      0.086100
      2 C2          1.3760   -0.1050    0.0060 ca        1 LD1      0.013600
      3 C3          2.0830   -0.2620    1.2130 ca        1 LD1     -0.111000
      4 C4          1.6820    0.4420    2.3540 ca        1 LD1     -0.130900
      5 C5          0.5910    1.3180    2.3030 ca        1 LD1     -0.107000
      6 C6         -0.1120    1.4980    1.1160 ca        1 LD1     -0.120000
      7 O7         -0.5110    0.9350   -1.1560 os        1 LD1     -0.310900
      8 C8          0.1540    0.6810   -2.3920 c3        1 LD1      0.059400
      9 C9          1.1390   -0.4750   -2.3710 c         1 LD1      0.675500
     10 N10         1.7300   -0.7980   -1.1580 n         1 LD1     -0.467100
     11 O11         1.4410   -1.0980   -3.4020 o         1 LD1     -0.604500
     12 C12         2.4160    0.2510    3.6230 ce        1 LD1      0.439900
     13 C13         1.5590    0.0420    4.8460 c3        1 LD1     -0.043600
     14 S14         2.3220   -0.9940    6.1060 ss        1 LD1     -0.136400
     15 C15         3.9440   -0.6230    5.9010 cc        1 LD1      0.393800
     16 N16         4.4300   -0.0270    4.6870 na        1 LD1     -0.144600
     17 N17         3.7330    0.2400    3.5830 n2        1 LD1     -0.475100
     18 N18         5.0120   -0.8400    6.7170 nd        1 LD1     -0.303000
     19 N19         6.1190   -0.4410    6.1060 nd        1 LD1     -0.344000
     20 C20         5.8370    0.0520    4.8800 cc        1 LD1      0.420400
     21 C21         1.0860    1.3130    5.4590 ca        1 LD1     -0.095300
     22 C22        -0.2210    1.3700    5.9670 ca        1 LD1     -0.114000
     23 C23        -0.6890    2.5320    6.5760 ca        1 LD1     -0.124000
     24 C24         0.1380    3.6510    6.6810 ca        1 LD1     -0.117000
     25 C25         1.4350    3.6020    6.1730 ca        1 LD1     -0.124000
     26 C26         1.9090    2.4410    5.5640 ca        1 LD1     -0.114000
     27 H3          2.9460   -0.9450    1.2580 ha        1 LD1      0.155000
     28 H5          0.2900    1.8750    3.2050 ha        1 LD1      0.157000
     29 H6         -0.9710    2.1830    1.0630 ha        1 LD1      0.161000
     30 H8          0.7050    1.6080   -2.7090 h1        1 LD1      0.093700
     31 H8A        -0.6820    0.4560   -3.1090 h1        1 LD1      0.093700
     32 HN10        2.4280   -1.5050   -1.1130 hn        1 LD1      0.341500
     33 H13         0.6640   -0.5740    4.5370 h1        1 LD1      0.116700
     34 H20         6.5220    0.4690    4.1360 h5        1 LD1      0.087100
     35 H22        -0.8800    0.4920    5.8920 ha        1 LD1      0.137000
     36 H23        -1.7140    2.5640    6.9770 ha        1 LD1      0.139500
     37 H24        -0.2320    4.5670    7.1660 ha        1 LD1      0.138000
     38 H25         2.0930    4.4810    6.2550 ha        1 LD1      0.139500
     39 H26         2.9360    2.4200    5.1710 ha        1 LD1      0.137000
@<TRIPOS>BOND
     1    1    2 ar  
     2    1    6 ar  
     3    1    7 1   
     4    2    3 ar  
     5    2   10 1   
     6    3    4 ar  
     7    3   27 1   
     8    4    5 ar  
     9    4   12 1   
    10    5    6 ar  
    11    5   28 1   
    12    6   29 1   
    13    7    8 1   
    14    8    9 1   
    15    8   30 1   
    16    8   31 1   
    17    9   10 1   
    18    9   11 2   
    19   10   32 1   
    20   12   13 1   
    21   12   17 2   
    22   13   14 1   
    23   13   21 1   
    24   13   33 1   
    25   14   15 1   
    26   15   16 1   
    27   15   18 2   
    28   16   17 1   
    29   16   20 1   
    30   18   19 1   
    31   19   20 2   
    32   20   34 1   
    33   21   22 ar  
    34   21   26 ar  
    35   22   23 ar  
    36   22   35 1   
    37   23   24 ar  
    38   23   36 1   
    39   24   25 ar  
    40   24   37 1   
    41   25   26 ar  
    42   25   38 1   
    43   26   39 1   
@<TRIPOS>SUBSTRUCTURE
     1 LD1         1 TEMP              0 ****  ****    0 ROOT
