@<TRIPOS>MOLECULE
LD2
   41    37     1     0     0
SMALL
bcc


@<TRIPOS>ATOM
      1 C1         -2.1610    0.2310   -2.9470 c1        1 LD2      0.043000
      2 C2         -1.6120   -0.9820   -2.3710 c1        1 LD2      0.023000
      3 C3         -0.8930   -0.9220   -1.1550 c1        1 LD2     -0.125000
      4 C4         -0.7090    0.3270   -0.4970 c1        1 LD2     -0.108000
      5 C5         -1.2490    1.5220   -1.0650 c1        1 LD2     -0.103000
      6 C6         -1.9750    1.4660   -2.2920 c1        1 LD2     -0.116000
      7 O7         -2.9360    0.1100   -4.2430 os        1 LD2     -0.192000
      8 C8         -3.2060   -1.1570   -4.7120 c3        1 LD2     -0.040000
      9 C9         -2.1170   -2.1000   -4.4160 c2        1 LD2      0.284000
     10 N10        -1.6930   -2.2040   -3.1610 n         1 LD2     -0.322000
     11 O11        -1.6880   -2.8440   -5.2840 o         1 LD2     -0.329000
     12 C12         0.0560    0.3860    0.8710 c2        1 LD2      0.060000
     13 C13        -0.6910    0.0910    2.1790 c3        1 LD2     -0.090000
     14 S14         1.5200    3.7100   -0.2490 sh        1 LD2      0.210000
     15 C15         2.2040    2.1690   -0.8640 c2        1 LD2     -0.235000
     16 N16         2.0550    0.9620   -0.2990 n2        1 LD2     -0.117000
     17 N17         1.3740    0.6940    0.8980 n1        1 LD2     -0.049000
     18 N18         2.9830    2.0280   -1.9440 n2        1 LD2     -0.094000
     19 N19         3.3190    0.7250   -2.0490 n2        1 LD2     -0.076000
     20 C20         2.7480    0.0690   -1.0360 c1        1 LD2     -0.111000
     21 C21         0.3000   -0.2010    3.2760 c2        1 LD2     -0.089000
     22 C22         0.4270    0.6740    4.3570 c2        1 LD2     -0.111000
     23 C23         1.3480    0.4040    5.3660 c1        1 LD2     -0.128000
     24 C24         2.1360   -0.7330    5.2960 c1        1 LD2     -0.126000
     25 C25         2.0060   -1.6090    4.2120 c1        1 LD2     -0.126000
     26 C26         1.0910   -1.3390    3.2080 c1        1 LD2     -0.131000
     27 H3         -0.5430   -1.6970   -0.7850 ha        1 LD2      0.153000
     28 H5         -1.1210    2.3770   -0.6130 ha        1 LD2      0.162000
     29 H6         -2.3350    2.2680   -2.6710 ha        1 LD2      0.163000
     30 H8         -4.1360   -1.4750   -4.4600 h1        1 LD2      0.133000
     31 H8A        -3.2980   -1.1200   -5.7170 h1        1 LD2      0.133000
     32 HN10       -1.2670   -2.9540   -2.8850 hn        1 LD2      0.253000
     33 H13        -1.2300    0.8610    2.4250 hc        1 LD2      0.118000
     34 H13A       -1.2740   -0.6900    2.0500 hc        1 LD2      0.118000
     35 HS14        2.0850    4.6120   -0.7390 hs        1 LD2      0.058000
     36 H20         2.8190   -0.8750   -0.8610 DU        1 LD2      0.216000
     37 H22        -0.1280    1.4740    4.4040 ha        1 LD2      0.150000
     38 H23         1.4400    1.0290    6.1420 ha        1 LD2      0.138000
     39 H24         2.7850   -0.9240    6.0070 ha        1 LD2      0.135500
     40 H25         2.5660   -2.4150    4.1630 ha        1 LD2      0.135500
     41 H26         1.0010   -1.9480    2.4590 ha        1 LD2      0.130000
@<TRIPOS>BOND
     1    1    6 1   
     2    1    7 1   
     3    2    3 1   
     4    2   10 1   
     5    3   27 1   
     6    4    5 1   
     7    4   12 1   
     8    5   28 1   
     9    6   29 1   
    10    7    8 1   
    11    8    9 1   
    12    8   30 1   
    13    8   31 1   
    14    9   10 1   
    15    9   11 1   
    16   10   32 1   
    17   12   13 1   
    18   12   17 1   
    19   13   21 1   
    20   13   33 1   
    21   13   34 1   
    22   14   15 1   
    23   14   35 1   
    24   15   16 1   
    25   15   18 1   
    26   16   20 1   
    27   18   19 1   
    28   19   20 1   
    29   21   22 1   
    30   21   26 1   
    31   22   23 1   
    32   22   37 1   
    33   23   38 1   
    34   24   25 1   
    35   24   39 1   
    36   25   40 1   
    37   26   41 1   
@<TRIPOS>SUBSTRUCTURE
     1 LD2         1 TEMP              0 ****  ****    0 ROOT
