@<TRIPOS>MOLECULE
LD2
   41    44     1     0     0
SMALL
bcc


@<TRIPOS>ATOM
      1 C1          0.1730   -0.4800   -0.0460 ca        1 LD2      0.082100
      2 C2          1.2440    0.4330    0.1370 ca        1 LD2      0.015600
      3 C3          1.8300    0.5360    1.4130 ca        1 LD2     -0.109000
      4 C4          1.3500   -0.2510    2.4630 ca        1 LD2     -0.131900
      5 C5          0.3000   -1.1530    2.2620 ca        1 LD2     -0.114000
      6 C6         -0.2950   -1.2680    1.0090 ca        1 LD2     -0.118000
      7 O7         -0.4000   -0.6890   -1.2900 os        1 LD2     -0.310900
      8 C8         -0.3250    0.4190   -2.1870 c3        1 LD2      0.060400
      9 C9          0.9770    1.2020   -2.1390 c         1 LD2      0.675500
     10 N10         1.6850    1.2040   -0.9460 n         1 LD2     -0.467100
     11 O11         1.3840    1.8560   -3.1130 o         1 LD2     -0.605500
     12 C12         1.9620   -0.1330    3.8110 ce        1 LD2      0.465900
     13 C13         0.9870    0.1970    4.9120 c3        1 LD2     -0.108400
     14 C15         5.3350    0.1550    5.0490 cc        1 LD2      0.482800
     15 N16         3.9740   -0.2810    5.0060 na        1 LD2     -0.108600
     16 N17         3.2550   -0.3280    3.8760 n2        1 LD2     -0.497100
     17 N18         5.8120   -0.0840    6.3100 nd        1 LD2     -0.370000
     18 N19         4.8750   -0.6510    7.0450 nd        1 LD2     -0.327000
     19 C20         3.7470   -0.8010    6.3130 cc        1 LD2      0.336400
     20 C21         1.0910    1.6240    5.3300 ca        1 LD2     -0.096300
     21 C22         0.4510    2.6200    4.5830 ca        1 LD2     -0.117500
     22 C23         0.5240    3.9530    4.9840 ca        1 LD2     -0.126000
     23 C24         1.2330    4.3000    6.1340 ca        1 LD2     -0.120000
     24 C25         1.8690    3.3110    6.8830 ca        1 LD2     -0.126000
     25 C26         1.7980    1.9770    6.4840 ca        1 LD2     -0.117500
     26 H3          2.6710    1.2280    1.5830 ha        1 LD2      0.158000
     27 H5         -0.0570   -1.7830    3.0910 ha        1 LD2      0.144000
     28 H6         -1.1160   -1.9780    0.8320 ha        1 LD2      0.160000
     29 H8         -0.4520   -0.0450   -3.2030 h1        1 LD2      0.092700
     30 H8A        -1.1710    1.1260   -1.9690 h1        1 LD2      0.092700
     31 HN10        2.5230    1.7310   -0.8610 hn        1 LD2      0.342500
     32 H13         1.1540   -0.4780    5.7950 hc        1 LD2      0.068200
     33 H13A       -0.0590   -0.0030    4.5480 hc        1 LD2      0.068200
     34 HS14        7.2810    1.1430    4.3490 hs        1 LD2      0.214800
     35 H20         2.8150   -1.2720    6.6330 h5        1 LD2      0.073100
     36 H22        -0.1120    2.3490    3.6780 ha        1 LD2      0.136000
     37 H23         0.0200    4.7310    4.3920 ha        1 LD2      0.137500
     38 H24         1.2900    5.3530    6.4490 ha        1 LD2      0.136000
     39 H25         2.4300    3.5800    7.7910 ha        1 LD2      0.137500
     40 H26         2.3050    1.2000    7.0790 ha        1 LD2      0.136000
     41 S14         6.1350    0.8520    3.7410 sh        1 LD2     -0.244100
@<TRIPOS>BOND
     1    1    2 ar  
     2    1    6 ar  
     3    1    7 1   
     4    2    3 ar  
     5    2   10 1   
     6    3    4 ar  
     7    3   26 1   
     8    4    5 ar  
     9    4   12 1   
    10    5    6 ar  
    11    5   27 1   
    12    6   28 1   
    13    7    8 1   
    14    8    9 1   
    15    8   29 1   
    16    8   30 1   
    17    9   10 1   
    18    9   11 2   
    19   10   31 1   
    20   12   13 1   
    21   12   16 2   
    22   13   20 1   
    23   13   32 1   
    24   13   33 1   
    25   14   15 1   
    26   14   17 2   
    27   14   41 1   
    28   15   16 1   
    29   15   19 1   
    30   17   18 1   
    31   18   19 2   
    32   19   35 1   
    33   20   21 ar  
    34   20   25 ar  
    35   21   22 ar  
    36   21   36 1   
    37   22   23 ar  
    38   22   37 1   
    39   23   24 ar  
    40   23   38 1   
    41   24   25 ar  
    42   24   39 1   
    43   25   40 1   
    44   34   41 1   
@<TRIPOS>SUBSTRUCTURE
     1 LD2         1 TEMP              0 ****  ****    0 ROOT
