@<TRIPOS>MOLECULE
LD2
   41    44     1     0     0
SMALL
bcc


@<TRIPOS>ATOM
      1 C1         -3.7200    0.2590    0.9470 ca        1 LD2      0.082100
      2 C2         -3.0180   -0.1940   -0.2010 ca        1 LD2      0.015600
      3 C3         -1.6130   -0.2580   -0.1480 ca        1 LD2     -0.109000
      4 C4         -0.9430    0.1240    1.0170 ca        1 LD2     -0.131900
      5 C5         -1.6530    0.5580    2.1430 ca        1 LD2     -0.114000
      6 C6         -3.0420    0.6310    2.1100 ca        1 LD2     -0.118000
      7 O7         -5.1050    0.2750    0.9920 os        1 LD2     -0.310900
      8 C8         -5.7520    0.4220   -0.2710 c3        1 LD2      0.060400
      9 C9         -5.1000   -0.3240   -1.4220 c         1 LD2      0.675500
     10 N10        -3.7350   -0.5600   -1.3470 n         1 LD2     -0.467100
     11 O11        -5.7440   -0.6800   -2.4220 o         1 LD2     -0.605500
     12 C12         0.5400    0.0670    1.0670 ce        1 LD2      0.465900
     13 C13         1.2030    1.3710    1.4310 c3        1 LD2     -0.108400
     14 C15         3.0260   -2.2880   -0.0560 cc        1 LD2      0.482800
     15 N16         2.3990   -1.3390    0.8100 na        1 LD2     -0.108600
     16 N17         1.0810   -1.0940    0.7950 n2        1 LD2     -0.497100
     17 N18         4.3320   -2.4130    0.3370 nd        1 LD2     -0.370000
     18 N19         4.5630   -1.6450    1.3830 nd        1 LD2     -0.327000
     19 C20         3.4340   -0.9770    1.7180 cc        1 LD2      0.336400
     20 C21         1.8050    2.0320    0.2380 ca        1 LD2     -0.096300
     21 C22         1.0010    2.7820   -0.6290 ca        1 LD2     -0.117500
     22 C23         1.5640    3.4230   -1.7300 ca        1 LD2     -0.126000
     23 C24         2.9340    3.3230   -1.9740 ca        1 LD2     -0.120000
     24 C25         3.7400    2.5810   -1.1110 ca        1 LD2     -0.126000
     25 C26         3.1790    1.9380   -0.0080 ca        1 LD2     -0.117500
     26 H3         -1.0400   -0.6160   -1.0190 ha        1 LD2      0.158000
     27 H5         -1.1170    0.8380    3.0620 ha        1 LD2      0.144000
     28 H6         -3.6150    0.9640    2.9880 ha        1 LD2      0.160000
     29 H8         -6.7870    0.0180   -0.0940 h1        1 LD2      0.092700
     30 H8A        -5.7960    1.5130   -0.5360 h1        1 LD2      0.092700
     31 HN10       -3.2620   -1.0150   -2.0940 hn        1 LD2      0.342500
     32 H13         0.4350    2.0600    1.8820 hc        1 LD2      0.068200
     33 H13A        1.9870    1.2040    2.2170 hc        1 LD2      0.068200
     34 HS14        3.2760   -3.7180   -1.8290 hs        1 LD2      0.214800
     35 H20         3.3010   -0.2960    2.5610 h5        1 LD2      0.073100
     36 H22        -0.0800    2.8650   -0.4370 ha        1 LD2      0.136000
     37 H23         0.9260    4.0090   -2.4080 ha        1 LD2      0.137500
     38 H24         3.3770    3.8290   -2.8440 ha        1 LD2      0.136000
     39 H25         4.8210    2.4990   -1.2990 ha        1 LD2      0.137500
     40 H26         3.8210    1.3510    0.6670 ha        1 LD2      0.136000
     41 S14         2.2370   -3.0590   -1.3280 sh        1 LD2     -0.244100
@<TRIPOS>BOND
     1    1    2 ar  
     2    1    6 ar  
     3    1    7 1   
     4    2    3 ar  
     5    2   10 1   
     6    3    4 ar  
     7    3   26 1   
     8    4    5 ar  
     9    4   12 1   
    10    5    6 ar  
    11    5   27 1   
    12    6   28 1   
    13    7    8 1   
    14    8    9 1   
    15    8   29 1   
    16    8   30 1   
    17    9   10 1   
    18    9   11 2   
    19   10   31 1   
    20   12   13 1   
    21   12   16 2   
    22   13   20 1   
    23   13   32 1   
    24   13   33 1   
    25   14   15 1   
    26   14   17 2   
    27   14   41 1   
    28   15   16 1   
    29   15   19 1   
    30   17   18 1   
    31   18   19 2   
    32   19   35 1   
    33   20   21 ar  
    34   20   25 ar  
    35   21   22 ar  
    36   21   36 1   
    37   22   23 ar  
    38   22   37 1   
    39   23   24 ar  
    40   23   38 1   
    41   24   25 ar  
    42   24   39 1   
    43   25   40 1   
    44   34   41 1   
@<TRIPOS>SUBSTRUCTURE
     1 LD2         1 TEMP              0 ****  ****    0 ROOT
