@<TRIPOS>MOLECULE
LDA
   47    46     1     0     0
SMALL
bcc


@<TRIPOS>ATOM
      1 N1          0.0750    0.0050    0.0560 n4        1 LDA     -0.146600
      2 O1          1.3470    0.1000    0.0280 o         1 LDA     -0.646000
      3 CM1        -0.4630    0.1830    1.4590 c3        1 LDA      0.071600
      4 CM2        -0.3940   -1.3460   -0.4290 c3        1 LDA      0.071600
      5 C1         -0.5980    1.0750   -0.8030 c3        1 LDA      0.093800
      6 C2         -0.1440    1.0590   -2.2530 c3        1 LDA     -0.088400
      7 C3         -0.6300    2.3050   -2.9630 c3        1 LDA     -0.077400
      8 C4         -0.2340    2.2850   -4.4240 c3        1 LDA     -0.078400
      9 C5         -0.7090    3.5330   -5.1370 c3        1 LDA     -0.079400
     10 C6         -0.3170    3.5110   -6.5990 c3        1 LDA     -0.079400
     11 C7         -0.7910    4.7590   -7.3140 c3        1 LDA     -0.078400
     12 C8         -0.4010    4.7360   -8.7760 c3        1 LDA     -0.079400
     13 C9         -0.8770    5.9830   -9.4910 c3        1 LDA     -0.079400
     14 C10        -0.4870    5.9600  -10.9530 c3        1 LDA     -0.079400
     15 C11        -0.9630    7.2060  -11.6700 c3        1 LDA     -0.080400
     16 C12        -0.5770    7.1870  -13.1270 c3        1 LDA     -0.092100
     17 HM11       -1.5770    0.0920    1.4590 hx        1 LDA      0.063867
     18 HM12       -0.1510    1.1910    1.8320 hx        1 LDA      0.063867
     19 HM13       -0.0040   -0.6020    2.1110 hx        1 LDA      0.063867
     20 HM21       -1.5100   -1.3830   -0.4500 hx        1 LDA      0.063867
     21 HM22        0.0120   -2.1280    0.2610 hx        1 LDA      0.063867
     22 HM23        0.0250   -1.5160   -1.4530 hx        1 LDA      0.063867
     23 H11        -1.7090    0.9300   -0.7390 hx        1 LDA      0.059200
     24 H12        -0.3230    2.0640   -0.3440 hx        1 LDA      0.059200
     25 H21        -0.5450    0.1500   -2.7730 hc        1 LDA      0.064700
     26 H22         0.9780    1.0060   -2.2910 hc        1 LDA      0.064700
     27 H31        -0.1960    3.2150   -2.4690 hc        1 LDA      0.039700
     28 H32        -1.7460    2.3810   -2.8770 hc        1 LDA      0.039700
     29 H41         0.8820    2.2040   -4.5080 hc        1 LDA      0.042700
     30 H42        -0.6710    1.3790   -4.9210 hc        1 LDA      0.042700
     31 H51        -0.2680    4.4390   -4.6430 hc        1 LDA      0.039200
     32 H52        -1.8240    3.6170   -5.0480 hc        1 LDA      0.039200
     33 H61        -0.7560    2.6050   -7.0930 hc        1 LDA      0.040700
     34 H62         0.7990    3.4290   -6.6880 hc        1 LDA      0.040700
     35 H71        -1.9060    4.8430   -7.2230 hc        1 LDA      0.039200
     36 H72        -0.3500    5.6650   -6.8210 hc        1 LDA      0.039200
     37 H81        -0.8410    3.8290   -9.2680 hc        1 LDA      0.040200
     38 H82         0.7140    4.6530   -8.8660 hc        1 LDA      0.040200
     39 H91        -1.9920    6.0660   -9.4000 hc        1 LDA      0.039200
     40 H92        -0.4360    6.8890   -8.9990 hc        1 LDA      0.039200
     41 H101       -0.9280    5.0530  -11.4460 hc        1 LDA      0.039700
     42 H102        0.6280    5.8760  -11.0450 hc        1 LDA      0.039700
     43 H111       -2.0780    7.2880  -11.5760 hc        1 LDA      0.038200
     44 H112       -0.5220    8.1120  -11.1750 hc        1 LDA      0.038200
     45 H121        0.5320    7.1300  -13.2400 hc        1 LDA      0.032700
     46 H122       -0.9370    8.1140  -13.6350 hc        1 LDA      0.032700
     47 H123       -1.0280    6.3040  -13.6420 hc        1 LDA      0.032700
@<TRIPOS>BOND
     1    1    2 1   
     2    1    3 1   
     3    1    4 1   
     4    1    5 1   
     5    3   17 1   
     6    3   18 1   
     7    3   19 1   
     8    4   20 1   
     9    4   21 1   
    10    4   22 1   
    11    5    6 1   
    12    5   23 1   
    13    5   24 1   
    14    6    7 1   
    15    6   25 1   
    16    6   26 1   
    17    7    8 1   
    18    7   27 1   
    19    7   28 1   
    20    8    9 1   
    21    8   29 1   
    22    8   30 1   
    23    9   10 1   
    24    9   31 1   
    25    9   32 1   
    26   10   11 1   
    27   10   33 1   
    28   10   34 1   
    29   11   12 1   
    30   11   35 1   
    31   11   36 1   
    32   12   13 1   
    33   12   37 1   
    34   12   38 1   
    35   13   14 1   
    36   13   39 1   
    37   13   40 1   
    38   14   15 1   
    39   14   41 1   
    40   14   42 1   
    41   15   16 1   
    42   15   43 1   
    43   15   44 1   
    44   16   45 1   
    45   16   46 1   
    46   16   47 1   
@<TRIPOS>SUBSTRUCTURE
     1 LDA         1 TEMP              0 ****  ****    0 ROOT
