@<TRIPOS>MOLECULE
LDA
   47    46     1     0     0
SMALL
bcc


@<TRIPOS>ATOM
      1 N1          0.0790    0.0070    0.0570 n4        1 LDA     -0.146600
      2 O1          1.3500    0.1050    0.0270 o         1 LDA     -0.646000
      3 CM1        -0.4580    0.1860    1.4600 c3        1 LDA      0.071600
      4 CM2        -0.3880   -1.3460   -0.4260 c3        1 LDA      0.071600
      5 C1         -0.5970    1.0750   -0.8030 c3        1 LDA      0.093800
      6 C2         -0.1450    1.0580   -2.2540 c3        1 LDA     -0.088400
      7 C3         -0.6340    2.3030   -2.9640 c3        1 LDA     -0.077400
      8 C4         -0.2380    2.2830   -4.4250 c3        1 LDA     -0.078400
      9 C5         -0.7140    3.5300   -5.1390 c3        1 LDA     -0.079400
     10 C6         -0.3210    3.5090   -6.6000 c3        1 LDA     -0.079400
     11 C7         -0.7960    4.7560   -7.3150 c3        1 LDA     -0.078400
     12 C8         -0.4030    4.7350   -8.7770 c3        1 LDA     -0.079400
     13 C9         -0.8780    5.9820   -9.4910 c3        1 LDA     -0.079400
     14 C10        -0.4860    5.9610  -10.9530 c3        1 LDA     -0.079400
     15 C11        -0.9600    7.2070  -11.6690 c3        1 LDA     -0.080400
     16 C12        -0.5720    7.1910  -13.1250 c3        1 LDA     -0.092100
     17 HM11        0.0020   -0.5970    2.1120 hx        1 LDA      0.063867
     18 HM12       -0.1470    1.1940    1.8310 hx        1 LDA      0.063867
     19 HM13       -1.5720    0.0930    1.4620 hx        1 LDA      0.063867
     20 HM21        0.0290   -1.5160   -1.4500 hx        1 LDA      0.063867
     21 HM22        0.0190   -2.1260    0.2640 hx        1 LDA      0.063867
     22 HM23       -1.5050   -1.3850   -0.4450 hx        1 LDA      0.063867
     23 H11        -1.7080    0.9280   -0.7380 hx        1 LDA      0.059200
     24 H12        -0.3250    2.0650   -0.3450 hx        1 LDA      0.059200
     25 H21        -0.5450    0.1480   -2.7720 hc        1 LDA      0.064700
     26 H22         0.9770    1.0070   -2.2920 hc        1 LDA      0.064700
     27 H31        -0.2010    3.2140   -2.4710 hc        1 LDA      0.039700
     28 H32        -1.7500    2.3770   -2.8780 hc        1 LDA      0.039700
     29 H41         0.8780    2.2030   -4.5100 hc        1 LDA      0.042700
     30 H42        -0.6740    1.3760   -4.9210 hc        1 LDA      0.042700
     31 H51        -1.8290    3.6120   -5.0510 hc        1 LDA      0.039200
     32 H52        -0.2760    4.4370   -4.6440 hc        1 LDA      0.039200
     33 H61         0.7950    3.4280   -6.6880 hc        1 LDA      0.040700
     34 H62        -0.7580    2.6020   -7.0950 hc        1 LDA      0.040700
     35 H71        -0.3580    5.6630   -6.8210 hc        1 LDA      0.039200
     36 H72        -1.9120    4.8380   -7.2260 hc        1 LDA      0.039200
     37 H81        -0.8420    3.8280   -9.2710 hc        1 LDA      0.040200
     38 H82         0.7120    4.6530   -8.8650 hc        1 LDA      0.040200
     39 H91        -0.4400    6.8890   -8.9970 hc        1 LDA      0.039200
     40 H92        -1.9940    6.0640   -9.4020 hc        1 LDA      0.039200
     41 H101        0.6290    5.8780  -11.0420 hc        1 LDA      0.039700
     42 H102       -0.9250    5.0540  -11.4470 hc        1 LDA      0.039700
     43 H111       -0.5220    8.1130  -11.1720 hc        1 LDA      0.038200
     44 H112       -2.0760    7.2890  -11.5780 hc        1 LDA      0.038200
     45 H121       -1.0200    6.3080  -13.6430 hc        1 LDA      0.032700
     46 H122       -0.9300    8.1180  -13.6330 hc        1 LDA      0.032700
     47 H123        0.5380    7.1340  -13.2360 hc        1 LDA      0.032700
@<TRIPOS>BOND
     1    1    2 1   
     2    1    3 1   
     3    1    4 1   
     4    1    5 1   
     5    3   17 1   
     6    3   18 1   
     7    3   19 1   
     8    4   20 1   
     9    4   21 1   
    10    4   22 1   
    11    5    6 1   
    12    5   23 1   
    13    5   24 1   
    14    6    7 1   
    15    6   25 1   
    16    6   26 1   
    17    7    8 1   
    18    7   27 1   
    19    7   28 1   
    20    8    9 1   
    21    8   29 1   
    22    8   30 1   
    23    9   10 1   
    24    9   31 1   
    25    9   32 1   
    26   10   11 1   
    27   10   33 1   
    28   10   34 1   
    29   11   12 1   
    30   11   35 1   
    31   11   36 1   
    32   12   13 1   
    33   12   37 1   
    34   12   38 1   
    35   13   14 1   
    36   13   39 1   
    37   13   40 1   
    38   14   15 1   
    39   14   41 1   
    40   14   42 1   
    41   15   16 1   
    42   15   43 1   
    43   15   44 1   
    44   16   45 1   
    45   16   46 1   
    46   16   47 1   
@<TRIPOS>SUBSTRUCTURE
     1 LDA         1 TEMP              0 ****  ****    0 ROOT
