@<TRIPOS>MOLECULE
LDA
   47    46     1     0     0
SMALL
bcc


@<TRIPOS>ATOM
      1 N1         -5.9620   -0.1130    0.0860 n4        1 LDA     -0.146600
      2 O1         -5.9560   -0.7430    1.1940 o         1 LDA     -0.646000
      3 CM1        -7.0620    0.9260    0.0440 c3        1 LDA      0.071600
      4 CM2        -6.1870   -1.0420   -1.0830 c3        1 LDA      0.071600
      5 C1         -4.6520    0.6380   -0.1530 c3        1 LDA      0.093800
      6 C2         -3.4260   -0.2590   -0.1140 c3        1 LDA     -0.088400
      7 C3         -2.1680    0.5830   -0.0740 c3        1 LDA     -0.077400
      8 C4         -0.9320   -0.2910   -0.0860 c3        1 LDA     -0.078400
      9 C5          0.3290    0.5440   -0.0350 c3        1 LDA     -0.079400
     10 C6          1.5660   -0.3280   -0.0500 c3        1 LDA     -0.079400
     11 C7          2.8280    0.5060    0.0030 c3        1 LDA     -0.078400
     12 C8          4.0640   -0.3660   -0.0130 c3        1 LDA     -0.079400
     13 C9          5.3260    0.4680    0.0390 c3        1 LDA     -0.079400
     14 C10         6.5630   -0.4050    0.0230 c3        1 LDA     -0.079400
     15 C11         7.8260    0.4280    0.0760 c3        1 LDA     -0.080400
     16 C12         9.0600   -0.4360    0.0600 c3        1 LDA     -0.092100
     17 HM11       -7.0500    1.4620   -0.9360 hx        1 LDA      0.063867
     18 HM12       -8.0400    0.4030    0.1950 hx        1 LDA      0.063867
     19 HM13       -6.9030    1.6430    0.8870 hx        1 LDA      0.063867
     20 HM21       -5.4050   -1.8420   -1.0510 hx        1 LDA      0.063867
     21 HM22       -7.1940   -1.5170   -0.9670 hx        1 LDA      0.063867
     22 HM23       -6.1310   -0.4750   -2.0440 hx        1 LDA      0.063867
     23 H11        -4.5740    1.4020    0.6680 hx        1 LDA      0.059200
     24 H12        -4.7230    1.1620   -1.1440 hx        1 LDA      0.059200
     25 H21        -3.4050   -0.9240   -1.0170 hc        1 LDA      0.064700
     26 H22        -3.4780   -0.9200    0.7940 hc        1 LDA      0.064700
     27 H31        -2.1690    1.2180    0.8510 hc        1 LDA      0.039700
     28 H32        -2.1470    1.2770   -0.9550 hc        1 LDA      0.039700
     29 H41        -0.9270   -0.9230   -1.0130 hc        1 LDA      0.042700
     30 H42        -0.9580   -0.9890    0.7910 hc        1 LDA      0.042700
     31 H51         0.3250    1.1750    0.8940 hc        1 LDA      0.039200
     32 H52         0.3530    1.2460   -0.9100 hc        1 LDA      0.039200
     33 H61         1.5700   -0.9590   -0.9780 hc        1 LDA      0.040700
     34 H62         1.5420   -1.0290    0.8260 hc        1 LDA      0.040700
     35 H71         2.8240    1.1360    0.9310 hc        1 LDA      0.039200
     36 H72         2.8510    1.2080   -0.8730 hc        1 LDA      0.039200
     37 H81         4.0680   -0.9970   -0.9410 hc        1 LDA      0.040200
     38 H82         4.0410   -1.0680    0.8620 hc        1 LDA      0.040200
     39 H91         5.3220    1.0980    0.9670 hc        1 LDA      0.039200
     40 H92         5.3500    1.1690   -0.8360 hc        1 LDA      0.039200
     41 H101        6.5670   -1.0350   -0.9050 hc        1 LDA      0.039700
     42 H102        6.5400   -1.1060    0.8990 hc        1 LDA      0.039700
     43 H111        7.8190    1.0590    1.0040 hc        1 LDA      0.038200
     44 H112        7.8470    1.1300   -0.8000 hc        1 LDA      0.038200
     45 H121        9.9790    0.1970    0.0990 hc        1 LDA      0.032700
     46 H122        9.0690   -1.1260    0.9390 hc        1 LDA      0.032700
     47 H123        9.0970   -1.0540   -0.8700 hc        1 LDA      0.032700
@<TRIPOS>BOND
     1    1    2 1   
     2    1    3 1   
     3    1    4 1   
     4    1    5 1   
     5    3   17 1   
     6    3   18 1   
     7    3   19 1   
     8    4   20 1   
     9    4   21 1   
    10    4   22 1   
    11    5    6 1   
    12    5   23 1   
    13    5   24 1   
    14    6    7 1   
    15    6   25 1   
    16    6   26 1   
    17    7    8 1   
    18    7   27 1   
    19    7   28 1   
    20    8    9 1   
    21    8   29 1   
    22    8   30 1   
    23    9   10 1   
    24    9   31 1   
    25    9   32 1   
    26   10   11 1   
    27   10   33 1   
    28   10   34 1   
    29   11   12 1   
    30   11   35 1   
    31   11   36 1   
    32   12   13 1   
    33   12   37 1   
    34   12   38 1   
    35   13   14 1   
    36   13   39 1   
    37   13   40 1   
    38   14   15 1   
    39   14   41 1   
    40   14   42 1   
    41   15   16 1   
    42   15   43 1   
    43   15   44 1   
    44   16   45 1   
    45   16   46 1   
    46   16   47 1   
@<TRIPOS>SUBSTRUCTURE
     1 LDA         1 TEMP              0 ****  ****    0 ROOT
