@<TRIPOS>MOLECULE
LDA
   47    46     1     0     0
SMALL
bcc


@<TRIPOS>ATOM
      1 N1          0.0860    0.0060    0.0550 n4        1 LDA     -0.146600
      2 O1          1.3570    0.0900    0.0150 o         1 LDA     -0.646000
      3 CM1        -0.4390    0.1920    1.4620 c3        1 LDA      0.071600
      4 CM2        -0.4000   -1.3430   -0.4230 c3        1 LDA      0.071600
      5 C1         -0.5860    1.0800   -0.8010 c3        1 LDA      0.093800
      6 C2         -0.1440    1.0570   -2.2550 c3        1 LDA     -0.088400
      7 C3         -0.6250    2.3060   -2.9620 c3        1 LDA     -0.077400
      8 C4         -0.2400    2.2800   -4.4260 c3        1 LDA     -0.078400
      9 C5         -0.7080    3.5320   -5.1380 c3        1 LDA     -0.079400
     10 C6         -0.3260    3.5060   -6.6020 c3        1 LDA     -0.079400
     11 C7         -0.7930    4.7570   -7.3140 c3        1 LDA     -0.078400
     12 C8         -0.4110    4.7310   -8.7790 c3        1 LDA     -0.079400
     13 C9         -0.8780    5.9820   -9.4910 c3        1 LDA     -0.079400
     14 C10        -0.4960    5.9560  -10.9550 c3        1 LDA     -0.079400
     15 C11        -0.9630    7.2080  -11.6690 c3        1 LDA     -0.080400
     16 C12        -0.5850    7.1860  -13.1270 c3        1 LDA     -0.092100
     17 HM11        0.0180   -0.5960    2.1110 hx        1 LDA      0.063867
     18 HM12       -0.1140    1.1970    1.8300 hx        1 LDA      0.063867
     19 HM13       -1.5530    0.1110    1.4720 hx        1 LDA      0.063867
     20 HM21        0.0080   -1.5180   -1.4500 hx        1 LDA      0.063867
     21 HM22        0.0050   -2.1270    0.2640 hx        1 LDA      0.063867
     22 HM23       -1.5170   -1.3690   -0.4340 hx        1 LDA      0.063867
     23 H11        -1.6980    0.9450   -0.7270 hx        1 LDA      0.059200
     24 H12        -0.2990    2.0670   -0.3460 hx        1 LDA      0.059200
     25 H21        -0.5580    0.1500   -2.7690 hc        1 LDA      0.064700
     26 H22         0.9770    0.9930   -2.3020 hc        1 LDA      0.064700
     27 H31        -0.1790    3.2120   -2.4740 hc        1 LDA      0.039700
     28 H32        -1.7400    2.3920   -2.8680 hc        1 LDA      0.039700
     29 H41         0.8740    2.1880   -4.5200 hc        1 LDA      0.042700
     30 H42        -0.6900    1.3780   -4.9190 hc        1 LDA      0.042700
     31 H51        -1.8220    3.6270   -5.0410 hc        1 LDA      0.039200
     32 H52        -0.2560    4.4340   -4.6470 hc        1 LDA      0.039200
     33 H61         0.7880    3.4120   -6.6980 hc        1 LDA      0.040700
     34 H62        -0.7780    2.6030   -7.0930 hc        1 LDA      0.040700
     35 H71        -0.3410    5.6600   -6.8240 hc        1 LDA      0.039200
     36 H72        -1.9070    4.8520   -7.2180 hc        1 LDA      0.039200
     37 H81        -0.8630    3.8290   -9.2690 hc        1 LDA      0.040200
     38 H82         0.7020    4.6370   -8.8750 hc        1 LDA      0.040200
     39 H91        -0.4270    6.8850   -9.0000 hc        1 LDA      0.039200
     40 H92        -1.9920    6.0770   -9.3940 hc        1 LDA      0.039200
     41 H101        0.6170    5.8620  -11.0520 hc        1 LDA      0.039700
     42 H102       -0.9480    5.0540  -11.4460 hc        1 LDA      0.039700
     43 H111       -0.5110    8.1090  -11.1760 hc        1 LDA      0.038200
     44 H112       -2.0760    7.3010  -11.5690 hc        1 LDA      0.038200
     45 H121       -1.0460    6.3080  -13.6410 hc        1 LDA      0.032700
     46 H122       -0.9370    8.1170  -13.6340 hc        1 LDA      0.032700
     47 H123        0.5240    7.1180  -13.2460 hc        1 LDA      0.032700
@<TRIPOS>BOND
     1    1    2 1   
     2    1    3 1   
     3    1    4 1   
     4    1    5 1   
     5    3   17 1   
     6    3   18 1   
     7    3   19 1   
     8    4   20 1   
     9    4   21 1   
    10    4   22 1   
    11    5    6 1   
    12    5   23 1   
    13    5   24 1   
    14    6    7 1   
    15    6   25 1   
    16    6   26 1   
    17    7    8 1   
    18    7   27 1   
    19    7   28 1   
    20    8    9 1   
    21    8   29 1   
    22    8   30 1   
    23    9   10 1   
    24    9   31 1   
    25    9   32 1   
    26   10   11 1   
    27   10   33 1   
    28   10   34 1   
    29   11   12 1   
    30   11   35 1   
    31   11   36 1   
    32   12   13 1   
    33   12   37 1   
    34   12   38 1   
    35   13   14 1   
    36   13   39 1   
    37   13   40 1   
    38   14   15 1   
    39   14   41 1   
    40   14   42 1   
    41   15   16 1   
    42   15   43 1   
    43   15   44 1   
    44   16   45 1   
    45   16   46 1   
    46   16   47 1   
@<TRIPOS>SUBSTRUCTURE
     1 LDA         1 TEMP              0 ****  ****    0 ROOT
