@<TRIPOS>MOLECULE
LDC
   29    27     1     0     0
SMALL
bcc


@<TRIPOS>ATOM
      1 O1          2.0520    1.8250    0.1280 o         1 LDC     -0.340000
      2 C2          1.4090    1.4410    1.0630 c1        1 LDC      0.361000
      3 N3          1.8700    1.6260    2.3180 n1        1 LDC     -0.296000
      4 C3          1.0990    1.2540    3.4060 c1        1 LDC      0.230000
      5 N4          1.6100    1.3400    4.6530 n2        1 LDC     -0.359000
      6 C4         -0.1250    0.7010    3.2150 c2        1 LDC     -0.342000
      7 C5         -0.5870    0.5160    1.9810 c1        1 LDC      0.066000
      8 N2          0.2030    0.8970    0.8690 n2        1 LDC     -0.290000
      9 C8         -0.3210    0.7740   -0.4700 c3        1 LDC      0.139000
     10 C9         -1.3290   -0.5150   -0.5670 c3        1 LDC     -0.198000
     11 C10        -1.3670   -0.8550   -1.8270 c3        1 LDC      0.015000
     12 O3         -2.5250   -0.1470   -2.5400 oh        1 LDC     -0.315000
     13 C11        -0.0160   -0.3910   -2.4110 c3        1 LDC     -0.020000
     14 O4          0.6270    0.5510   -1.2950 os        1 LDC     -0.270000
     15 C12         0.8220   -1.5030   -2.6770 c3        1 LDC     -0.035000
     16 O5          0.3770   -2.1630   -3.8790 oh        1 LDC     -0.341000
     17 HN41        1.0550    1.2540    5.3880 hn        1 LDC      0.233000
     18 HN42        2.6000    1.5400    4.7830 hn        1 LDC      0.233000
     19 H4         -0.6750    0.4360    3.9960 ha        1 LDC      0.153000
     20 H5         -1.5180    0.0940    1.8380 ha        1 LDC      0.152000
     21 H8         -0.8160    1.6260   -0.7320 h2        1 LDC      0.176000
     22 H91        -2.2150   -0.2680   -0.2630 hc        1 LDC      0.123500
     23 H92        -0.9820   -1.2520   -0.0310 hc        1 LDC      0.123500
     24 H10        -1.4670   -1.9120   -1.9180 h1        1 LDC      0.091000
     25 HO3        -3.0300   -0.7760   -3.0200 ho        1 LDC      0.218000
     26 H11        -0.1740    0.1430   -3.2680 h1        1 LDC      0.125000
     27 H121        1.7310   -1.2000   -2.7940 h1        1 LDC      0.078000
     28 H122        0.7790   -2.1530   -1.8990 h1        1 LDC      0.078000
     29 HO5         0.9100   -2.8830   -4.0460 ho        1 LDC      0.211000
@<TRIPOS>BOND
     1    1    2 1   
     2    2    8 1   
     3    3    4 1   
     4    4    6 1   
     5    5   17 1   
     6    5   18 1   
     7    6    7 1   
     8    6   19 1   
     9    7   20 1   
    10    8    9 1   
    11    9   10 1   
    12    9   14 1   
    13    9   21 1   
    14   10   11 1   
    15   10   22 1   
    16   10   23 1   
    17   11   12 1   
    18   11   13 1   
    19   11   24 1   
    20   12   25 1   
    21   13   14 1   
    22   13   15 1   
    23   13   26 1   
    24   15   16 1   
    25   15   27 1   
    26   15   28 1   
    27   16   29 1   
@<TRIPOS>SUBSTRUCTURE
     1 LDC         1 TEMP              0 ****  ****    0 ROOT
