@<TRIPOS>MOLECULE
LDC
   30    31     1     0     0
SMALL
bcc


@<TRIPOS>ATOM
      1 O1          0.1040   -0.4910   -0.2160 o         1 LDC     -0.524500
      2 C2          1.3180   -0.2620   -0.1490 c         1 LDC      0.822900
      3 N3          2.0250   -0.3530    1.0810 nc        1 LDC     -0.639100
      4 C3          3.3200   -0.0890    1.0690 cd        1 LDC      0.607500
      5 N4          4.0390   -0.1780    2.3710 n4        1 LDC     -0.802600
      6 C4          4.0820    0.2770   -0.0810 cd        1 LDC     -0.451600
      7 C5          3.3730    0.3660   -1.2790 cc        1 LDC      0.129600
      8 N2          2.0440    0.1060   -1.3450 n         1 LDC     -0.358000
      9 C8          1.2530    0.2880   -2.5890 c3        1 LDC      0.302500
     10 C9          0.5880   -1.0020   -3.1090 c3        1 LDC     -0.149400
     11 C10         1.2720   -1.3120   -4.4470 c3        1 LDC      0.127100
     12 O3          0.3620   -1.2530   -5.5270 oh        1 LDC     -0.579800
     13 C11         2.2860   -0.1720   -4.6650 c3        1 LDC      0.084100
     14 O4          2.0870    0.8000   -3.6220 os        1 LDC     -0.404600
     15 C12         3.7330   -0.6630   -4.6410 c3        1 LDC      0.109400
     16 O5          4.6140    0.3450   -4.1900 oh        1 LDC     -0.608800
     17 HN41        4.4370    0.7430    2.5850 hn        1 LDC      0.477800
     18 HN42        4.7930   -0.8670    2.2800 hn        1 LDC      0.477800
     19 H4          5.1570    0.4860   -0.0570 ha        1 LDC      0.185000
     20 H5          3.8920    0.6560   -2.2300 h4        1 LDC      0.244000
     21 H8          0.4960    1.0980   -2.3570 h2        1 LDC      0.124700
     22 H91         0.6780   -1.8540   -2.3930 hc        1 LDC      0.095200
     23 H92        -0.5040   -0.8000   -3.2640 hc        1 LDC      0.095200
     24 H10         1.7790   -2.3140   -4.4220 h1        1 LDC      0.062700
     25 HO3        -0.2210   -2.0210   -5.4550 ho        1 LDC      0.422000
     26 H11         2.0650    0.3880   -5.6180 h1        1 LDC      0.119700
     27 H121        4.0210   -1.0120   -5.6680 h1        1 LDC      0.064700
     28 H122        3.8740   -1.5030   -3.9080 h1        1 LDC      0.064700
     29 HO5         4.5200    1.1020   -4.7830 ho        1 LDC      0.423000
     30 H43         3.4040   -0.4620    3.1310 hn        1 LDC      0.477800
@<TRIPOS>BOND
     1    1    2 2   
     2    2    3 1   
     3    2    8 1   
     4    3    4 2   
     5    4    5 1   
     6    4    6 1   
     7    5   17 1   
     8    5   18 1   
     9    5   30 1   
    10    6    7 2   
    11    6   19 1   
    12    7    8 1   
    13    7   20 1   
    14    8    9 1   
    15    9   10 1   
    16    9   14 1   
    17    9   21 1   
    18   10   11 1   
    19   10   22 1   
    20   10   23 1   
    21   11   12 1   
    22   11   13 1   
    23   11   24 1   
    24   12   25 1   
    25   13   14 1   
    26   13   15 1   
    27   13   26 1   
    28   15   16 1   
    29   15   27 1   
    30   15   28 1   
    31   16   29 1   
@<TRIPOS>SUBSTRUCTURE
     1 LDC         1 TEMP              0 ****  ****    0 ROOT
