@<TRIPOS>MOLECULE
LDC
   29    30     1     0     0
SMALL
bcc


@<TRIPOS>ATOM
      1 O1          2.8970    1.3360   -1.7370 o         1 LDC     -0.627500
      2 C2          2.4110    0.3290   -2.2910 c         1 LDC      0.836900
      3 N3          3.1880   -0.7370   -2.7490 nc        1 LDC     -0.725100
      4 C3          2.5780   -1.7840   -3.3380 cd        1 LDC      0.758500
      5 N4          3.3230   -2.8710   -3.7370 nh        1 LDC     -0.919800
      6 C4          1.1300   -1.8230   -3.5380 cd        1 LDC     -0.433600
      7 C5          0.3890   -0.7640   -3.0800 cc        1 LDC      0.074600
      8 N2          0.9680    0.3020   -2.4470 n         1 LDC     -0.409000
      9 C8          0.2110    1.4680   -1.9920 c3        1 LDC      0.308500
     10 C9          0.2370    1.6830   -0.4630 c3        1 LDC     -0.144400
     11 C10        -1.1880    1.4200    0.0260 c3        1 LDC      0.124100
     12 O3         -1.7090    2.4810    0.7960 oh        1 LDC     -0.580800
     13 C11        -2.0200    1.1800   -1.2490 c3        1 LDC      0.051100
     14 O4         -1.1680    1.3810   -2.3870 os        1 LDC     -0.434600
     15 C12        -2.6080   -0.2280   -1.3030 c3        1 LDC      0.115400
     16 O5         -3.3800   -0.4260   -2.4690 oh        1 LDC     -0.593800
     17 HN41        2.8940   -3.5390   -4.3260 hn        1 LDC      0.439300
     18 HN42        4.3130   -2.8350   -3.7010 hn        1 LDC      0.439300
     19 H4          0.6500   -2.6710   -4.0360 ha        1 LDC      0.156000
     20 H5         -0.7120   -0.7320   -3.2110 h4        1 LDC      0.164000
     21 H8          0.6270    2.3650   -2.5430 h2        1 LDC      0.102700
     22 H91         0.5480    2.7370   -0.2500 hc        1 LDC      0.089700
     23 H92         0.9740    1.0140    0.0460 hc        1 LDC      0.089700
     24 H10        -1.2360    0.5350    0.7180 h1        1 LDC      0.096700
     25 HO3        -1.6450    3.2890    0.2710 ho        1 LDC      0.406000
     26 H11        -2.8400    1.9420   -1.3590 h1        1 LDC      0.093700
     27 H121       -3.3200   -0.3820   -0.4490 h1        1 LDC      0.055700
     28 H122       -1.7870   -0.9940   -1.2560 h1        1 LDC      0.055700
     29 HO5        -2.8700   -0.0870   -3.2160 ho        1 LDC      0.409000
@<TRIPOS>BOND
     1    1    2 2   
     2    2    3 1   
     3    2    8 1   
     4    3    4 2   
     5    4    5 1   
     6    4    6 1   
     7    5   17 1   
     8    5   18 1   
     9    6    7 2   
    10    6   19 1   
    11    7    8 1   
    12    7   20 1   
    13    8    9 1   
    14    9   10 1   
    15    9   14 1   
    16    9   21 1   
    17   10   11 1   
    18   10   22 1   
    19   10   23 1   
    20   11   12 1   
    21   11   13 1   
    22   11   24 1   
    23   12   25 1   
    24   13   14 1   
    25   13   15 1   
    26   13   26 1   
    27   15   16 1   
    28   15   27 1   
    29   15   28 1   
    30   16   29 1   
@<TRIPOS>SUBSTRUCTURE
     1 LDC         1 TEMP              0 ****  ****    0 ROOT
