@<TRIPOS>MOLECULE
LDC
   29    30     1     0     0
SMALL
bcc


@<TRIPOS>ATOM
      1 O1          0.1910   -0.7580   -0.2170 o         1 LDC     -0.634500
      2 C2          1.3980   -0.4440   -0.1540 c         1 LDC      0.834900
      3 N3          2.1560   -0.5900    1.0120 nc        1 LDC     -0.726100
      4 C3          3.4500   -0.2200    0.9980 cd        1 LDC      0.750500
      5 N4          4.2330   -0.4300    2.1170 nv        1 LDC     -0.913800
      6 C4          4.0750    0.3600   -0.1870 cd        1 LDC     -0.441600
      7 C5          3.3120    0.4930   -1.3200 cc        1 LDC      0.071600
      8 N2          2.0040    0.0890   -1.3560 n         1 LDC     -0.408000
      9 C8          1.1580    0.3000   -2.5330 c3        1 LDC      0.306500
     10 C9          0.5130   -0.9860   -3.0970 c3        1 LDC     -0.144400
     11 C10         1.2530   -1.2770   -4.4050 c3        1 LDC      0.115100
     12 O3          0.3890   -1.3090   -5.5280 oh        1 LDC     -0.590800
     13 C11         2.2100   -0.0820   -4.6100 c3        1 LDC      0.132100
     14 O4          1.9060    0.8910   -3.6040 os        1 LDC     -0.398600
     15 C12         3.6650   -0.5410   -4.5100 c3        1 LDC      0.105400
     16 O5          4.4830    0.6150   -4.5400 oh        1 LDC     -0.590800
     17 HN41        3.8010   -0.7030    2.9670 hn        1 LDC      0.432300
     18 HN42        5.0860    0.0700    2.1720 hn        1 LDC      0.432300
     19 H4          5.1220    0.6790   -0.1750 ha        1 LDC      0.154000
     20 H5          3.7290    0.9340   -2.2540 h4        1 LDC      0.193000
     21 H8          0.3750    1.0670   -2.2520 h2        1 LDC      0.102700
     22 H91         0.5780   -1.8420   -2.3820 hc        1 LDC      0.087700
     23 H92        -0.5710   -0.7830   -3.2900 hc        1 LDC      0.087700
     24 H10         1.8150   -2.2480   -4.3460 h1        1 LDC      0.049700
     25 HO3        -0.2910   -1.9670   -5.3410 ho        1 LDC      0.410000
     26 H11         2.0280    0.4440   -5.5870 h1        1 LDC      0.111700
     27 H121        3.8410   -1.0940   -3.5470 h1        1 LDC      0.034200
     28 H122        3.8940   -1.2180   -5.3750 h1        1 LDC      0.034200
     29 HO5         5.3800    0.3120   -4.7240 ho        1 LDC      0.403000
@<TRIPOS>BOND
     1    1    2 2   
     2    2    3 1   
     3    2    8 1   
     4    3    4 2   
     5    4    5 1   
     6    4    6 1   
     7    5   17 1   
     8    5   18 1   
     9    6    7 2   
    10    6   19 1   
    11    7    8 1   
    12    7   20 1   
    13    8    9 1   
    14    9   10 1   
    15    9   14 1   
    16    9   21 1   
    17   10   11 1   
    18   10   22 1   
    19   10   23 1   
    20   11   12 1   
    21   11   13 1   
    22   11   24 1   
    23   12   25 1   
    24   13   14 1   
    25   13   15 1   
    26   13   26 1   
    27   15   16 1   
    28   15   27 1   
    29   15   28 1   
    30   16   29 1   
@<TRIPOS>SUBSTRUCTURE
     1 LDC         1 TEMP              0 ****  ****    0 ROOT
