@<TRIPOS>MOLECULE
LDE
   39    38     1     0     0
SMALL
bcc


@<TRIPOS>ATOM
      1 C1          3.4910    0.0880   -0.3680 c3        1 LDE     -0.100400
      2 N1          2.4500    0.2390    1.9240 n3        1 LDE     -0.875800
      3 C2          2.2550    0.3190    0.4980 c3        1 LDE     -0.106700
      4 P3          1.0220   -0.7630    0.0100 p5        1 LDE      1.509100
      5 C4         -0.3170   -0.2980    0.7970 c3        1 LDE     -0.467600
      6 C5         -1.5510   -1.0900    0.3830 c3        1 LDE     -0.156700
      7 C6         -1.8120   -2.3310    1.2800 c         1 LDE      0.905600
      8 C7         -2.7840   -0.1910    0.3830 c3        1 LDE     -0.049400
      9 CD         -3.7000    1.9840   -0.5530 c         1 LDE      0.904600
     10 CG          4.1510    1.3800   -0.8300 c3        1 LDE     -0.066700
     11 O31         1.4960   -2.1470    0.6880 oh        1 LDE     -0.834400
     12 O32         1.0390   -0.9060   -1.4500 o         1 LDE     -0.883300
     13 O61        -2.8610   -3.0040    1.0900 o         1 LDE     -0.858300
     14 O62        -0.9440   -2.6690    2.1510 o         1 LDE     -0.858300
     15 CD1         4.6900    2.1870    0.3320 c3        1 LDE     -0.087100
     16 CD2         5.2630    1.0660   -1.8120 c3        1 LDE     -0.087100
     17 OE1        -3.3150    2.8210    0.3190 o         1 LDE     -0.874300
     18 OE2        -4.7410    2.1670   -1.2540 o         1 LDE     -0.874300
     19 CG1        -2.8480    0.7350   -0.8130 c3        1 LDE     -0.183400
     20 H1          4.2630   -0.5220    0.1760 hc        1 LDE      0.062200
     21 H1A         3.1820   -0.4950   -1.2820 hc        1 LDE      0.062200
     22 HN1         2.5910   -0.7220    2.1830 hn        1 LDE      0.340800
     23 HN1A        3.2520    0.7690    2.2070 hn        1 LDE      0.340800
     24 H2          1.8910    1.3710    0.2930 h1        1 LDE      0.089700
     25 H4         -0.2300   -0.4310    1.9150 hc        1 LDE      0.126200
     26 H4A        -0.5480    0.7940    0.6610 hc        1 LDE      0.126200
     27 H5         -1.3860   -1.4760   -0.6620 hc        1 LDE      0.044700
     28 H7         -3.6970   -0.8440    0.3960 hc        1 LDE      0.051200
     29 H7A        -2.7940    0.4200    1.3240 hc        1 LDE      0.051200
     30 HG          3.3760    2.0010   -1.3640 hc        1 LDE      0.058700
     31 HO31        0.8310   -2.6090    1.2180 ho        1 LDE      0.510000
     32 HD1         5.2670    3.0680   -0.0390 hc        1 LDE      0.024700
     33 HD1A        3.8510    2.5590    0.9690 hc        1 LDE      0.024700
     34 HD1B        5.3660    1.5630    0.9650 hc        1 LDE      0.024700
     35 HD2         4.8590    0.4930   -2.6810 hc        1 LDE      0.024700
     36 HD2A        5.7270    2.0090   -2.1900 hc        1 LDE      0.024700
     37 HD2B        6.0570    0.4530   -1.3220 hc        1 LDE      0.024700
     38 HG1        -1.8210    1.0880   -1.0890 hc        1 LDE      0.015700
     39 HG1A       -3.2620    0.1840   -1.6950 hc        1 LDE      0.015700
@<TRIPOS>BOND
     1    1    3 1   
     2    1   10 1   
     3    1   20 1   
     4    1   21 1   
     5    2    3 1   
     6    2   22 1   
     7    2   23 1   
     8    3    4 1   
     9    3   24 1   
    10    4    5 1   
    11    4   11 1   
    12    4   12 2   
    13    5    6 1   
    14    5   25 1   
    15    5   26 1   
    16    6    7 1   
    17    6    8 1   
    18    6   27 1   
    19    7   13 1   
    20    7   14 1   
    21    8   19 1   
    22    8   28 1   
    23    8   29 1   
    24    9   17 1   
    25    9   18 1   
    26    9   19 1   
    27   10   15 1   
    28   10   16 1   
    29   10   30 1   
    30   11   31 1   
    31   15   32 1   
    32   15   33 1   
    33   15   34 1   
    34   16   35 1   
    35   16   36 1   
    36   16   37 1   
    37   19   38 1   
    38   19   39 1   
@<TRIPOS>SUBSTRUCTURE
     1 LDE         1 TEMP              0 ****  ****    0 ROOT
