@<TRIPOS>MOLECULE
LDE
   39    37     1     0     0
SMALL
bcc


@<TRIPOS>ATOM
      1 C1         -2.5060    0.2360   -1.2830 c3        1 LDE     -0.140000
      2 N1         -0.9740   -1.5330   -1.7960 n3        1 LDE     -0.320000
      3 C2         -1.0630   -0.2110   -1.2790 c3        1 LDE     -0.763000
      4 P3         -0.4250   -0.1820    0.4190 p5        1 LDE      2.840000
      5 C4          1.3470   -0.5780    0.4080 c3        1 LDE     -0.912000
      6 C5          1.8740   -0.5720    1.8260 c3        1 LDE     -0.151000
      7 C6          1.5680   -1.8990    2.4840 c2        1 LDE      0.328000
      8 C7          3.3710   -0.3520    1.8060 c3        1 LDE     -0.139000
      9 CD          5.3300    0.2880    3.1690 c1        1 LDE      0.308000
     10 CG         -2.8510    0.8140   -2.6370 c3        1 LDE     -0.119000
     11 O31        -0.6390    1.2570    1.0380 oh        1 LDE     -0.867000
     12 O32        -1.1490   -1.1830    1.2360 o         1 LDE     -1.174000
     13 O61         1.8830   -2.9740    1.9090 o         1 LDE     -0.592000
     14 O62         1.0010   -1.9290    3.6070 o         1 LDE     -0.592000
     15 CD1        -4.0870    0.1300   -3.1780 c3        1 LDE     -0.196500
     16 CD2        -3.1150    2.2970   -2.5000 c3        1 LDE     -0.196500
     17 OE1         6.0260   -0.6430    3.6510 o         1 LDE     -0.604000
     18 OE2         5.8880    1.3150    2.7020 os        1 LDE     -0.611000
     19 CG1         3.8210    0.1730    3.1510 c3        1 LDE     -0.209000
     20 H1         -3.0850   -0.5310   -1.0990 hc        1 LDE      0.092000
     21 H1A        -2.6380    0.9170   -0.5940 hc        1 LDE      0.092000
     22 HN1        -1.8170   -1.8620   -1.9400 hn        1 LDE      0.160500
     23 HN1A       -0.5120   -1.5220   -2.5860 hn        1 LDE      0.160500
     24 H2         -0.5330    0.3930   -1.8360 h1        1 LDE      0.160000
     25 H4          1.4800   -1.4640    0.0140 hc        1 LDE      0.140000
     26 H4A         1.8270    0.0890   -0.1220 hc        1 LDE      0.140000
     27 H5          1.4460    0.1470    2.3290 hc        1 LDE      0.076000
     28 H7          3.5960    0.2980    1.1100 hc        1 LDE      0.084500
     29 H7A         3.8230   -1.1990    1.6190 hc        1 LDE      0.084500
     30 HG         -2.1060    0.6720   -3.2510 hc        1 LDE      0.148000
     31 HO31       -1.1560    1.1960    1.7570 ho        1 LDE      0.302000
     32 HD1        -3.8790   -0.8050   -3.3850 hc        1 LDE      0.057833
     33 HD1A       -4.8000    0.1650   -2.5070 hc        1 LDE      0.057833
     34 HD1B       -4.3830    0.5860   -3.9930 hc        1 LDE      0.057833
     35 HD2        -2.3220    2.7380   -2.1290 hc        1 LDE      0.057833
     36 HD2A       -3.3180    2.6760   -3.3810 hc        1 LDE      0.057833
     37 HD2B       -3.8780    2.4390   -1.9000 hc        1 LDE      0.057833
     38 HG1         3.5330   -0.4420    3.8550 hc        1 LDE      0.060500
     39 HG1A        3.4250    1.0540    3.3070 hc        1 LDE      0.060500
@<TRIPOS>BOND
     1    1    3 1   
     2    1   10 1   
     3    1   20 1   
     4    1   21 1   
     5    2    3 1   
     6    2   22 1   
     7    2   23 1   
     8    3    4 1   
     9    3   24 1   
    10    4    5 1   
    11    4   11 1   
    12    4   12 1   
    13    5    6 1   
    14    5   25 1   
    15    5   26 1   
    16    6    7 1   
    17    6    8 1   
    18    6   27 1   
    19    7   13 1   
    20    7   14 1   
    21    8   19 1   
    22    8   28 1   
    23    8   29 1   
    24    9   17 1   
    25    9   19 1   
    26   10   15 1   
    27   10   16 1   
    28   10   30 1   
    29   11   31 1   
    30   15   32 1   
    31   15   33 1   
    32   15   34 1   
    33   16   35 1   
    34   16   36 1   
    35   16   37 1   
    36   19   38 1   
    37   19   39 1   
@<TRIPOS>SUBSTRUCTURE
     1 LDE         1 TEMP              0 ****  ****    0 ROOT
