@<TRIPOS>MOLECULE
LDH
   29    28     1     0     0
SMALL
bcc


@<TRIPOS>ATOM
      1 N           2.5290    1.9030    0.1500 n3        1 LDH     -0.892800
      2 CA          2.4600    0.4650    0.3850 c3        1 LDH      0.018500
      3 CB          1.2170   -0.1900   -0.2170 c3        1 LDH     -0.063400
      4 CG         -0.0640    0.3000    0.4230 c3        1 LDH     -0.075400
      5 CD         -1.2690   -0.4180   -0.1460 c3        1 LDH     -0.085400
      6 CE         -2.5530    0.1350    0.4680 c3        1 LDH      0.158800
      7 NZ         -3.7600   -0.5010   -0.0290 n3        1 LDH     -0.826200
      8 CH         -4.9560    0.2780    0.2180 c3        1 LDH      0.164800
      9 C1         -6.1990   -0.2980   -0.4400 c3        1 LDH     -0.096100
     10 C           3.7160   -0.3290   -0.1090 c         1 LDH      0.887600
     11 O           4.6590    0.3220   -0.6440 o         1 LDH     -0.844800
     12 OXT         3.7250   -1.5780    0.0740 o         1 LDH     -0.844800
     13 HN1         3.4700    2.1930    0.3620 hn        1 LDH      0.329800
     14 HN2         2.4020    2.0690   -0.8340 hn        1 LDH      0.329800
     15 HA          2.4210    0.3300    1.5060 h1        1 LDH      0.040700
     16 HB1         1.1810   -0.0020   -1.3220 hc        1 LDH      0.046200
     17 HB2         1.3230   -1.2980   -0.0670 hc        1 LDH      0.046200
     18 HG1        -0.0160    0.1330    1.5320 hc        1 LDH      0.037200
     19 HG2        -0.1720    1.4050    0.2610 hc        1 LDH      0.037200
     20 HD1        -1.2900   -0.2890   -1.2600 hc        1 LDH      0.040700
     21 HD2        -1.1870   -1.5170    0.0610 hc        1 LDH      0.040700
     22 HE1        -2.5290   -0.0310    1.5820 h1        1 LDH      0.027200
     23 HE2        -2.5700    1.2540    0.3010 h1        1 LDH      0.027200
     24 HNZ        -3.6730   -0.7090   -1.0060 hn        1 LDH      0.352800
     25 HH1        -5.1090    0.3020    1.3350 h1        1 LDH      0.021700
     26 HH2        -4.8440    1.3530   -0.1190 h1        1 LDH      0.021700
     27 H11        -6.1020   -0.2980   -1.5520 hc        1 LDH      0.033367
     28 H12        -6.3820   -1.3470   -0.1020 hc        1 LDH      0.033367
     29 H13        -7.0810    0.3260   -0.1600 hc        1 LDH      0.033367
@<TRIPOS>BOND
     1    1    2 1   
     2    1   13 1   
     3    1   14 1   
     4    2    3 1   
     5    2   10 1   
     6    2   15 1   
     7    3    4 1   
     8    3   16 1   
     9    3   17 1   
    10    4    5 1   
    11    4   18 1   
    12    4   19 1   
    13    5    6 1   
    14    5   20 1   
    15    5   21 1   
    16    6    7 1   
    17    6   22 1   
    18    6   23 1   
    19    7    8 1   
    20    7   24 1   
    21    8    9 1   
    22    8   25 1   
    23    8   26 1   
    24    9   27 1   
    25    9   28 1   
    26    9   29 1   
    27   10   11 1   
    28   10   12 1   
@<TRIPOS>SUBSTRUCTURE
     1 LDH         1 TEMP              0 ****  ****    0 ROOT
