@<TRIPOS>MOLECULE
LDM
   58    57     1     0     0
SMALL
bcc


@<TRIPOS>ATOM
      1 N1          0.8500   -1.0240    1.5090 n4        1 LDM     -0.184600
      2 O1          0.9040   -1.9500    2.4030 o         1 LDM     -0.700000
      3 C1         -0.4690   -0.2580    1.5730 c3        1 LDM      0.073800
      4 C3         -2.1740   -1.3980    3.0980 c3        1 LDM      0.113800
      5 C4         -1.7190   -2.6390    5.2380 c         1 LDM      0.545100
      6 C5         -0.9080   -3.7030    5.9210 c3        1 LDM     -0.155400
      7 C7         -0.4840   -4.8990    8.0610 c3        1 LDM     -0.080400
      8 C8         -0.8330   -4.9920    9.5310 c3        1 LDM     -0.079400
      9 C10        -0.4030   -6.1980   11.6750 c3        1 LDM     -0.079400
     10 C11         0.3740   -7.3080   12.3500 c3        1 LDM     -0.079400
     11 C12         0.0250   -7.4050   13.8200 c3        1 LDM     -0.079400
     12 CM1         1.0050   -1.6020    0.1230 c3        1 LDM      0.086600
     13 CM2         1.9580   -0.0160    1.7080 c3        1 LDM      0.086600
     14 C2         -1.7160   -1.1220    1.6710 c3        1 LDM     -0.101400
     15 C9         -0.0540   -6.1020   10.2050 c3        1 LDM     -0.079400
     16 N2         -1.2440   -2.2770    3.8550 n4        1 LDM     -0.686800
     17 C14         0.4540   -8.6150   15.9660 c3        1 LDM     -0.079400
     18 C15         1.2250   -9.7180   16.6420 c3        1 LDM     -0.093100
     19 O2         -2.7000   -2.0440    5.6590 o         1 LDM     -0.421100
     20 C6         -1.2690   -3.7890    7.3930 c3        1 LDM     -0.081400
     21 C13         0.8020   -8.5150   14.4960 c3        1 LDM     -0.079400
     22 H1C1       -0.4110    0.4220    2.4680 hx        1 LDM      0.083200
     23 H1C2       -0.5320    0.3780    0.6460 hx        1 LDM      0.083200
     24 H3C1       -2.2810   -0.4340    3.6730 hx        1 LDM      0.106700
     25 H3C2       -3.1850   -1.9000    3.0750 hx        1 LDM      0.106700
     26 H5C1       -1.1180   -4.6870    5.4180 hc        1 LDM      0.102200
     27 H5C2        0.1900   -3.4870    5.8090 hc        1 LDM      0.102200
     28 H7C1       -0.7080   -5.8770    7.5590 hc        1 LDM      0.048200
     29 H7C2        0.6160   -4.7080    7.9470 hc        1 LDM      0.048200
     30 H8C1       -1.9330   -5.1810    9.6470 hc        1 LDM      0.047200
     31 H8C2       -0.6090   -4.0150   10.0350 hc        1 LDM      0.047200
     32 H101       -1.5030   -6.3860   11.7900 hc        1 LDM      0.042700
     33 H102       -0.1790   -5.2210   12.1800 hc        1 LDM      0.042700
     34 H111        0.1520   -8.2840   11.8450 hc        1 LDM      0.041200
     35 H112        1.4750   -7.1200   12.2370 hc        1 LDM      0.041200
     36 H121        0.2470   -6.4290   14.3260 hc        1 LDM      0.040700
     37 H122       -1.0750   -7.5940   13.9340 hc        1 LDM      0.040700
     38 HM11        1.9630   -2.1840    0.0960 hx        1 LDM      0.081533
     39 HM12        1.0260   -0.7760   -0.6300 hx        1 LDM      0.081533
     40 HM13        0.1550   -2.2990   -0.0820 hx        1 LDM      0.081533
     41 HM21        1.8950    0.3900    2.7480 hx        1 LDM      0.081533
     42 HM22        2.9370   -0.5480    1.5870 hx        1 LDM      0.081533
     43 HM23        1.8600    0.8050    0.9550 hx        1 LDM      0.081533
     44 H2C1       -2.5590   -0.5650    1.1740 hc        1 LDM      0.093200
     45 H2C2       -1.5820   -2.0880    1.1150 hc        1 LDM      0.093200
     46 H9C1       -0.2780   -7.0790    9.7010 hc        1 LDM      0.042700
     47 H9C2        1.0460   -5.9140   10.0910 hc        1 LDM      0.042700
     48 H2         -0.3130   -1.8010    3.9170 hn        1 LDM      0.483800
     49 H141       -0.6470   -8.8010   16.0770 hc        1 LDM      0.039700
     50 H142        0.6750   -7.6360   16.4690 hc        1 LDM      0.039700
     51 H151        0.9530   -9.7740   17.7240 hc        1 LDM      0.034700
     52 H152        0.9980  -10.7050   16.1710 hc        1 LDM      0.034700
     53 H153        2.3240   -9.5370   16.5640 hc        1 LDM      0.034700
     54 H6C1       -2.3700   -3.9780    7.5020 hc        1 LDM      0.068700
     55 H6C2       -1.0490   -2.8100    7.8950 hc        1 LDM      0.068700
     56 H131        1.9030   -8.3270   14.3830 hc        1 LDM      0.040700
     57 H132        0.5800   -9.4920   13.9900 hc        1 LDM      0.040700
     58 H22        -1.0630   -3.1310    3.3120 hn        1 LDM      0.483800
@<TRIPOS>BOND
     1    1    2 1   
     2    1    3 1   
     3    1   12 1   
     4    1   13 1   
     5    3   14 1   
     6    3   22 1   
     7    3   23 1   
     8    4   14 1   
     9    4   16 1   
    10    4   24 1   
    11    4   25 1   
    12    5    6 1   
    13    5   16 1   
    14    5   19 2   
    15    6   20 1   
    16    6   26 1   
    17    6   27 1   
    18    7    8 1   
    19    7   20 1   
    20    7   28 1   
    21    7   29 1   
    22    8   15 1   
    23    8   30 1   
    24    8   31 1   
    25    9   10 1   
    26    9   15 1   
    27    9   32 1   
    28    9   33 1   
    29   10   11 1   
    30   10   34 1   
    31   10   35 1   
    32   11   21 1   
    33   11   36 1   
    34   11   37 1   
    35   12   38 1   
    36   12   39 1   
    37   12   40 1   
    38   13   41 1   
    39   13   42 1   
    40   13   43 1   
    41   14   44 1   
    42   14   45 1   
    43   15   46 1   
    44   15   47 1   
    45   16   48 1   
    46   16   58 1   
    47   17   18 1   
    48   17   21 1   
    49   17   49 1   
    50   17   50 1   
    51   18   51 1   
    52   18   52 1   
    53   18   53 1   
    54   20   54 1   
    55   20   55 1   
    56   21   56 1   
    57   21   57 1   
@<TRIPOS>SUBSTRUCTURE
     1 LDM         1 TEMP              0 ****  ****    0 ROOT
