@<TRIPOS>MOLECULE
LDM
   58    57     1     0     0
SMALL
bcc


@<TRIPOS>ATOM
      1 N1          0.7800   -1.0730    1.4780 n4        1 LDM     -0.184600
      2 O1          0.8350   -1.9970    2.3740 o         1 LDM     -0.700000
      3 C1         -0.5270   -0.2870    1.5610 c3        1 LDM      0.073800
      4 C3         -2.2240   -1.4010    3.1150 c3        1 LDM      0.113800
      5 C4         -1.7520   -2.6420    5.2520 c         1 LDM      0.545100
      6 C5         -0.9440   -3.7130    5.9260 c3        1 LDM     -0.155400
      7 C7         -0.4950   -4.9010    8.0650 c3        1 LDM     -0.080400
      8 C8         -0.8130   -4.9770    9.5440 c3        1 LDM     -0.079400
      9 C10        -0.3530   -6.1710   11.6880 c3        1 LDM     -0.079400
     10 C11         0.4220   -7.2870   12.3550 c3        1 LDM     -0.079400
     11 C12         0.1050   -7.3670   13.8330 c3        1 LDM     -0.079400
     12 CM1         0.9050   -1.6560    0.0920 c3        1 LDM      0.086600
     13 CM2         1.9050   -0.0800    1.6570 c3        1 LDM      0.086600
     14 C2         -1.7840   -1.1340    1.6810 c3        1 LDM     -0.101400
     15 C9         -0.0360   -6.0930   10.2100 c3        1 LDM     -0.079400
     16 N2         -1.2940   -2.2900    3.8610 ny        1 LDM     -0.686800
     17 C14         0.5640   -8.5640   15.9790 c3        1 LDM     -0.079400
     18 C15         1.3340   -9.6730   16.6480 c3        1 LDM     -0.093100
     19 O2         -2.7190   -2.0330    5.6860 o         1 LDM     -0.421100
     20 C6         -1.2760   -3.7830    7.4050 c3        1 LDM     -0.081400
     21 C13         0.8810   -8.4820   14.5010 c3        1 LDM     -0.079400
     22 H1C1       -0.5960    0.3470    0.6340 hx        1 LDM      0.083200
     23 H1C2       -0.4460    0.3940    2.4530 hx        1 LDM      0.083200
     24 H3C1       -2.3080   -0.4330    3.6900 hx        1 LDM      0.106700
     25 H3C2       -3.2420   -1.8880    3.1100 hx        1 LDM      0.106700
     26 H5C1       -1.1810   -4.6980    5.4340 hc        1 LDM      0.102700
     27 H5C2        0.1550   -3.5170    5.7900 hc        1 LDM      0.102700
     28 H7C1        0.6050   -4.7290    7.9260 hc        1 LDM      0.048200
     29 H7C2       -0.7450   -5.8790    7.5770 hc        1 LDM      0.048200
     30 H8C1       -0.5630   -3.9990   10.0350 hc        1 LDM      0.047200
     31 H8C2       -1.9130   -5.1470    9.6850 hc        1 LDM      0.047200
     32 H101       -0.1040   -5.1940   12.1790 hc        1 LDM      0.042700
     33 H102       -1.4530   -6.3410   11.8290 hc        1 LDM      0.042700
     34 H111        0.1740   -8.2640   11.8640 hc        1 LDM      0.041200
     35 H112        1.5220   -7.1170   12.2160 hc        1 LDM      0.041200
     36 H121       -0.9950   -7.5370   13.9740 hc        1 LDM      0.040700
     37 H122        0.3540   -6.3890   14.3250 hc        1 LDM      0.040700
     38 HM11        0.9260   -0.8320   -0.6640 hx        1 LDM      0.081533
     39 HM12        0.0430   -2.3420   -0.0980 hx        1 LDM      0.081533
     40 HM13        1.8550   -2.2510    0.0510 hx        1 LDM      0.081533
     41 HM21        2.8740   -0.6260    1.5230 hx        1 LDM      0.081533
     42 HM22        1.8070    0.7410    0.9040 hx        1 LDM      0.081533
     43 HM23        1.8630    0.3300    2.6970 hx        1 LDM      0.081533
     44 H2C1       -1.6720   -2.1040    1.1250 hc        1 LDM      0.093200
     45 H2C2       -2.6270   -0.5670    1.1950 hc        1 LDM      0.093200
     46 H9C1        1.0640   -5.9230   10.0700 hc        1 LDM      0.042700
     47 H9C2       -0.2860   -7.0710    9.7200 hc        1 LDM      0.042700
     48 H2         -0.3560   -1.8270    3.9060 hn        1 LDM      0.483800
     49 H141       -0.5360   -8.7330   16.1170 hc        1 LDM      0.039700
     50 H142        0.8110   -7.5850   16.4690 hc        1 LDM      0.039700
     51 H151        1.0860   -9.7150   17.7360 hc        1 LDM      0.034700
     52 H152        1.0830  -10.6600   16.1910 hc        1 LDM      0.034700
     53 H153        2.4340   -9.5090   16.5440 hc        1 LDM      0.034700
     54 H6C1       -2.3770   -3.9540    7.5390 hc        1 LDM      0.068700
     55 H6C2       -1.0300   -2.8040    7.8950 hc        1 LDM      0.068700
     56 H131        1.9810   -8.3120   14.3620 hc        1 LDM      0.040700
     57 H132        0.6330   -9.4600   14.0100 hc        1 LDM      0.040700
     58 H22        -1.1340   -3.1490    3.3170 hn        1 LDM      0.483800
@<TRIPOS>BOND
     1    1    2 1   
     2    1    3 1   
     3    1   12 1   
     4    1   13 1   
     5    3   14 1   
     6    3   22 1   
     7    3   23 1   
     8    4   14 1   
     9    4   16 1   
    10    4   24 1   
    11    4   25 1   
    12    5    6 1   
    13    5   16 1   
    14    5   19 2   
    15    6   20 1   
    16    6   26 1   
    17    6   27 1   
    18    7    8 1   
    19    7   20 1   
    20    7   28 1   
    21    7   29 1   
    22    8   15 1   
    23    8   30 1   
    24    8   31 1   
    25    9   10 1   
    26    9   15 1   
    27    9   32 1   
    28    9   33 1   
    29   10   11 1   
    30   10   34 1   
    31   10   35 1   
    32   11   21 1   
    33   11   36 1   
    34   11   37 1   
    35   12   38 1   
    36   12   39 1   
    37   12   40 1   
    38   13   41 1   
    39   13   42 1   
    40   13   43 1   
    41   14   44 1   
    42   14   45 1   
    43   15   46 1   
    44   15   47 1   
    45   16   48 1   
    46   16   58 1   
    47   17   18 1   
    48   17   21 1   
    49   17   49 1   
    50   17   50 1   
    51   18   51 1   
    52   18   52 1   
    53   18   53 1   
    54   20   54 1   
    55   20   55 1   
    56   21   56 1   
    57   21   57 1   
@<TRIPOS>SUBSTRUCTURE
     1 LDM         1 TEMP              0 ****  ****    0 ROOT
