@<TRIPOS>MOLECULE
LDM
   58    57     1     0     0
SMALL
bcc


@<TRIPOS>ATOM
      1 N1          0.8200   -1.0710    1.4890 n4        1 LDM     -0.184600
      2 O1          0.8580   -2.0020    2.3800 o         1 LDM     -0.700000
      3 C1         -0.4700   -0.2600    1.5790 c3        1 LDM      0.073800
      4 C3         -2.1860   -1.3470    3.1310 c3        1 LDM      0.113800
      5 C4         -1.7350   -2.6090    5.2610 c         1 LDM      0.545100
      6 C5         -0.9480   -3.7010    5.9270 c3        1 LDM     -0.155400
      7 C7         -0.5120   -4.9030    8.0610 c3        1 LDM     -0.080400
      8 C8         -0.8170   -4.9700    9.5430 c3        1 LDM     -0.079400
      9 C10        -0.3690   -6.1770   11.6820 c3        1 LDM     -0.079400
     10 C11         0.3810   -7.3150   12.3420 c3        1 LDM     -0.079400
     11 C12         0.0790   -7.3840   13.8230 c3        1 LDM     -0.079400
     12 CM1         0.9300   -1.6490    0.0990 c3        1 LDM      0.086600
     13 CM2         1.9650   -0.1020    1.6710 c3        1 LDM      0.086600
     14 C2         -1.7450   -1.0820    1.6980 c3        1 LDM     -0.101400
     15 C9         -0.0660   -6.1080   10.2010 c3        1 LDM     -0.079400
     16 N2         -1.2730   -2.2590    3.8700 n4        1 LDM     -0.686800
     17 C14         0.5270   -8.5920   15.9650 c3        1 LDM     -0.079400
     18 C15         1.2710   -9.7240   16.6260 c3        1 LDM     -0.093100
     19 O2         -2.6860   -1.9810    5.7000 o         1 LDM     -0.421100
     20 C6         -1.2680   -3.7630    7.4090 c3        1 LDM     -0.081400
     21 C13         0.8280   -8.5220   14.4830 c3        1 LDM     -0.079400
     22 H1C1       -0.5290    0.3800    0.6550 hx        1 LDM      0.083200
     23 H1C2       -0.3740    0.4140    2.4750 hx        1 LDM      0.083200
     24 H3C1       -2.2500   -0.3820    3.7110 hx        1 LDM      0.106700
     25 H3C2       -3.2140   -1.8140    3.1260 hx        1 LDM      0.106700
     26 H5C1       -1.2170   -4.6780    5.4370 hc        1 LDM      0.102700
     27 H5C2        0.1540   -3.5350    5.7790 hc        1 LDM      0.102700
     28 H7C1        0.5910   -4.7630    7.9100 hc        1 LDM      0.048200
     29 H7C2       -0.7970   -5.8730    7.5750 hc        1 LDM      0.048200
     30 H8C1       -0.5320   -4.0000   10.0310 hc        1 LDM      0.047200
     31 H8C2       -1.9200   -5.1080    9.6960 hc        1 LDM      0.047200
     32 H101       -0.0850   -5.2070   12.1700 hc        1 LDM      0.042700
     33 H102       -1.4720   -6.3140   11.8360 hc        1 LDM      0.042700
     34 H111        0.0970   -8.2850   11.8540 hc        1 LDM      0.041200
     35 H112        1.4840   -7.1780   12.1880 hc        1 LDM      0.041200
     36 H121       -1.0240   -7.5210   13.9770 hc        1 LDM      0.040700
     37 H122        0.3630   -6.4140   14.3110 hc        1 LDM      0.040700
     38 HM11        0.9660   -0.8210   -0.6520 hx        1 LDM      0.081533
     39 HM12        0.0530   -2.3160   -0.0930 hx        1 LDM      0.081533
     40 HM13        1.8670   -2.2630    0.0530 hx        1 LDM      0.081533
     41 HM21        2.9230   -0.6670    1.5310 hx        1 LDM      0.081533
     42 HM22        1.8820    0.7250    0.9230 hx        1 LDM      0.081533
     43 HM23        1.9340    0.3020    2.7140 hx        1 LDM      0.081533
     44 H2C1       -1.6530   -2.0510    1.1360 hc        1 LDM      0.093200
     45 H2C2       -2.5770   -0.4950    1.2170 hc        1 LDM      0.093200
     46 H9C1        1.0370   -5.9710   10.0480 hc        1 LDM      0.042700
     47 H9C2       -0.3510   -7.0780    9.7140 hc        1 LDM      0.042700
     48 H2         -0.3260   -1.8160    3.9150 hn        1 LDM      0.483800
     49 H141       -0.5770   -8.7270   16.1170 hc        1 LDM      0.039700
     50 H142        0.8100   -7.6210   16.4510 hc        1 LDM      0.039700
     51 H151        1.0350   -9.7570   17.7170 hc        1 LDM      0.034700
     52 H152        0.9830  -10.7030   16.1730 hc        1 LDM      0.034700
     53 H153        2.3740   -9.5940   16.5080 hc        1 LDM      0.034700
     54 H6C1       -2.3720   -3.9020    7.5530 hc        1 LDM      0.068200
     55 H6C2       -0.9890   -2.7920    7.8970 hc        1 LDM      0.068200
     56 H131        1.9310   -8.3860   14.3300 hc        1 LDM      0.040700
     57 H132        0.5440   -9.4920   13.9960 hc        1 LDM      0.040700
     58 H22        -1.1320   -3.1190    3.3220 hn        1 LDM      0.483800
@<TRIPOS>BOND
     1    1    2 1   
     2    1    3 1   
     3    1   12 1   
     4    1   13 1   
     5    3   14 1   
     6    3   22 1   
     7    3   23 1   
     8    4   14 1   
     9    4   16 1   
    10    4   24 1   
    11    4   25 1   
    12    5    6 1   
    13    5   16 1   
    14    5   19 2   
    15    6   20 1   
    16    6   26 1   
    17    6   27 1   
    18    7    8 1   
    19    7   20 1   
    20    7   28 1   
    21    7   29 1   
    22    8   15 1   
    23    8   30 1   
    24    8   31 1   
    25    9   10 1   
    26    9   15 1   
    27    9   32 1   
    28    9   33 1   
    29   10   11 1   
    30   10   34 1   
    31   10   35 1   
    32   11   21 1   
    33   11   36 1   
    34   11   37 1   
    35   12   38 1   
    36   12   39 1   
    37   12   40 1   
    38   13   41 1   
    39   13   42 1   
    40   13   43 1   
    41   14   44 1   
    42   14   45 1   
    43   15   46 1   
    44   15   47 1   
    45   16   48 1   
    46   16   58 1   
    47   17   18 1   
    48   17   21 1   
    49   17   49 1   
    50   17   50 1   
    51   18   51 1   
    52   18   52 1   
    53   18   53 1   
    54   20   54 1   
    55   20   55 1   
    56   21   56 1   
    57   21   57 1   
@<TRIPOS>SUBSTRUCTURE
     1 LDM         1 TEMP              0 ****  ****    0 ROOT
