@<TRIPOS>MOLECULE
LDM
   57    56     1     0     0
SMALL
bcc


@<TRIPOS>ATOM
      1 N1         -7.5750    0.0250   -0.8830 n4        1 LDM     -0.147600
      2 O1         -7.2220   -0.2050   -2.0860 o         1 LDM     -0.648000
      3 C1         -6.4720    0.7290   -0.0910 c3        1 LDM      0.094800
      4 C3         -4.0470    0.8970    0.4140 c3        1 LDM      0.089000
      5 C4         -2.1980   -0.1830    1.6460 c         1 LDM      0.654100
      6 C5         -0.8750   -0.9200    1.5560 c3        1 LDM     -0.154400
      7 C7          1.5640   -0.7600    1.0730 c3        1 LDM     -0.080400
      8 C8          2.6750    0.1050    0.5150 c3        1 LDM     -0.079400
      9 C10         5.1190    0.2560    0.0200 c3        1 LDM     -0.079400
     10 C11         6.4530   -0.4570    0.0820 c3        1 LDM     -0.079400
     11 C12         7.5640    0.4060   -0.4760 c3        1 LDM     -0.079400
     12 CM1        -7.9320   -1.2470   -0.1510 c3        1 LDM      0.072600
     13 CM2        -8.7870    0.9290   -0.8210 c3        1 LDM      0.072600
     14 C2         -5.1530   -0.0250   -0.1080 c3        1 LDM     -0.117400
     15 C9          4.0080   -0.6080    0.5780 c3        1 LDM     -0.079400
     16 N2         -2.7480    0.2900    0.4680 n         1 LDM     -0.566900
     17 C14        10.0100    0.5560   -0.9730 c3        1 LDM     -0.080400
     18 C15        11.3400   -0.1490   -0.9130 c3        1 LDM     -0.092100
     19 O2         -2.7560    0.0100    2.7450 o         1 LDM     -0.611100
     20 C6          0.2320   -0.0430    1.0130 c3        1 LDM     -0.076400
     21 C13         8.8980   -0.3060   -0.4150 c3        1 LDM     -0.079400
     22 H1C1       -6.8290    0.8710    0.9640 hx        1 LDM      0.061700
     23 H1C2       -6.3300    1.7340   -0.5760 hx        1 LDM      0.061700
     24 H3C1       -4.3210    1.2540    1.4480 h1        1 LDM      0.061700
     25 H3C2       -3.9780    1.7970   -0.2650 h1        1 LDM      0.061700
     26 H5C1       -0.9980   -1.8320    0.9140 hc        1 LDM      0.070700
     27 H5C2       -0.6130   -1.2660    2.5930 hc        1 LDM      0.070700
     28 H7C1        1.5040   -1.7170    0.4900 hc        1 LDM      0.042200
     29 H7C2        1.7980   -1.0330    2.1360 hc        1 LDM      0.042200
     30 H8C1        2.7330    1.0630    1.0970 hc        1 LDM      0.041200
     31 H8C2        2.4430    0.3770   -0.5480 hc        1 LDM      0.041200
     32 H101        5.1780    1.2140    0.6000 hc        1 LDM      0.040200
     33 H102        4.8870    0.5270   -1.0440 hc        1 LDM      0.040200
     34 H111        6.3940   -1.4160   -0.4980 hc        1 LDM      0.039700
     35 H112        6.6860   -0.7280    1.1450 hc        1 LDM      0.039700
     36 H121        7.6220    1.3650    0.1040 hc        1 LDM      0.039700
     37 H122        7.3310    0.6780   -1.5400 hc        1 LDM      0.039700
     38 HM11       -8.1950   -1.0210    0.9110 hx        1 LDM      0.065033
     39 HM12       -8.7970   -1.7240   -0.6770 hx        1 LDM      0.065033
     40 HM13       -7.0540   -1.9390   -0.2000 hx        1 LDM      0.065033
     41 HM21       -8.5410    1.8850   -1.3460 hx        1 LDM      0.065033
     42 HM22       -9.6250    0.4240   -1.3630 hx        1 LDM      0.065033
     43 HM23       -9.0680    1.1250    0.2420 hx        1 LDM      0.065033
     44 H2C1       -4.9280   -0.3580   -1.1570 hc        1 LDM      0.069700
     45 H2C2       -5.2240   -0.9390    0.5360 hc        1 LDM      0.069700
     46 H9C1        3.9500   -1.5670   -0.0020 hc        1 LDM      0.040200
     47 H9C2        4.2410   -0.8790    1.6410 hc        1 LDM      0.040200
     48 H2         -2.3490    0.0000   -0.3920 hn        1 LDM      0.308500
     49 H141       10.0660    1.5150   -0.3920 hc        1 LDM      0.038700
     50 H142        9.7740    0.8280   -2.0350 hc        1 LDM      0.038700
     51 H151       12.1450    0.5030   -1.3290 hc        1 LDM      0.032700
     52 H152       11.6030   -0.4060    0.1410 hc        1 LDM      0.032700
     53 H153       11.3110   -1.0950   -1.5070 hc        1 LDM      0.032700
     54 H6C1        0.2870    0.9050    1.6100 hc        1 LDM      0.048200
     55 H6C2        0.0120    0.2450   -0.0490 hc        1 LDM      0.048200
     56 H131        8.8390   -1.2650   -0.9950 hc        1 LDM      0.039700
     57 H132        9.1310   -0.5780    0.6490 hc        1 LDM      0.039700
@<TRIPOS>BOND
     1    1    2 1   
     2    1    3 1   
     3    1   12 1   
     4    1   13 1   
     5    3   14 1   
     6    3   22 1   
     7    3   23 1   
     8    4   14 1   
     9    4   16 1   
    10    4   24 1   
    11    4   25 1   
    12    5    6 1   
    13    5   16 1   
    14    5   19 2   
    15    6   20 1   
    16    6   26 1   
    17    6   27 1   
    18    7    8 1   
    19    7   20 1   
    20    7   28 1   
    21    7   29 1   
    22    8   15 1   
    23    8   30 1   
    24    8   31 1   
    25    9   10 1   
    26    9   15 1   
    27    9   32 1   
    28    9   33 1   
    29   10   11 1   
    30   10   34 1   
    31   10   35 1   
    32   11   21 1   
    33   11   36 1   
    34   11   37 1   
    35   12   38 1   
    36   12   39 1   
    37   12   40 1   
    38   13   41 1   
    39   13   42 1   
    40   13   43 1   
    41   14   44 1   
    42   14   45 1   
    43   15   46 1   
    44   15   47 1   
    45   16   48 1   
    46   17   18 1   
    47   17   21 1   
    48   17   49 1   
    49   17   50 1   
    50   18   51 1   
    51   18   52 1   
    52   18   53 1   
    53   20   54 1   
    54   20   55 1   
    55   21   56 1   
    56   21   57 1   
@<TRIPOS>SUBSTRUCTURE
     1 LDM         1 TEMP              0 ****  ****    0 ROOT
