@<TRIPOS>MOLECULE
LDM
   57    55     1     0     0
SMALL
bcc


@<TRIPOS>ATOM
      1 N1         -1.9850    1.0130   -8.6650 n4        1 LDM      0.327000
      2 O1         -0.9960    0.0620   -8.7260 o         1 LDM     -0.648000
      3 C1         -2.4680    1.1210   -7.3020 c3        1 LDM     -0.142000
      4 C3         -1.8770    0.7810   -4.8810 c3        1 LDM     -0.027000
      5 C4         -1.0860    0.3650   -2.5500 c1        1 LDM      0.298000
      6 C5         -0.0210   -0.1710   -1.5840 c2        1 LDM     -0.183000
      7 C7          0.6160   -0.4250    0.8360 c3        1 LDM     -0.159000
      8 C8          0.1950   -0.1180    2.2870 c3        1 LDM     -0.158000
      9 C10         0.8370   -0.3620    4.7080 c3        1 LDM     -0.158000
     10 C11         1.8910   -0.9260    5.6790 c3        1 LDM     -0.158000
     11 C12         1.4770   -0.6090    7.1280 c3        1 LDM     -0.158000
     12 CM1        -3.0750    0.6300   -9.5330 c3        1 LDM     -0.203500
     13 CM2        -1.4540    2.2890   -9.0920 c3        1 LDM     -0.203500
     14 C2         -1.3730    0.6430   -6.3290 c3        1 LDM     -0.196000
     15 C9          1.2580   -0.6690    3.2570 c3        1 LDM     -0.158000
     16 N2         -0.8580    0.3190   -3.9710 n3        1 LDM     -0.376000
     17 C14         2.1080   -0.8710    9.5440 c3        1 LDM     -0.159000
     18 C15         3.1240   -1.4860   10.5120 c3        1 LDM     -0.210000
     19 O2         -2.1370    0.8050   -2.1160 o         1 LDM     -0.372000
     20 C6         -0.4490    0.1220   -0.1340 c3        1 LDM     -0.155000
     21 C13         2.5110   -1.2040    8.0990 c3        1 LDM     -0.158000
     22 H1C1       -3.2700    0.5630   -7.1930 hx        1 LDM      0.101000
     23 H1C2       -2.6920    2.0590   -7.1070 hx        1 LDM      0.101000
     24 H3C1       -2.6900    0.2410   -4.7640 h1        1 LDM      0.101000
     25 H3C2       -2.0800    1.7250   -4.6930 h1        1 LDM      0.101000
     26 H5C1        0.0750   -1.1410   -1.7070 ha        1 LDM      0.110000
     27 H5C2        0.8390    0.2700   -1.7670 ha        1 LDM      0.110000
     28 H7C1        1.4810    0.0030    0.6480 hc        1 LDM      0.081500
     29 H7C2        0.6980   -1.3980    0.7180 hc        1 LDM      0.081500
     30 H8C1       -0.6720   -0.5430    2.4730 hc        1 LDM      0.080500
     31 H8C2        0.1150    0.8550    2.4060 hc        1 LDM      0.080500
     32 H101        0.7660    0.6110    4.8300 hc        1 LDM      0.079500
     33 H102       -0.0340   -0.7800    4.8910 hc        1 LDM      0.079500
     34 H111        1.9570   -1.9000    5.5620 hc        1 LDM      0.079000
     35 H112        2.7640   -0.5140    5.4900 hc        1 LDM      0.079000
     36 H121        0.5940   -1.0020    7.3090 hc        1 LDM      0.079000
     37 H122        1.4340    0.3650    7.2510 hc        1 LDM      0.079000
     38 HM11       -2.7860    0.6960  -10.4710 hx        1 LDM      0.104333
     39 HM12       -3.3410   -0.2970   -9.3360 hx        1 LDM      0.104333
     40 HM13       -3.8410    1.2290   -9.3820 hx        1 LDM      0.104333
     41 HM21       -2.4110    2.4520   -9.2380 hx        1 LDM      0.104333
     42 HM22       -0.8180    1.6870   -9.5400 hx        1 LDM      0.104333
     43 HM23       -1.4150    2.7190   -9.9790 hx        1 LDM      0.104333
     44 H2C1       -1.1590   -0.2990   -6.5130 hc        1 LDM      0.109000
     45 H2C2       -0.5650    1.1910   -6.4490 hc        1 LDM      0.109000
     46 H9C1        2.1240   -0.2430    3.0710 hc        1 LDM      0.079500
     47 H9C2        1.3380   -1.6420    3.1380 hc        1 LDM      0.079500
     48 H2         -0.0660   -0.0100   -4.2970 hn        1 LDM      0.222000
     49 H141        2.0910    0.1040    9.6630 hc        1 LDM      0.078000
     50 H142        1.2150   -1.2400    9.7280 hc        1 LDM      0.078000
     51 H151        2.8560   -1.2880   11.4380 hc        1 LDM      0.072000
     52 H152        4.0130   -1.1050   10.3400 hc        1 LDM      0.072000
     53 H153        3.1530   -2.4590   10.3820 hc        1 LDM      0.072000
     54 H6C1       -0.5380    1.0930   -0.0090 hc        1 LDM      0.087500
     55 H6C2       -1.3120   -0.3130    0.0470 hc        1 LDM      0.087500
     56 H131        2.5450   -2.1800    7.9850 hc        1 LDM      0.079000
     57 H132        3.3970   -0.8210    7.9100 hc        1 LDM      0.079000
@<TRIPOS>BOND
     1    1    2 1   
     2    1    3 1   
     3    1   12 1   
     4    1   13 1   
     5    3   14 1   
     6    3   22 1   
     7    3   23 1   
     8    4   14 1   
     9    4   16 1   
    10    4   24 1   
    11    4   25 1   
    12    5   16 1   
    13    5   19 1   
    14    6   20 1   
    15    6   26 1   
    16    6   27 1   
    17    7    8 1   
    18    7   20 1   
    19    7   28 1   
    20    7   29 1   
    21    8   15 1   
    22    8   30 1   
    23    8   31 1   
    24    9   10 1   
    25    9   15 1   
    26    9   32 1   
    27    9   33 1   
    28   10   11 1   
    29   10   34 1   
    30   10   35 1   
    31   11   21 1   
    32   11   36 1   
    33   11   37 1   
    34   12   38 1   
    35   12   39 1   
    36   12   40 1   
    37   13   41 1   
    38   13   42 1   
    39   13   43 1   
    40   14   44 1   
    41   14   45 1   
    42   15   46 1   
    43   15   47 1   
    44   16   48 1   
    45   17   18 1   
    46   17   21 1   
    47   17   49 1   
    48   17   50 1   
    49   18   51 1   
    50   18   52 1   
    51   18   53 1   
    52   20   54 1   
    53   20   55 1   
    54   21   56 1   
    55   21   57 1   
@<TRIPOS>SUBSTRUCTURE
     1 LDM         1 TEMP              0 ****  ****    0 ROOT
