@<TRIPOS>MOLECULE
LDN
   53    58     1     0     0
SMALL
bcc


@<TRIPOS>ATOM
      1 CAA        -0.2160   -0.3420    0.0540 ca        1 LDN     -0.123000
      2 CAB         1.1960   -0.2670    0.0080 ca        1 LDN     -0.133000
      3 CAC        -0.1600    0.1380    4.7770 ca        1 LDN      0.410200
      4 CAD         1.2640    0.2360    4.8280 ca        1 LDN     -0.245300
      5 CAE         8.5850    3.9480    2.7160 ca        1 LDN     -0.089000
      6 CAF         7.4540    4.2670    0.6150 ca        1 LDN     -0.089000
      7 CAG         9.6160    4.7790    2.2950 ca        1 LDN     -0.173000
      8 CAH         8.4800    5.0920    0.1790 ca        1 LDN     -0.173000
      9 CAI        -0.8840   -0.2550    1.2490 ca        1 LDN     -0.169300
     10 CAJ         1.9180   -0.0980    1.1630 ca        1 LDN     -0.097000
     11 CAK         5.0370    3.1270    2.0020 cc        1 LDN      0.437200
     12 CAL         4.3230   -0.6230    4.3580 cc        1 LDN      0.394500
     13 CAM         6.6680    1.6780    3.0840 cd        1 LDN     -0.003300
     14 CAN        11.4990    8.0920   -0.8010 c3        1 LDN      0.158300
     15 CAO        13.0430    6.8860    0.6120 c3        1 LDN      0.158300
     16 CAP        10.3090    7.4200   -0.0840 c3        1 LDN      0.187800
     17 CAQ        11.8610    6.2080    1.3370 c3        1 LDN      0.187800
     18 NAR        -0.8570   -0.0120    3.6660 nb        1 LDN     -0.658000
     19 NAS         3.9990    2.3990    2.3630 nd        1 LDN     -0.619000
     20 NAT         5.6210   -0.2370    4.2260 nd        1 LDN     -0.557100
     21 NAU        12.6860    8.1620    0.0260 n7        1 LDN     -0.820200
     22 CAV         7.4890    3.6800    1.8880 ca        1 LDN     -0.073000
     23 CAW         6.4100    2.8140    2.3340 cc        1 LDN     -0.188300
     24 CAX         9.5940    5.3700    1.0100 ca        1 LDN      0.157600
     25 CAY         1.9810    0.1770    3.6500 ca        1 LDN      0.051200
     26 CAZ         3.4200    0.2730    3.6790 cc        1 LDN     -0.223800
     27 CBA        -0.1600   -0.0830    2.4740 ca        1 LDN      0.392600
     28 CBB         1.2670    0.0040    2.4190 ca        1 LDN     -0.127300
     29 CBC         4.2580    1.2690    3.1090 cd        1 LDN      0.365500
     30 NBD        10.6680    6.1400    0.5100 nh        1 LDN     -0.640000
     31 NBE         5.6080    0.8850    3.4920 na        1 LDN      0.045200
     32 HAA        -0.7740   -0.4730   -0.8850 ha        1 LDN      0.133000
     33 HAB         1.7040   -0.3440   -0.9640 ha        1 LDN      0.132000
     34 HAC        -0.7410    0.1900    5.7160 h4        1 LDN      0.020100
     35 HAD         1.7620    0.3670    5.7970 ha        1 LDN      0.145000
     36 HAF         6.6060    4.0600   -0.0580 ha        1 LDN      0.134000
     37 HAG        10.4480    4.9710    2.9890 ha        1 LDN      0.139000
     38 HAH         8.4230    5.5130   -0.8370 ha        1 LDN      0.139000
     39 HAI        -1.9830   -0.3150    1.2860 ha        1 LDN      0.148000
     40 HAJ         3.0170   -0.0360    1.1350 ha        1 LDN      0.140000
     41 HAK         4.8200    4.0380    1.4120 h4        1 LDN      0.039100
     42 HAL         4.0540   -1.5220    4.9180 h4        1 LDN      0.060800
     43 HAM         7.6850    1.3610    3.3770 h4        1 LDN      0.185000
     44 HAN        11.1950    9.1460   -1.0540 h1        1 LDN      0.038450
     45 HANA       11.6850    7.5420   -1.7710 h1        1 LDN      0.038450
     46 HAO        13.4510    6.1630   -0.1530 h1        1 LDN      0.038450
     47 HAOA       13.8490    7.0740    1.3750 h1        1 LDN      0.038450
     48 HAP         9.9120    8.1290    0.6990 h1        1 LDN      0.045950
     49 HAPA        9.5010    7.2560   -0.8490 h1        1 LDN      0.045950
     50 HAQ        12.1750    5.1570    1.5900 h1        1 LDN      0.045950
     51 HAQA       11.6640    6.7630    2.3000 h1        1 LDN      0.045950
     52 HNAU       13.4560    8.5270   -0.5030 hn        1 LDN      0.367800
     53 HAE         8.6280    3.5080    3.7250 ha        1 LDN      0.134000
@<TRIPOS>BOND
     1    1    2 ar  
     2    1    9 ar  
     3    1   32 1   
     4    2   10 ar  
     5    2   33 1   
     6    3    4 ar  
     7    3   18 ar  
     8    3   34 1   
     9    4   25 ar  
    10    4   35 1   
    11    5    7 ar  
    12    5   22 ar  
    13    5   53 1   
    14    6    8 ar  
    15    6   22 ar  
    16    6   36 1   
    17    7   24 ar  
    18    7   37 1   
    19    8   24 ar  
    20    8   38 1   
    21    9   27 ar  
    22    9   39 1   
    23   10   28 ar  
    24   10   40 1   
    25   11   19 2   
    26   11   23 1   
    27   11   41 1   
    28   12   20 2   
    29   12   26 1   
    30   12   42 1   
    31   13   23 2   
    32   13   31 1   
    33   13   43 1   
    34   14   16 1   
    35   14   21 1   
    36   14   44 1   
    37   14   45 1   
    38   15   17 1   
    39   15   21 1   
    40   15   46 1   
    41   15   47 1   
    42   16   30 1   
    43   16   48 1   
    44   16   49 1   
    45   17   30 1   
    46   17   50 1   
    47   17   51 1   
    48   18   27 ar  
    49   19   29 1   
    50   20   31 1   
    51   21   52 1   
    52   22   23 1   
    53   24   30 1   
    54   25   26 1   
    55   25   28 ar  
    56   26   29 2   
    57   27   28 ar  
    58   29   31 1   
@<TRIPOS>SUBSTRUCTURE
     1 LDN         1 TEMP              0 ****  ****    0 ROOT
