@<TRIPOS>MOLECULE
LDN
   53    58     1     0     0
SMALL
bcc


@<TRIPOS>ATOM
      1 CAA        -0.2110   -0.3490    0.0520 ca        1 LDN     -0.123000
      2 CAB         1.2000   -0.2730    0.0070 ca        1 LDN     -0.133000
      3 CAC        -0.1620    0.1400    4.7740 ca        1 LDN      0.410200
      4 CAD         1.2610    0.2400    4.8270 ca        1 LDN     -0.245300
      5 CAE         8.5830    3.9520    2.7180 ca        1 LDN     -0.089000
      6 CAF         7.4550    4.2650    0.6140 ca        1 LDN     -0.089000
      7 CAG         9.6140    4.7830    2.2960 ca        1 LDN     -0.173000
      8 CAH         8.4810    5.0900    0.1780 ca        1 LDN     -0.173000
      9 CAI        -0.8810   -0.2600    1.2460 ca        1 LDN     -0.169300
     10 CAJ         1.9210   -0.1020    1.1640 ca        1 LDN     -0.097000
     11 CAK         5.0370    3.1270    2.0010 cc        1 LDN      0.437200
     12 CAL         4.3220   -0.6190    4.3630 cc        1 LDN      0.394500
     13 CAM         6.6670    1.6810    3.0880 cd        1 LDN     -0.003300
     14 CAN        11.5000    8.0900   -0.8040 c3        1 LDN      0.158300
     15 CAO        13.0420    6.8880    0.6140 c3        1 LDN      0.158300
     16 CAP        10.3090    7.4190   -0.0880 c3        1 LDN      0.187800
     17 CAQ        11.8600    6.2110    1.3390 c3        1 LDN      0.187800
     18 NAR        -0.8580   -0.0120    3.6630 nb        1 LDN     -0.658000
     19 NAS         3.9980    2.3990    2.3620 nd        1 LDN     -0.619000
     20 NAT         5.6190   -0.2330    4.2330 nd        1 LDN     -0.557100
     21 NAU        12.6850    8.1630    0.0250 n3        1 LDN     -0.820200
     22 CAV         7.4890    3.6810    1.8890 ca        1 LDN     -0.073000
     23 CAW         6.4100    2.8160    2.3350 cc        1 LDN     -0.188300
     24 CAX         9.5940    5.3700    1.0100 ca        1 LDN      0.157600
     25 CAY         1.9800    0.1790    3.6500 ca        1 LDN      0.051200
     26 CAZ         3.4190    0.2760    3.6810 cc        1 LDN     -0.223800
     27 CBA        -0.1590   -0.0860    2.4710 ca        1 LDN      0.392600
     28 CBB         1.2680    0.0020    2.4180 ca        1 LDN     -0.127300
     29 CBC         4.2570    1.2700    3.1100 cd        1 LDN      0.365500
     30 NBD        10.6680    6.1400    0.5100 nh        1 LDN     -0.640000
     31 NBE         5.6070    0.8890    3.4950 na        1 LDN      0.045200
     32 HAA        -0.7680   -0.4830   -0.8880 ha        1 LDN      0.133000
     33 HAB         1.7110   -0.3520   -0.9640 ha        1 LDN      0.132000
     34 HAC        -0.7450    0.1940    5.7120 h4        1 LDN      0.020100
     35 HAD         1.7580    0.3720    5.7970 ha        1 LDN      0.145000
     36 HAF         6.6090    4.0560   -0.0590 ha        1 LDN      0.134000
     37 HAG        10.4450    4.9760    2.9920 ha        1 LDN      0.139000
     38 HAH         8.4250    5.5090   -0.8390 ha        1 LDN      0.139000
     39 HAI        -1.9800   -0.3210    1.2810 ha        1 LDN      0.148000
     40 HAJ         3.0200   -0.0400    1.1370 ha        1 LDN      0.140000
     41 HAK         4.8200    4.0360    1.4090 h4        1 LDN      0.039100
     42 HAL         4.0520   -1.5160    4.9250 h4        1 LDN      0.060800
     43 HAM         7.6830    1.3650    3.3830 h4        1 LDN      0.185000
     44 HAN        11.1950    9.1430   -1.0600 h1        1 LDN      0.038450
     45 HANA       11.6880    7.5380   -1.7720 h1        1 LDN      0.038450
     46 HAO        13.8470    7.0780    1.3780 h1        1 LDN      0.038450
     47 HAOA       13.4520    6.1630   -0.1490 h1        1 LDN      0.038450
     48 HAP         9.9110    8.1290    0.6940 h1        1 LDN      0.045950
     49 HAPA        9.5020    7.2530   -0.8530 h1        1 LDN      0.045950
     50 HAQ        12.1740    5.1600    1.5950 h1        1 LDN      0.045950
     51 HAQA       11.6610    6.7680    2.3000 h1        1 LDN      0.045950
     52 HNAU       13.4560    8.5270   -0.5040 hn        1 LDN      0.367800
     53 HAE         8.6250    3.5140    3.7280 ha        1 LDN      0.134000
@<TRIPOS>BOND
     1    1    2 ar  
     2    1    9 ar  
     3    1   32 1   
     4    2   10 ar  
     5    2   33 1   
     6    3    4 ar  
     7    3   18 ar  
     8    3   34 1   
     9    4   25 ar  
    10    4   35 1   
    11    5    7 ar  
    12    5   22 ar  
    13    5   53 1   
    14    6    8 ar  
    15    6   22 ar  
    16    6   36 1   
    17    7   24 ar  
    18    7   37 1   
    19    8   24 ar  
    20    8   38 1   
    21    9   27 ar  
    22    9   39 1   
    23   10   28 ar  
    24   10   40 1   
    25   11   19 2   
    26   11   23 1   
    27   11   41 1   
    28   12   20 2   
    29   12   26 1   
    30   12   42 1   
    31   13   23 2   
    32   13   31 1   
    33   13   43 1   
    34   14   16 1   
    35   14   21 1   
    36   14   44 1   
    37   14   45 1   
    38   15   17 1   
    39   15   21 1   
    40   15   46 1   
    41   15   47 1   
    42   16   30 1   
    43   16   48 1   
    44   16   49 1   
    45   17   30 1   
    46   17   50 1   
    47   17   51 1   
    48   18   27 ar  
    49   19   29 1   
    50   20   31 1   
    51   21   52 1   
    52   22   23 1   
    53   24   30 1   
    54   25   26 1   
    55   25   28 ar  
    56   26   29 2   
    57   27   28 ar  
    58   29   31 1   
@<TRIPOS>SUBSTRUCTURE
     1 LDN         1 TEMP              0 ****  ****    0 ROOT
