@<TRIPOS>MOLECULE
LDN
   53    58     1     0     0
SMALL
bcc


@<TRIPOS>ATOM
      1 CAA         6.1260    3.0050    1.1470 ca        1 LDN     -0.123000
      2 CAB         4.9160    2.4620    1.6370 ca        1 LDN     -0.133000
      3 CAC         6.7010   -0.7080   -1.7550 ca        1 LDN      0.410200
      4 CAD         5.4860   -1.3270   -1.3310 ca        1 LDN     -0.245300
      5 CAE        -2.9240   -1.3570   -0.2770 ca        1 LDN     -0.089000
      6 CAF        -2.5550    0.9740    0.2040 ca        1 LDN     -0.089000
      7 CAG        -4.2970   -1.1420   -0.2940 ca        1 LDN     -0.173000
      8 CAH        -3.9240    1.2000    0.1980 ca        1 LDN     -0.173000
      9 CAI         6.8510    2.3470    0.1860 ca        1 LDN     -0.169300
     10 CAJ         4.4460    1.2670    1.1510 ca        1 LDN     -0.097000
     11 CAK         0.3030    0.4500   -0.5830 cc        1 LDN      0.437200
     12 CAL         3.3430   -2.5870    0.7040 cc        1 LDN      0.394500
     13 CAM        -0.0580   -1.6870    0.5270 cd        1 LDN     -0.003300
     14 CAN        -8.2010    1.8320   -0.4160 c3        1 LDN      0.158300
     15 CAO        -8.5610   -0.4480    0.2970 c3        1 LDN      0.158300
     16 CAP        -6.7290    1.5040   -0.7390 c3        1 LDN      0.187800
     17 CAQ        -7.0900   -0.7880   -0.0220 c3        1 LDN      0.187800
     18 NAR         7.1480    0.4470   -1.2980 nb        1 LDN     -0.658000
     19 NAS         1.6160    0.3280   -0.6140 nd        1 LDN     -0.619000
     20 NAT         2.0440   -2.8940    0.9650 nd        1 LDN     -0.557100
     21 NAU        -9.0620    0.6680   -0.4800 n3        1 LDN     -0.820200
     22 CAV        -2.0320   -0.3060   -0.0310 ca        1 LDN     -0.073000
     23 CAW        -0.5970   -0.5330   -0.0190 cc        1 LDN     -0.188300
     24 CAX        -4.8350    0.1430   -0.0510 ca        1 LDN      0.157600
     25 CAY         4.7080   -0.6940   -0.3820 ca        1 LDN      0.051200
     26 CAZ         3.4780   -1.3030    0.0620 cc        1 LDN     -0.223800
     27 CBA         6.3920    1.0960   -0.3400 ca        1 LDN      0.392600
     28 CBB         5.1610    0.5570    0.1520 ca        1 LDN     -0.127300
     29 CBC         2.1490   -0.8210   -0.0700 cd        1 LDN      0.365500
     30 NBD        -6.2250    0.3800    0.0370 nh        1 LDN     -0.640000
     31 NBE         1.3150   -1.8630    0.5120 na        1 LDN      0.045200
     32 HAA         6.4810    3.9660    1.5490 ha        1 LDN      0.133000
     33 HAB         4.3580    3.0090    2.4110 ha        1 LDN      0.132000
     34 HAC         7.3250   -1.2070   -2.5190 h4        1 LDN      0.020100
     35 HAD         5.1870   -2.2870   -1.7700 ha        1 LDN      0.145000
     36 HAF        -1.8720    1.8130    0.4110 ha        1 LDN      0.134000
     37 HAG        -4.9550   -1.9980   -0.5080 ha        1 LDN      0.139000
     38 HAH        -4.2920    2.2150    0.4090 ha        1 LDN      0.139000
     39 HAI         7.7940    2.7680   -0.1950 ha        1 LDN      0.148000
     40 HAJ         3.5030    0.8390    1.5260 ha        1 LDN      0.140000
     41 HAK        -0.1170    1.3710   -1.0300 h4        1 LDN      0.039100
     42 HAL         4.1520   -3.2690    0.9790 h4        1 LDN      0.060800
     43 HAM        -0.6700   -2.4860    0.9830 h4        1 LDN      0.185000
     44 HAN        -8.2400    2.3380    0.5920 h1        1 LDN      0.038450
     45 HANA       -8.5650    2.5680   -1.1870 h1        1 LDN      0.038450
     46 HAO        -9.1830   -1.3500    0.0400 h1        1 LDN      0.038450
     47 HAOA       -8.6500   -0.2700    1.4090 h1        1 LDN      0.038450
     48 HAP        -6.6370    1.3020   -1.8460 h1        1 LDN      0.045950
     49 HAPA       -6.1180    2.4180   -0.5000 h1        1 LDN      0.045950
     50 HAQ        -6.7360   -1.5280    0.7500 h1        1 LDN      0.045950
     51 HAQA       -7.0460   -1.2820   -1.0360 h1        1 LDN      0.045950
     52 HNAU       -9.9900    0.9070   -0.1830 hn        1 LDN      0.367800
     53 HAE        -2.5350   -2.3680   -0.4760 ha        1 LDN      0.134000
@<TRIPOS>BOND
     1    1    2 ar  
     2    1    9 ar  
     3    1   32 1   
     4    2   10 ar  
     5    2   33 1   
     6    3    4 ar  
     7    3   18 ar  
     8    3   34 1   
     9    4   25 ar  
    10    4   35 1   
    11    5    7 ar  
    12    5   22 ar  
    13    5   53 1   
    14    6    8 ar  
    15    6   22 ar  
    16    6   36 1   
    17    7   24 ar  
    18    7   37 1   
    19    8   24 ar  
    20    8   38 1   
    21    9   27 ar  
    22    9   39 1   
    23   10   28 ar  
    24   10   40 1   
    25   11   19 2   
    26   11   23 1   
    27   11   41 1   
    28   12   20 2   
    29   12   26 1   
    30   12   42 1   
    31   13   23 2   
    32   13   31 1   
    33   13   43 1   
    34   14   16 1   
    35   14   21 1   
    36   14   44 1   
    37   14   45 1   
    38   15   17 1   
    39   15   21 1   
    40   15   46 1   
    41   15   47 1   
    42   16   30 1   
    43   16   48 1   
    44   16   49 1   
    45   17   30 1   
    46   17   50 1   
    47   17   51 1   
    48   18   27 ar  
    49   19   29 1   
    50   20   31 1   
    51   21   52 1   
    52   22   23 1   
    53   24   30 1   
    54   25   26 1   
    55   25   28 ar  
    56   26   29 2   
    57   27   28 ar  
    58   29   31 1   
@<TRIPOS>SUBSTRUCTURE
     1 LDN         1 TEMP              0 ****  ****    0 ROOT
