@<TRIPOS>MOLECULE
LDO
   23    22     1     0     0
SMALL
bcc


@<TRIPOS>ATOM
      1 N          -0.1260   -0.2350   -0.0400 n4        1 LDO     -0.837600
      2 CA          1.3480    0.0150    0.0360 c3        1 LDO     -0.073500
      3 CB          1.8740    0.0530    1.4570 c3        1 LDO     -0.096400
      4 CG          1.4350    1.2870    2.2140 c3        1 LDO     -0.086400
      5 CD          1.9780    1.2750    3.6250 c3        1 LDO     -0.085400
      6 CE          1.6090    2.5570    4.3530 c3        1 LDO      0.133400
      7 OZ          2.0090    2.3950    5.7040 oh        1 LDO     -0.597800
      8 C           2.1140   -1.1290   -0.7970 c         1 LDO      0.936600
      9 O           3.3520   -1.0630   -0.7660 o         1 LDO     -0.754800
     10 OXT         1.3550   -1.9360   -1.3960 o         1 LDO     -0.754800
     11 HN1        -0.6260    0.5850   -0.3660 hn        1 LDO      0.443133
     12 HN2        -0.4890   -0.5210    0.8660 hn        1 LDO      0.443133
     13 HA1         1.5580    0.9880   -0.4860 hx        1 LDO      0.088700
     14 HB1         1.5780   -0.8730    2.0180 hc        1 LDO      0.088200
     15 HB2         2.9990    0.0320    1.3710 hc        1 LDO      0.088200
     16 HG1         0.3140    1.3460    2.2490 hc        1 LDO      0.028200
     17 HG2         1.7970    2.2050    1.6790 hc        1 LDO      0.028200
     18 HD1         1.5690    0.3980    4.1920 hc        1 LDO      0.064200
     19 HD2         3.0940    1.1660    3.6090 hc        1 LDO      0.064200
     20 HE1         2.1350    3.4370    3.8930 h1        1 LDO      0.019200
     21 HE2         0.5000    2.7360    4.3060 h1        1 LDO      0.019200
     22 HOZ         1.8660    3.2440    6.1380 ho        1 LDO      0.402000
     23 HN3        -0.2450   -1.0230   -0.7240 hn        1 LDO      0.443133
@<TRIPOS>BOND
     1    1    2 1   
     2    1   11 1   
     3    1   12 1   
     4    1   23 1   
     5    2    3 1   
     6    2    8 1   
     7    2   13 1   
     8    3    4 1   
     9    3   14 1   
    10    3   15 1   
    11    4    5 1   
    12    4   16 1   
    13    4   17 1   
    14    5    6 1   
    15    5   18 1   
    16    5   19 1   
    17    6    7 1   
    18    6   20 1   
    19    6   21 1   
    20    7   22 1   
    21    8    9 1   
    22    8   10 1   
@<TRIPOS>SUBSTRUCTURE
     1 LDO         1 TEMP              0 ****  ****    0 ROOT
