@<TRIPOS>MOLECULE
LDO
   22    21     1     0     0
SMALL
bcc


@<TRIPOS>ATOM
      1 N           1.9060    0.0920    1.3860 n3        1 LDO     -0.892800
      2 CA          0.4780    0.3750    1.3100 c3        1 LDO      0.017500
      3 CB         -0.1990   -0.2430    0.0870 c3        1 LDO     -0.062400
      4 CG          0.2970    0.3580   -1.2100 c3        1 LDO     -0.076400
      5 CD         -0.4370   -0.2200   -2.4010 c3        1 LDO     -0.082400
      6 CE          0.0660    0.4100   -3.6880 c3        1 LDO      0.129400
      7 OZ         -0.6320   -0.1940   -4.7690 oh        1 LDO     -0.607800
      8 C          -0.3310   -0.0460    2.5830 c         1 LDO      0.887600
      9 O           0.3010   -0.5740    3.5420 o         1 LDO     -0.844800
     10 OXT        -1.5720    0.1850    2.5870 o         1 LDO     -0.844800
     11 HN1         2.2040    0.3170    2.3220 hn        1 LDO      0.329800
     12 HN2         2.0390   -0.8990    1.2820 hn        1 LDO      0.329800
     13 HA1         0.3820    1.4980    1.2350 h1        1 LDO      0.039700
     14 HB1        -0.0370   -1.3520    0.0750 hc        1 LDO      0.047200
     15 HB2        -1.3030   -0.0660    0.1960 hc        1 LDO      0.047200
     16 HG1         0.1510    1.4710   -1.1840 hc        1 LDO      0.035200
     17 HG2         1.3970    0.1720   -1.3200 hc        1 LDO      0.035200
     18 HD1        -0.2860   -1.3300   -2.4480 hc        1 LDO      0.049700
     19 HD2        -1.5390   -0.0400   -2.3040 hc        1 LDO      0.049700
     20 HE1        -0.1250    1.5170   -3.6850 h1        1 LDO      0.014700
     21 HE2         1.1690    0.2370   -3.8080 h1        1 LDO      0.014700
     22 HOZ        -0.3110    0.2320   -5.5700 ho        1 LDO      0.384000
@<TRIPOS>BOND
     1    1    2 1   
     2    1   11 1   
     3    1   12 1   
     4    2    3 1   
     5    2    8 1   
     6    2   13 1   
     7    3    4 1   
     8    3   14 1   
     9    3   15 1   
    10    4    5 1   
    11    4   16 1   
    12    4   17 1   
    13    5    6 1   
    14    5   18 1   
    15    5   19 1   
    16    6    7 1   
    17    6   20 1   
    18    6   21 1   
    19    7   22 1   
    20    8    9 1   
    21    8   10 1   
@<TRIPOS>SUBSTRUCTURE
     1 LDO         1 TEMP              0 ****  ****    0 ROOT
