@<TRIPOS>MOLECULE
LDO
   22    21     1     0     0
SMALL
bcc


@<TRIPOS>ATOM
      1 N          -2.3860   -0.8180   -1.5780 n3        1 LDO     -0.892800
      2 CA         -0.9630   -0.8180   -1.5780 c3        1 LDO      0.017500
      3 CB         -0.4590   -0.8180   -0.1530 c3        1 LDO     -0.062400
      4 CG          0.2550    0.4850    0.1290 c3        1 LDO     -0.076400
      5 CD          0.7350    0.4970    1.5630 c3        1 LDO     -0.082400
      6 CE          1.4840    1.7830    1.8340 c3        1 LDO      0.129400
      7 OZ          1.8980    1.8110    3.1820 oh        1 LDO     -0.607800
      8 C          -0.4590   -2.0520   -2.2910 c         1 LDO      0.887600
      9 O           0.3040   -1.9370   -3.2850 o         1 LDO     -0.844800
     10 OXT        -0.8040   -3.1950   -1.8900 o         1 LDO     -0.844800
     11 HN1        -2.6900   -1.3750   -2.2340 hn        1 LDO      0.329800
     12 HN2        -2.6900    0.0270   -1.7330 hn        1 LDO      0.329800
     13 HA1        -0.6380   -0.0210   -2.0390 h1        1 LDO      0.039700
     14 HB1         0.1590   -1.5630   -0.0270 hc        1 LDO      0.047200
     15 HB2        -1.2140   -0.9150    0.4580 hc        1 LDO      0.047200
     16 HG1        -0.3580    1.2300   -0.0160 hc        1 LDO      0.035200
     17 HG2         1.0210    0.5730   -0.4710 hc        1 LDO      0.035200
     18 HD1         1.3280   -0.2640    1.7150 hc        1 LDO      0.049700
     19 HD2        -0.0320    0.4350    2.1640 hc        1 LDO      0.049700
     20 HE1         2.2670    1.8320    1.2530 h1        1 LDO      0.014700
     21 HE2         0.8990    2.5440    1.6570 h1        1 LDO      0.014700
     22 HOZ         2.3430    2.5630    3.3400 ho        1 LDO      0.384000
@<TRIPOS>BOND
     1    1    2 1   
     2    1   11 1   
     3    1   12 1   
     4    2    3 1   
     5    2    8 1   
     6    2   13 1   
     7    3    4 1   
     8    3   14 1   
     9    3   15 1   
    10    4    5 1   
    11    4   16 1   
    12    4   17 1   
    13    5    6 1   
    14    5   18 1   
    15    5   19 1   
    16    6    7 1   
    17    6   20 1   
    18    6   21 1   
    19    7   22 1   
    20    8    9 1   
    21    8   10 1   
@<TRIPOS>SUBSTRUCTURE
     1 LDO         1 TEMP              0 ****  ****    0 ROOT
