@<TRIPOS>MOLECULE
LDO
   23    22     1     0     0
SMALL
bcc


@<TRIPOS>ATOM
      1 N          -0.1380   -0.2730   -0.0100 n4        1 LDO     -0.837600
      2 CA          1.3310    0.0080    0.0400 c3        1 LDO     -0.073500
      3 CB          1.8810    0.0610    1.4520 c3        1 LDO     -0.096400
      4 CG          1.4280    1.2880    2.2120 c3        1 LDO     -0.086400
      5 CD          1.9970    1.2920    3.6140 c3        1 LDO     -0.085400
      6 CE          1.6140    2.5680    4.3440 c3        1 LDO      0.133400
      7 OZ          2.0430    2.4200    5.6880 oh        1 LDO     -0.597800
      8 C           2.1070   -1.1220   -0.8030 c         1 LDO      0.936600
      9 O           3.3430   -1.0320   -0.7920 o         1 LDO     -0.754800
     10 OXT         1.3530   -1.9460   -1.3890 o         1 LDO     -0.754800
     11 HN1        -0.2540   -1.0640   -0.6920 hn        1 LDO      0.443133
     12 HN2        -0.4800   -0.5660    0.9020 hn        1 LDO      0.443133
     13 HA1         1.5120    0.9840   -0.4880 hx        1 LDO      0.088700
     14 HB1         3.0040    0.0630    1.3470 hc        1 LDO      0.088200
     15 HB2         1.6130   -0.8690    2.0200 hc        1 LDO      0.088200
     16 HG1         1.7610    2.2110    1.6680 hc        1 LDO      0.028200
     17 HG2         0.3080    1.3220    2.2680 hc        1 LDO      0.028200
     18 HD1         3.1150    1.2080    3.5780 hc        1 LDO      0.064200
     19 HD2         1.6190    0.4080    4.1910 hc        1 LDO      0.064200
     20 HE1         0.5000    2.7210    4.3190 h1        1 LDO      0.019200
     21 HE2         2.1100    3.4570    3.8720 h1        1 LDO      0.019200
     22 HOZ         1.8890    3.2660    6.1220 ho        1 LDO      0.402000
     23 HN3        -0.6610    0.5360   -0.3280 hn        1 LDO      0.443133
@<TRIPOS>BOND
     1    1    2 1   
     2    1   11 1   
     3    1   12 1   
     4    1   23 1   
     5    2    3 1   
     6    2    8 1   
     7    2   13 1   
     8    3    4 1   
     9    3   14 1   
    10    3   15 1   
    11    4    5 1   
    12    4   16 1   
    13    4   17 1   
    14    5    6 1   
    15    5   18 1   
    16    5   19 1   
    17    6    7 1   
    18    6   20 1   
    19    6   21 1   
    20    7   22 1   
    21    8    9 1   
    22    8   10 1   
@<TRIPOS>SUBSTRUCTURE
     1 LDO         1 TEMP              0 ****  ****    0 ROOT
