@<TRIPOS>MOLECULE
LDO
   23    22     1     0     0
SMALL
bcc


@<TRIPOS>ATOM
      1 N          -0.1470   -0.2310   -0.0240 nz        1 LDO     -0.837600
      2 CA          1.3290    0.0010    0.0430 c3        1 LDO     -0.073500
      3 CB          1.8630    0.0440    1.4610 c3        1 LDO     -0.096400
      4 CG          1.4430    1.2900    2.2090 c3        1 LDO     -0.086400
      5 CD          1.9940    1.2830    3.6180 c3        1 LDO     -0.085400
      6 CE          1.6440    2.5750    4.3360 c3        1 LDO      0.133400
      7 OZ          2.0510    2.4200    5.6860 oh        1 LDO     -0.597800
      8 C           2.0770   -1.1590   -0.7850 c         1 LDO      0.936600
      9 O           3.3160   -1.1090   -0.7600 o         1 LDO     -0.754800
     10 OXT         1.3040   -1.9620   -1.3740 o         1 LDO     -0.754800
     11 HN1        -0.5100   -0.5060    0.8860 hn        1 LDO      0.443133
     12 HN2        -0.6390    0.5920   -0.3530 hn        1 LDO      0.443133
     13 HA1         1.5500    0.9670   -0.4880 hx        1 LDO      0.088700
     14 HB1         1.5580   -0.8730    2.0310 hc        1 LDO      0.088200
     15 HB2         2.9870    0.0090    1.3700 hc        1 LDO      0.088200
     16 HG1         0.3230    1.3630    2.2500 hc        1 LDO      0.028200
     17 HG2         1.8130    2.1990    1.6640 hc        1 LDO      0.028200
     18 HD1         1.5790    0.4150    4.1940 hc        1 LDO      0.064200
     19 HD2         3.1080    1.1610    3.5960 hc        1 LDO      0.064200
     20 HE1         2.1770    3.4450    3.8660 h1        1 LDO      0.019200
     21 HE2         0.5370    2.7660    4.2960 h1        1 LDO      0.019200
     22 HOZ         1.9190    3.2740    6.1140 ho        1 LDO      0.402000
     23 HN3        -0.2810   -1.0230   -0.7020 hn        1 LDO      0.443133
@<TRIPOS>BOND
     1    1    2 1   
     2    1   11 1   
     3    1   12 1   
     4    1   23 1   
     5    2    3 1   
     6    2    8 1   
     7    2   13 1   
     8    3    4 1   
     9    3   14 1   
    10    3   15 1   
    11    4    5 1   
    12    4   16 1   
    13    4   17 1   
    14    5    6 1   
    15    5   18 1   
    16    5   19 1   
    17    6    7 1   
    18    6   20 1   
    19    6   21 1   
    20    7   22 1   
    21    8    9 1   
    22    8   10 1   
@<TRIPOS>SUBSTRUCTURE
     1 LDO         1 TEMP              0 ****  ****    0 ROOT
