@<TRIPOS>MOLECULE
LDP
   22    22     1     0     0
SMALL
bcc


@<TRIPOS>ATOM
      1 C7         -0.0790   -0.7180    2.1420 c3        1 LDP     -0.037100
      2 C1          0.1580   -0.4530    0.6970 ca        1 LDP     -0.080300
      3 C4          0.6360    0.0320   -2.0260 ca        1 LDP      0.109100
      4 C2         -0.8990   -0.5250   -0.2160 ca        1 LDP     -0.167000
      5 C6          1.4450   -0.1410    0.2420 ca        1 LDP     -0.123000
      6 C5          1.6910    0.1020   -1.1060 ca        1 LDP     -0.131000
      7 C3         -0.6620   -0.2840   -1.5710 ca        1 LDP      0.040100
      8 O1         -1.6490   -0.3340   -2.5350 oh        1 LDP     -0.518100
      9 O2          0.9260    0.2790   -3.3460 oh        1 LDP     -0.494100
     10 C8         -0.0410    0.5880    2.9410 c3        1 LDP      0.160800
     11 N1         -0.1750    0.3840    4.3640 n3        1 LDP     -0.917800
     12 H71         0.7110   -1.4190    2.5260 hc        1 LDP      0.054700
     13 H72        -1.0710   -1.2220    2.2850 hc        1 LDP      0.054700
     14 H2         -1.9140   -0.7710    0.1270 ha        1 LDP      0.134000
     15 H6          2.2760   -0.0880    0.9630 ha        1 LDP      0.140000
     16 H5          2.7010    0.3460   -1.4660 ha        1 LDP      0.154000
     17 HO1        -2.4760   -0.5810   -2.0980 ho        1 LDP      0.428000
     18 HO2         0.1060    0.1850   -3.8540 ho        1 LDP      0.436000
     19 H81        -0.8370    1.2740    2.5240 h1        1 LDP      0.029200
     20 H82         0.9540    1.0890    2.7640 h1        1 LDP      0.029200
     21 HN11       -0.2140    1.2630    4.8390 hn        1 LDP      0.349300
     22 HN12       -0.9980   -0.1440    4.5770 hn        1 LDP      0.349300
@<TRIPOS>BOND
     1    1    2 1   
     2    1   10 1   
     3    1   12 1   
     4    1   13 1   
     5    2    4 ar  
     6    2    5 ar  
     7    3    6 ar  
     8    3    7 ar  
     9    3    9 1   
    10    4    7 ar  
    11    4   14 1   
    12    5    6 ar  
    13    5   15 1   
    14    6   16 1   
    15    7    8 1   
    16    8   17 1   
    17    9   18 1   
    18   10   11 1   
    19   10   19 1   
    20   10   20 1   
    21   11   21 1   
    22   11   22 1   
@<TRIPOS>SUBSTRUCTURE
     1 LDP         1 TEMP              0 ****  ****    0 ROOT
