@<TRIPOS>MOLECULE
LDP
   23    23     1     0     0
SMALL
bcc


@<TRIPOS>ATOM
      1 C7         -0.0240   -0.0100   -0.1910 c3        1 LDP     -0.042100
      2 C1          1.4620   -0.0100   -0.1040 ca        1 LDP     -0.132300
      3 C4          4.2490    0.0330    0.0700 ca        1 LDP      0.079100
      4 C2          2.0730   -0.0500    1.1560 ca        1 LDP     -0.139000
      5 C6          2.2380    0.0570   -1.2630 ca        1 LDP     -0.106000
      6 C5          3.6300    0.0810   -1.1800 ca        1 LDP     -0.165000
      7 C3          3.4660   -0.0340    1.2510 ca        1 LDP      0.129100
      8 O1          4.0100   -0.0910    2.5070 oh        1 LDP     -0.484100
      9 O2          5.6090    0.0430    0.2570 oh        1 LDP     -0.499100
     10 C8         -0.5320   -1.4160    0.1290 c3        1 LDP      0.095800
     11 N1         -2.0240   -1.4980    0.1530 n4        1 LDP     -0.839600
     12 H71        -0.3540    0.2980   -1.2190 hc        1 LDP      0.071700
     13 H72        -0.4410    0.7330    0.5430 hc        1 LDP      0.071700
     14 H2          1.4780   -0.0790    2.0800 ha        1 LDP      0.148000
     15 H6          1.7590    0.1020   -2.2530 ha        1 LDP      0.140000
     16 H5          4.2380    0.1410   -2.0960 ha        1 LDP      0.156000
     17 HO1         4.9760   -0.0170    2.4280 ho        1 LDP      0.454000
     18 HO2         6.0380    0.1520   -0.6060 ho        1 LDP      0.446000
     19 H81        -0.1510   -1.7370    1.1430 hx        1 LDP      0.118200
     20 H82        -0.1600   -2.1460   -0.6460 hx        1 LDP      0.118200
     21 HN11       -2.3200   -2.4540    0.3730 hn        1 LDP      0.460467
     22 HN12       -2.4060   -1.2300   -0.7590 hn        1 LDP      0.460467
     23 H13        -2.3990   -0.8600    0.8620 hn        1 LDP      0.460467
@<TRIPOS>BOND
     1    1    2 1   
     2    1   10 1   
     3    1   12 1   
     4    1   13 1   
     5    2    4 ar  
     6    2    5 ar  
     7    3    6 ar  
     8    3    7 ar  
     9    3    9 1   
    10    4    7 ar  
    11    4   14 1   
    12    5    6 ar  
    13    5   15 1   
    14    6   16 1   
    15    7    8 1   
    16    8   17 1   
    17    9   18 1   
    18   10   11 1   
    19   10   19 1   
    20   10   20 1   
    21   11   21 1   
    22   11   22 1   
    23   11   23 1   
@<TRIPOS>SUBSTRUCTURE
     1 LDP         1 TEMP              0 ****  ****    0 ROOT
