@<TRIPOS>MOLECULE
LDP
   23    23     1     0     0
SMALL
bcc


@<TRIPOS>ATOM
      1 C7         -0.0380    0.0200   -0.1850 c3        1 LDP     -0.042100
      2 C1          1.4460    0.0660   -0.0860 ca        1 LDP     -0.132300
      3 C4          4.2290    0.1970    0.1150 ca        1 LDP      0.079100
      4 C2          2.0490   -0.0060    1.1770 ca        1 LDP     -0.139000
      5 C6          2.2270    0.2080   -1.2340 ca        1 LDP     -0.106000
      6 C5          3.6170    0.2760   -1.1380 ca        1 LDP     -0.165000
      7 C3          3.4410    0.0540    1.2850 ca        1 LDP      0.129100
      8 O1          3.9770   -0.0380    2.5410 oh        1 LDP     -0.484100
      9 O2          5.5860    0.2450    0.3130 oh        1 LDP     -0.499100
     10 C8         -0.5010   -1.4150    0.0730 c3        1 LDP      0.095800
     11 N1         -1.9890   -1.5480    0.0810 n4        1 LDP     -0.839600
     12 H71        -0.4860    0.7170    0.5750 hc        1 LDP      0.071700
     13 H72        -0.3710    0.3580   -1.2020 hc        1 LDP      0.071700
     14 H2          1.4490   -0.0940    2.0950 ha        1 LDP      0.148000
     15 H6          1.7540    0.2790   -2.2250 ha        1 LDP      0.140000
     16 H5          4.2290    0.3950   -2.0450 ha        1 LDP      0.156000
     17 HO1         4.9410    0.0720    2.4740 ho        1 LDP      0.454000
     18 HO2         6.0170    0.4050   -0.5410 ho        1 LDP      0.446000
     19 H81        -0.1160   -1.7640    1.0760 hx        1 LDP      0.118200
     20 H82        -0.0970   -2.0990   -0.7280 hx        1 LDP      0.118200
     21 HN11       -2.3730   -1.2570   -0.8240 hn        1 LDP      0.460467
     22 HN12       -2.3910   -0.9530    0.8120 hn        1 LDP      0.460467
     23 H13        -2.2530   -2.5220    0.2590 hn        1 LDP      0.460467
@<TRIPOS>BOND
     1    1    2 1   
     2    1   10 1   
     3    1   12 1   
     4    1   13 1   
     5    2    4 ar  
     6    2    5 ar  
     7    3    6 ar  
     8    3    7 ar  
     9    3    9 1   
    10    4    7 ar  
    11    4   14 1   
    12    5    6 ar  
    13    5   15 1   
    14    6   16 1   
    15    7    8 1   
    16    8   17 1   
    17    9   18 1   
    18   10   11 1   
    19   10   19 1   
    20   10   20 1   
    21   11   21 1   
    22   11   22 1   
    23   11   23 1   
@<TRIPOS>SUBSTRUCTURE
     1 LDP         1 TEMP              0 ****  ****    0 ROOT
