@<TRIPOS>MOLECULE
LDP
   23    23     1     0     0
SMALL
bcc


@<TRIPOS>ATOM
      1 C7         -0.0420    0.0190   -0.1650 c3        1 LDP     -0.042100
      2 C1          1.4430    0.0670   -0.0830 ca        1 LDP     -0.132300
      3 C4          4.2270    0.2010    0.0860 ca        1 LDP      0.079100
      4 C2          2.0610   -0.0100    1.1730 ca        1 LDP     -0.139000
      5 C6          2.2100    0.2150   -1.2400 ca        1 LDP     -0.106000
      6 C5          3.6020    0.2850   -1.1600 ca        1 LDP     -0.165000
      7 C3          3.4530    0.0520    1.2640 ca        1 LDP      0.129100
      8 O1          4.0050   -0.0450    2.5140 oh        1 LDP     -0.484100
      9 O2          5.5880    0.2510    0.2680 oh        1 LDP     -0.499100
     10 C8         -0.4990   -1.4180    0.0910 c3        1 LDP      0.095800
     11 N1         -1.9870   -1.5540    0.1150 nz        1 LDP     -0.839600
     12 H71        -0.4820    0.7110    0.6040 hc        1 LDP      0.071700
     13 H72        -0.3880    0.3620   -1.1770 hc        1 LDP      0.071700
     14 H2          1.4720   -0.1020    2.0960 ha        1 LDP      0.148000
     15 H6          1.7260    0.2900   -2.2250 ha        1 LDP      0.140000
     16 H5          4.2030    0.4090   -2.0730 ha        1 LDP      0.156000
     17 HO1         4.9670    0.0670    2.4350 ho        1 LDP      0.454000
     18 HO2         6.0080    0.4150   -0.5900 ho        1 LDP      0.446000
     19 H81        -0.1030   -1.7720    1.0870 hx        1 LDP      0.118200
     20 H82        -0.1050   -2.0980   -0.7190 hx        1 LDP      0.118200
     21 HN11       -2.3830   -1.2580   -0.7830 hn        1 LDP      0.460467
     22 HN12       -2.3820   -0.9630    0.8550 hn        1 LDP      0.460467
     23 H13        -2.2480   -2.5290    0.2910 hn        1 LDP      0.460467
@<TRIPOS>BOND
     1    1    2 1   
     2    1   10 1   
     3    1   12 1   
     4    1   13 1   
     5    2    4 ar  
     6    2    5 ar  
     7    3    6 ar  
     8    3    7 ar  
     9    3    9 1   
    10    4    7 ar  
    11    4   14 1   
    12    5    6 ar  
    13    5   15 1   
    14    6   16 1   
    15    7    8 1   
    16    8   17 1   
    17    9   18 1   
    18   10   11 1   
    19   10   19 1   
    20   10   20 1   
    21   11   21 1   
    22   11   22 1   
    23   11   23 1   
@<TRIPOS>SUBSTRUCTURE
     1 LDP         1 TEMP              0 ****  ****    0 ROOT
