@<TRIPOS>MOLECULE
LDR
   24    22     1     0     0
SMALL
bcc


@<TRIPOS>ATOM
      1 OAA        -2.9340   -0.0000   -1.8400 o         1 LDR     -0.359000
      2 CAB         3.0300   -0.0000   -1.8400 c1        1 LDR     -0.123250
      3 CAC        -2.6420   -0.0000    2.3470 c1        1 LDR     -0.123250
      4 CAD         3.1820   -0.0000   -0.4420 c1        1 LDR     -0.123250
      5 CAE        -1.3700   -0.0000    2.9050 c1        1 LDR     -0.123250
      6 CAF         1.7540   -0.0000   -2.4040 c1        1 LDR     -0.185000
      7 CAG        -2.7950   -0.0000    0.9670 c1        1 LDR     -0.065000
      8 CAH         2.0560   -0.0000    0.3840 c1        1 LDR     -0.076000
      9 CAI        -0.2510   -0.0000    2.0840 c1        1 LDR     -0.141000
     10 NAJ        -0.7040   -0.0000   -2.1670 n         1 LDR     -0.306000
     11 CAK        -1.8240   -0.0000   -1.3490 c2        1 LDR      0.349000
     12 CAL         0.6240   -0.0000   -1.5800 c2        1 LDR      0.102000
     13 CAM        -1.6620   -0.0000    0.1340 c2        1 LDR     -0.127000
     14 CAN         0.7750   -0.0000   -0.1800 c2        1 LDR     -0.094000
     15 CAO        -0.4050   -0.0000    0.6860 c2        1 LDR      0.027000
     16 HAB         3.8180   -0.0000   -2.4160 ha        1 LDR      0.137750
     17 HAC        -3.4290   -0.0000    2.9240 ha        1 LDR      0.137750
     18 HAD         4.0750   -0.0000   -0.0480 ha        1 LDR      0.137750
     19 HAE        -1.2630   -0.0000    3.8760 ha        1 LDR      0.137750
     20 HAF         1.6490   -0.0000   -3.3750 ha        1 LDR      0.138000
     21 HAG        -3.6890   -0.0000    0.5750 ha        1 LDR      0.161000
     22 HAH         2.1620   -0.0000    1.3540 ha        1 LDR      0.136000
     23 HAI         0.6420   -0.0000    2.4770 ha        1 LDR      0.137000
     24 HNAJ       -0.8010    0.0000   -3.0740 hn        1 LDR      0.247000
@<TRIPOS>BOND
     1    1   11 1   
     2    2    4 1   
     3    2   16 1   
     4    3    5 1   
     5    3   17 1   
     6    4   18 1   
     7    5   19 1   
     8    6   12 1   
     9    6   20 1   
    10    7   13 1   
    11    7   21 1   
    12    8   14 1   
    13    8   22 1   
    14    9   15 1   
    15    9   23 1   
    16   10   11 1   
    17   10   12 1   
    18   10   24 1   
    19   11   13 1   
    20   12   14 1   
    21   13   15 1   
    22   14   15 1   
@<TRIPOS>SUBSTRUCTURE
     1 LDR         1 TEMP              0 ****  ****    0 ROOT
