@<TRIPOS>MOLECULE
LDR
   24    26     1     0     0
SMALL
bcc


@<TRIPOS>ATOM
      1 OAA        -1.4530   -2.8390   -0.0050 o         1 LDR     -0.634500
      2 CAB         3.6640    0.1950    0.0000 ca        1 LDR     -0.082000
      3 CAC        -3.3860    0.9330   -0.0010 ca        1 LDR     -0.147000
      4 CAD         3.1240    1.4840    0.0020 ca        1 LDR     -0.167000
      5 CAE        -2.5870    2.0800    0.0010 ca        1 LDR     -0.097000
      6 CAF         2.8330   -0.9130   -0.0010 ca        1 LDR     -0.185000
      7 CAG        -2.7880   -0.3210   -0.0020 ca        1 LDR     -0.065000
      8 CAH         1.7470    1.6600    0.0020 ca        1 LDR     -0.076000
      9 CAI        -1.2020    1.9770    0.0010 ca        1 LDR     -0.141000
     10 NAJ         0.5990   -1.8690   -0.0030 n         1 LDR     -0.452100
     11 CAK        -0.7930   -1.7810   -0.0030 c         1 LDR      0.712100
     12 CAL         1.4250   -0.7490   -0.0020 ca        1 LDR      0.094600
     13 CAM        -1.3910   -0.4310   -0.0020 ca        1 LDR     -0.147600
     14 CAN         0.8710    0.5630    0.0000 ca        1 LDR     -0.094000
     15 CAO        -0.5740    0.7180   -0.0000 ca        1 LDR      0.027000
     16 HAC        -4.4820    1.0230   -0.0010 ha        1 LDR      0.140000
     17 HAD         3.7910    2.3590    0.0030 ha        1 LDR      0.138000
     18 HAE        -3.0600    3.0750    0.0020 ha        1 LDR      0.136000
     19 HAF         3.2700   -1.9230   -0.0020 ha        1 LDR      0.138000
     20 HAG        -3.3960   -1.2410   -0.0030 ha        1 LDR      0.161000
     21 HAH         1.3430    2.6830    0.0030 ha        1 LDR      0.136000
     22 HAI        -0.6000    2.8970    0.0030 ha        1 LDR      0.137000
     23 HNAJ        1.0170   -2.7730   -0.0040 hn        1 LDR      0.333500
     24 HAB         4.7560    0.0590    0.0010 ha        1 LDR      0.137000
@<TRIPOS>BOND
     1    1   11 2   
     2    2    4 ar  
     3    2    6 ar  
     4    2   24 1   
     5    3    5 ar  
     6    3    7 ar  
     7    3   16 1   
     8    4    8 ar  
     9    4   17 1   
    10    5    9 ar  
    11    5   18 1   
    12    6   12 ar  
    13    6   19 1   
    14    7   13 ar  
    15    7   20 1   
    16    8   14 ar  
    17    8   21 1   
    18    9   15 ar  
    19    9   22 1   
    20   10   11 1   
    21   10   12 1   
    22   10   23 1   
    23   11   13 1   
    24   12   14 ar  
    25   13   15 ar  
    26   14   15 1   
@<TRIPOS>SUBSTRUCTURE
     1 LDR         1 TEMP              0 ****  ****    0 ROOT
