@<TRIPOS>MOLECULE
LDR
   24    26     1     0     0
SMALL
bcc


@<TRIPOS>ATOM
      1 OAA        -0.0610    0.0170   -0.0370 o         1 LDR     -0.634500
      2 CAB         5.8880   -0.0010   -0.0250 ca        1 LDR     -0.082000
      3 CAC         0.1910    0.0270    4.1940 ca        1 LDR     -0.147000
      4 CAD         6.0770    0.0020    1.3600 ca        1 LDR     -0.167000
      5 CAE         1.4620    0.0250    4.7760 ca        1 LDR     -0.097000
      6 CAF         4.6090    0.0010   -0.5570 ca        1 LDR     -0.185000
      7 CAG         0.0690    0.0240    2.8100 ca        1 LDR     -0.065000
      8 CAH         4.9820    0.0070    2.2110 ca        1 LDR     -0.076000
      9 CAI         2.6030    0.0190    3.9830 ca        1 LDR     -0.141000
     10 NAJ         2.1990    0.0100   -0.2440 ns        1 LDR     -0.452100
     11 CAK         1.0450    0.0150    0.5380 c         1 LDR      0.712100
     12 CAL         3.4800    0.0070    0.3000 ca        1 LDR      0.094600
     13 CAM         1.2160    0.0180    2.0050 ca        1 LDR     -0.147600
     14 CAN         3.6690    0.0100    1.7120 ca        1 LDR     -0.094000
     15 CAO         2.5040    0.0160    2.5800 ca        1 LDR      0.027000
     16 HAC        -0.7070    0.0320    4.8290 ha        1 LDR      0.140000
     17 HAD         7.0960   -0.0010    1.7740 ha        1 LDR      0.138000
     18 HAE         1.5610    0.0280    5.8730 ha        1 LDR      0.136000
     19 HAF         4.4720   -0.0010   -1.6490 ha        1 LDR      0.138000
     20 HAG        -0.9220    0.0260    2.3260 ha        1 LDR      0.161000
     21 HAH         5.1540    0.0090    3.2980 ha        1 LDR      0.136000
     22 HAI         3.5890    0.0180    4.4700 ha        1 LDR      0.137000
     23 HNAJ        2.0990    0.0070   -1.2360 hn        1 LDR      0.333500
     24 HAB         6.7590   -0.0060   -0.6980 ha        1 LDR      0.137000
@<TRIPOS>BOND
     1    1   11 2   
     2    2    4 ar  
     3    2    6 ar  
     4    2   24 1   
     5    3    5 ar  
     6    3    7 ar  
     7    3   16 1   
     8    4    8 ar  
     9    4   17 1   
    10    5    9 ar  
    11    5   18 1   
    12    6   12 ar  
    13    6   19 1   
    14    7   13 ar  
    15    7   20 1   
    16    8   14 ar  
    17    8   21 1   
    18    9   15 ar  
    19    9   22 1   
    20   10   11 1   
    21   10   12 1   
    22   10   23 1   
    23   11   13 1   
    24   12   14 ar  
    25   13   15 ar  
    26   14   15 1   
@<TRIPOS>SUBSTRUCTURE
     1 LDR         1 TEMP              0 ****  ****    0 ROOT
