@<TRIPOS>MOLECULE
LDT
   36    38     1     0     0
SMALL
bcc


@<TRIPOS>ATOM
      1 C2         -0.2890    0.5950   -0.0000 ca        1 LDT     -0.155000
      2 C3          0.5870   -0.1480    2.5480 ca        1 LDT     -0.140000
      3 C4          0.8920   -0.1380    0.1610 ca        1 LDT      0.051000
      4 C5         -1.0270    0.9620    1.1350 ca        1 LDT      0.077000
      5 C6         -0.5820    0.5900    2.4160 ca        1 LDT     -0.157000
      6 C7          1.3590   -0.5280    1.4360 ca        1 LDT      0.026000
      7 BR8         8.9970    1.2270    6.2400 br        1 LDT      0.090000
      8 F9         -2.1700    1.6790    0.9970 f         1 LDT     -0.106000
      9 C11         2.5530   -1.3320    1.5890 c2        1 LDT     -0.743000
     10 C13         4.4880    0.0450    2.1930 c3        1 LDT     -0.104000
     11 F14         3.9820    1.0630    4.8190 f         1 LDT     -0.106000
     12 O15         1.4900   -0.5460   -1.0280 os        1 LDT     -0.196000
     13 S16         2.9070   -2.6170    0.7200 ss        1 LDT      0.515000
     14 N17         3.4700   -0.9460    2.6590 n4        1 LDT      0.084000
     15 C20         2.8230   -0.0800   -1.2240 c3        1 LDT     -0.051000
     16 C24         5.5660    0.2910    3.1960 ca        1 LDT     -0.158000
     17 C25         7.6230    0.8520    5.0280 ca        1 LDT     -0.132000
     18 C26         6.9000    0.0410    2.8660 ca        1 LDT     -0.078000
     19 C27         5.2700    0.8240    4.4690 ca        1 LDT      0.090000
     20 C28         6.2980    1.1060    5.3850 ca        1 LDT     -0.134000
     21 C29         7.9230    0.3200    3.7700 ca        1 LDT     -0.113000
     22 C32         3.7880   -1.2310   -1.4240 c2        1 LDT      0.294000
     23 O33         4.4490   -1.3930   -2.4520 o         1 LDT     -0.313000
     24 O34         4.1160   -2.0510   -0.4020 os        1 LDT     -0.424000
     25 H2         -0.6360    0.8670   -1.0080 ha        1 LDT      0.163000
     26 H3          0.8830   -0.4680    3.5590 ha        1 LDT      0.120000
     27 H6         -1.1700    0.8740    3.3000 ha        1 LDT      0.146000
     28 H131        3.9460    1.0090    1.9690 hx        1 LDT      0.149000
     29 H132        4.9200   -0.3500    1.2250 hx        1 LDT      0.149000
     30 H17         2.9610   -0.5420    3.4510 hn        1 LDT      0.217500
     31 H201        3.1860    0.5480   -0.3700 h1        1 LDT      0.110500
     32 H202        2.7910    0.5260   -2.1720 h1        1 LDT      0.110500
     33 H26         7.1480   -0.3780    1.8760 ha        1 LDT      0.162000
     34 H28         6.0390    1.5270    6.3700 ha        1 LDT      0.172000
     35 H29         8.9680    0.1160    3.4840 ha        1 LDT      0.164000
     36 H172        3.9610   -1.7930    2.9730 hn        1 LDT      0.217500
@<TRIPOS>BOND
     1    1    3 1   
     2    1    4 1   
     3    1   25 1   
     4    2    5 1   
     5    2    6 1   
     6    2   26 1   
     7    3    6 1   
     8    3   12 1   
     9    4    5 1   
    10    4    8 1   
    11    5   27 1   
    12    6    9 1   
    13    7   17 1   
    14    9   13 1   
    15    9   14 1   
    16   10   14 1   
    17   10   16 1   
    18   10   28 1   
    19   10   29 1   
    20   11   19 1   
    21   12   15 1   
    22   13   24 1   
    23   14   30 1   
    24   14   36 1   
    25   15   22 1   
    26   15   31 1   
    27   15   32 1   
    28   16   18 1   
    29   16   19 1   
    30   17   20 1   
    31   17   21 1   
    32   18   21 1   
    33   18   33 1   
    34   19   20 1   
    35   20   34 1   
    36   21   35 1   
    37   22   23 1   
    38   22   24 1   
@<TRIPOS>SUBSTRUCTURE
     1 LDT         1 TEMP              0 ****  ****    0 ROOT
