@<TRIPOS>MOLECULE
LDT
   36    38     1     0     0
SMALL
bcc


@<TRIPOS>ATOM
      1 C2         -0.2670    0.6580   -0.0240 ca        1 LDT     -0.155000
      2 C3          0.5810   -0.2080    2.4960 ca        1 LDT     -0.140000
      3 C4          0.9210   -0.0710    0.1160 ca        1 LDT      0.051000
      4 C5         -1.0250    0.9580    1.1180 ca        1 LDT      0.077000
      5 C6         -0.5940    0.5230    2.3840 ca        1 LDT     -0.157000
      6 C7          1.3730   -0.5220    1.3770 ca        1 LDT      0.026000
      7 BR8         8.9190    1.0580    6.3810 br        1 LDT      0.090000
      8 F9         -2.1730    1.6680    1.0000 f         1 LDT     -0.106000
      9 C11         2.5730   -1.3210    1.5060 c2        1 LDT     -0.743000
     10 C13         4.4840    0.0420    2.2100 c3        1 LDT     -0.104000
     11 F14         3.9280    0.9150    4.8780 f         1 LDT     -0.106000
     12 O15         1.5390   -0.4100   -1.0830 os        1 LDT     -0.196000
     13 S16         2.9540   -2.5560    0.5760 ss        1 LDT      0.515000
     14 N17         3.4710   -0.9830    2.6080 n4        1 LDT      0.084000
     15 C20         2.8700    0.0790   -1.2350 c3        1 LDT     -0.051000
     16 C24         5.5450    0.2470    3.2400 ca        1 LDT     -0.158000
     17 C25         7.5680    0.7330    5.1300 ca        1 LDT     -0.132000
     18 C26         6.8860    0.0290    2.9180 ca        1 LDT     -0.078000
     19 C27         5.2240    0.7080    4.5350 ca        1 LDT      0.090000
     20 C28         6.2350    0.9540    5.4800 ca        1 LDT     -0.134000
     21 C29         7.8920    0.2700    3.8510 ca        1 LDT     -0.113000
     22 C32         3.8500   -1.0510   -1.4790 c2        1 LDT      0.294000
     23 O33         4.5290   -1.1520   -2.5040 o         1 LDT     -0.313000
     24 O34         4.1730   -1.9200   -0.4970 os        1 LDT     -0.424000
     25 H2         -0.6020    0.9780   -1.0210 ha        1 LDT      0.163000
     26 H3          0.8660   -0.5780    3.4930 ha        1 LDT      0.120000
     27 H6         -1.1980    0.7550    3.2730 ha        1 LDT      0.146000
     28 H131        4.9350   -0.2970    1.2290 hx        1 LDT      0.149000
     29 H132        3.9340    1.0110    2.0280 hx        1 LDT      0.149000
     30 H17         2.9450   -0.6270    3.4120 hn        1 LDT      0.217500
     31 H201        2.8450    0.7330   -2.1500 h1        1 LDT      0.110500
     32 H202        3.2140    0.6650   -0.3440 h1        1 LDT      0.110500
     33 H26         7.1530   -0.3350    1.9110 ha        1 LDT      0.162000
     34 H28         5.9560    1.3190    6.4820 ha        1 LDT      0.172000
     35 H29         8.9440    0.0930    3.5710 ha        1 LDT      0.164000
     36 H172        3.9670   -1.8400    2.8840 hn        1 LDT      0.217500
@<TRIPOS>BOND
     1    1    3 1   
     2    1    4 1   
     3    1   25 1   
     4    2    5 1   
     5    2    6 1   
     6    2   26 1   
     7    3    6 1   
     8    3   12 1   
     9    4    5 1   
    10    4    8 1   
    11    5   27 1   
    12    6    9 1   
    13    7   17 1   
    14    9   13 1   
    15    9   14 1   
    16   10   14 1   
    17   10   16 1   
    18   10   28 1   
    19   10   29 1   
    20   11   19 1   
    21   12   15 1   
    22   13   24 1   
    23   14   30 1   
    24   14   36 1   
    25   15   22 1   
    26   15   31 1   
    27   15   32 1   
    28   16   18 1   
    29   16   19 1   
    30   17   20 1   
    31   17   21 1   
    32   18   21 1   
    33   18   33 1   
    34   19   20 1   
    35   20   34 1   
    36   21   35 1   
    37   22   23 1   
    38   22   24 1   
@<TRIPOS>SUBSTRUCTURE
     1 LDT         1 TEMP              0 ****  ****    0 ROOT
