@<TRIPOS>MOLECULE
LDT
   36    38     1     0     0
SMALL
bcc


@<TRIPOS>ATOM
      1 C2         -0.2880    0.6550    0.0160 ca        1 LDT     -0.155000
      2 C3          0.5870   -0.2060    2.5280 ca        1 LDT     -0.140000
      3 C4          0.9010   -0.0740    0.1450 ca        1 LDT      0.051000
      4 C5         -1.0340    0.9580    1.1660 ca        1 LDT      0.077000
      5 C6         -0.5890    0.5250    2.4280 ca        1 LDT     -0.157000
      6 C7          1.3670   -0.5230    1.4010 ca        1 LDT      0.026000
      7 Br8         8.9690    1.0650    6.3170 br        1 LDT      0.090000
      8 F9         -2.1820    1.6690    1.0590 f         1 LDT     -0.106000
      9 C11         2.5670   -1.3220    1.5190 c2        1 LDT     -0.743000
     10 C13         4.4870    0.0430    2.1990 c3        1 LDT     -0.104000
     11 F14         3.9610    0.9210    4.8710 f         1 LDT     -0.106000
     12 O15         1.5060   -0.4160   -1.0600 os        1 LDT     -0.196000
     13 S16         2.9380   -2.5580    0.5870 ss        1 LDT      0.515000
     14 N17         3.4780   -0.9810    2.6100 ny        1 LDT      0.084000
     15 C20         2.8350    0.0720   -1.2280 c3        1 LDT     -0.051000
     16 C24         5.5590    0.2490    3.2160 ca        1 LDT     -0.158000
     17 C25         7.6040    0.7380    5.0820 ca        1 LDT     -0.132000
     18 C26         6.8960    0.0300    2.8790 ca        1 LDT     -0.078000
     19 C27         5.2530    0.7130    4.5140 ca        1 LDT      0.090000
     20 C28         6.2750    0.9600    5.4470 ca        1 LDT     -0.134000
     21 C29         7.9130    0.2720    3.8000 ca        1 LDT     -0.113000
     22 C32         3.8120   -1.0580   -1.4810 c2        1 LDT      0.294000
     23 O33         4.4790   -1.1620   -2.5130 o         1 LDT     -0.313000
     24 O34         4.1450   -1.9250   -0.5000 os        1 LDT     -0.424000
     25 H2         -0.6340    0.9740   -0.9780 ha        1 LDT      0.163000
     26 H3          0.8820   -0.5740    3.5220 ha        1 LDT      0.120000
     27 H6         -1.1830    0.7590    3.3220 ha        1 LDT      0.146000
     28 H131        3.9350    1.0110    2.0220 hx        1 LDT      0.149000
     29 H132        4.9260   -0.2990    1.2140 hx        1 LDT      0.149000
     30 H17         2.9610   -0.6230    3.4200 hn        1 LDT      0.217500
     31 H201        3.1890    0.6600   -0.3420 h1        1 LDT      0.110500
     32 H202        2.8000    0.7250   -2.1440 h1        1 LDT      0.110500
     33 H26         7.1520   -0.3370    1.8700 ha        1 LDT      0.162000
     34 H28         6.0080    1.3270    6.4510 ha        1 LDT      0.172000
     35 H29         8.9610    0.0940    3.5080 ha        1 LDT      0.164000
     36 H172        3.9760   -1.8380    2.8830 hn        1 LDT      0.217500
@<TRIPOS>BOND
     1    1    3 1   
     2    1    4 1   
     3    1   25 1   
     4    2    5 1   
     5    2    6 1   
     6    2   26 1   
     7    3    6 1   
     8    3   12 1   
     9    4    5 1   
    10    4    8 1   
    11    5   27 1   
    12    6    9 1   
    13    7   17 1   
    14    9   13 1   
    15    9   14 1   
    16   10   14 1   
    17   10   16 1   
    18   10   28 1   
    19   10   29 1   
    20   11   19 1   
    21   12   15 1   
    22   13   24 1   
    23   14   30 1   
    24   14   36 1   
    25   15   22 1   
    26   15   31 1   
    27   15   32 1   
    28   16   18 1   
    29   16   19 1   
    30   17   20 1   
    31   17   21 1   
    32   18   21 1   
    33   18   33 1   
    34   19   20 1   
    35   20   34 1   
    36   21   35 1   
    37   22   23 1   
    38   22   24 1   
@<TRIPOS>SUBSTRUCTURE
     1 LDT         1 TEMP              0 ****  ****    0 ROOT
