@<TRIPOS>MOLECULE
LDT
   35    36     1     0     0
SMALL
bcc


@<TRIPOS>ATOM
      1 C2         -2.0830    0.3290    4.3630 ca        1 LDT     -0.253000
      2 C3         -2.6190    1.7050    1.9830 ca        1 LDT     -0.030000
      3 C4         -1.0690    0.5090    3.4080 ca        1 LDT      0.202100
      4 C5         -3.3630    0.8370    4.1090 ca        1 LDT      0.164900
      5 C6         -3.6350    1.5320    2.9150 ca        1 LDT     -0.227000
      6 C7         -1.3330    1.1900    2.1960 ca        1 LDT     -0.170600
      7 BR8         0.4990   -1.1430   -5.8640 br        1 LDT     -0.115100
      8 F9         -4.3490    0.6640    5.0240 f         1 LDT     -0.151900
      9 C11        -0.3120    1.4030    1.1420 c         1 LDT      0.489000
     10 C13         1.6670    0.5160   -0.0130 c3        1 LDT      0.111300
     11 F14         2.9110   -1.7590   -1.2910 f         1 LDT     -0.121900
     12 O15         0.2200    0.1140    3.6430 os        1 LDT     -0.320900
     13 S16        -0.3590    2.8150    0.3320 s         1 LDT     -0.681400
     14 N17         0.5510    0.4000    0.8940 n         1 LDT     -0.424900
     15 C20         0.4020   -1.1150    4.3680 c3        1 LDT     -0.010600
     16 C24         1.3750    0.0890   -1.4250 ca        1 LDT     -0.110300
     17 C25         0.8540   -0.6500   -4.0870 ca        1 LDT     -0.001900
     18 C26         0.4820    0.8220   -2.2110 ca        1 LDT     -0.101000
     19 C27         2.0190   -1.0280   -1.9980 ca        1 LDT      0.144900
     20 C28         1.7540   -1.3980   -3.3330 ca        1 LDT     -0.162000
     21 C29         0.2180    0.4620   -3.5300 ca        1 LDT     -0.133000
     22 C32         1.5000   -1.9330    3.6430 c         1 LDT      0.921600
     23 O33         2.1820   -2.7000    4.3670 o         1 LDT     -0.820800
     24 O34         1.6170   -1.8130    2.3900 o         1 LDT     -0.820800
     25 H2         -1.8710   -0.1970    5.3040 ha        1 LDT      0.158000
     26 H3         -2.8120    2.2680    1.0520 ha        1 LDT      0.166000
     27 H6         -4.6400    1.9320    2.7310 ha        1 LDT      0.140000
     28 H131        2.0120    1.5940   -0.0440 h1        1 LDT      0.095200
     29 H132        2.4920   -0.1330    0.4140 h1        1 LDT      0.095200
     30 H17         0.5870   -0.4130    1.5140 hn        1 LDT      0.397500
     31 H201       -0.5370   -1.7200    4.4010 h1        1 LDT      0.040700
     32 H202        0.7210   -0.8350    5.4030 h1        1 LDT      0.040700
     33 H26        -0.0110    1.7100   -1.7580 ha        1 LDT      0.193000
     34 H28         2.2650   -2.2770   -3.7520 ha        1 LDT      0.153000
     35 H29        -0.4920    1.0580   -4.1220 ha        1 LDT      0.143000
@<TRIPOS>BOND
     1    1    3 ar  
     2    1    4 ar  
     3    1   25 1   
     4    2    5 ar  
     5    2    6 ar  
     6    2   26 1   
     7    3    6 ar  
     8    3   12 1   
     9    4    5 ar  
    10    4    8 1   
    11    5   27 1   
    12    6    9 1   
    13    7   17 1   
    14    9   13 2   
    15    9   14 1   
    16   10   14 1   
    17   10   16 1   
    18   10   28 1   
    19   10   29 1   
    20   11   19 1   
    21   12   15 1   
    22   14   30 1   
    23   15   22 1   
    24   15   31 1   
    25   15   32 1   
    26   16   18 ar  
    27   16   19 ar  
    28   17   20 ar  
    29   17   21 ar  
    30   18   21 ar  
    31   18   33 1   
    32   19   20 ar  
    33   20   34 1   
    34   21   35 1   
    35   22   23 1   
    36   22   24 1   
@<TRIPOS>SUBSTRUCTURE
     1 LDT         1 TEMP              0 ****  ****    0 ROOT
