@<TRIPOS>MOLECULE
LDT
   35    33     1     0     0
SMALL
bcc


@<TRIPOS>ATOM
      1 C2         -3.1600    0.2100    0.0520 c1        1 LDT     -0.181500
      2 C3         -1.7270   -0.1250   -2.2900 c1        1 LDT     -0.072000
      3 C4         -2.1670   -0.7520   -0.0200 c1        1 LDT      0.204600
      4 C5         -3.4360    1.0070   -1.0520 c1        1 LDT      0.129100
      5 C6         -2.7210    0.8390   -2.2180 c1        1 LDT     -0.072000
      6 C7         -1.4520   -0.9200   -1.1870 cg        1 LDT     -0.113200
      7 BR8         4.7250    4.6690    0.5090 br        1 LDT     -0.113100
      8 F9         -4.4290    1.8960   -1.0010 f         1 LDT     -0.121100
      9 C11        -0.0770   -1.6790   -1.2100 c         1 LDT      0.441600
     10 C13         2.0850   -0.8930   -0.1740 c3        1 LDT      0.108300
     11 F14         4.6460   -0.2800   -1.1690 f         1 LDT     -0.141900
     12 O15        -1.8440   -1.5340    1.1330 os        1 LDT     -0.320400
     13 S16        -0.0500   -3.3630   -1.3110 s         1 LDT     -0.649400
     14 N17         1.1890   -0.9120   -1.2890 n         1 LDT     -0.451900
     15 C20        -2.9730   -2.2090    1.7190 c3        1 LDT      0.002400
     16 C24         2.6890    0.4730   -0.0400 ca        1 LDT     -0.112300
     17 C25         3.9000    2.9630    0.2960 ca        1 LDT     -0.006900
     18 C26         2.0400    1.4560    0.6890 ca        1 LDT     -0.090000
     19 C27         3.9450    0.7310   -0.6030 ca        1 LDT      0.122900
     20 C28         4.5430    1.9700   -0.4340 ca        1 LDT     -0.161000
     21 C29         2.6480    2.7130    0.8610 ca        1 LDT     -0.117000
     22 C32        -2.8670   -2.1430    3.3240 c         1 LDT      0.903600
     23 O33        -1.7170   -2.3390    3.9110 o         1 LDT     -0.831300
     24 O34        -3.9380   -1.9760    4.0380 o         1 LDT     -0.831300
     25 H2         -3.6620    0.3280    0.8730 ha        1 LDT      0.101500
     26 H3         -1.2320   -0.2420   -3.0960 ha        1 LDT      0.092000
     27 H6         -2.9160    1.4010   -2.9950 ha        1 LDT      0.092000
     28 H131        1.6160   -1.1080    0.6110 h1        1 LDT      0.084700
     29 H132        2.8190   -1.5690   -0.3230 h1        1 LDT      0.084700
     30 H17         1.4410   -0.5210   -2.0870 hn        1 LDT      0.391500
     31 H201       -3.8000   -1.7730    1.4290 h1        1 LDT      0.049700
     32 H202       -2.9810   -3.1530    1.4280 h1        1 LDT      0.049700
     33 H26         1.2110    1.2560    1.1370 ha        1 LDT      0.221000
     34 H28         5.4530    2.1680   -0.8840 ha        1 LDT      0.149000
     35 H29         2.1970    3.4090    1.3720 ha        1 LDT      0.156000
@<TRIPOS>BOND
     1    1    4 3   
     2    1   25 1   
     3    2    5 3   
     4    2   26 1   
     5    3    6 3   
     6    3   12 1   
     7    4    8 1   
     8    5   27 1   
     9    6    9 1   
    10    7   17 1   
    11    9   13 2   
    12    9   14 1   
    13   10   14 1   
    14   10   16 1   
    15   10   28 1   
    16   10   29 1   
    17   11   19 1   
    18   12   15 1   
    19   14   30 1   
    20   15   22 1   
    21   15   31 1   
    22   15   32 1   
    23   16   18 ar  
    24   16   19 ar  
    25   17   20 ar  
    26   17   21 ar  
    27   18   21 ar  
    28   18   33 1   
    29   19   20 ar  
    30   20   34 1   
    31   21   35 1   
    32   22   23 1   
    33   22   24 1   
@<TRIPOS>SUBSTRUCTURE
     1 LDT         1 TEMP              0 ****  ****    0 ROOT
