@<TRIPOS>MOLECULE
LDU
   20    20     1     0     0
SMALL
bcc


@<TRIPOS>ATOM
      1 O2          0.2430   -0.3940   -0.2610 oh        1 LDU     -0.593800
      2 C4          1.6290   -0.1380   -0.1470 c3        1 LDU      0.089100
      3 C3          2.0490   -0.0170    1.3390 c3        1 LDU      0.083100
      4 O1          0.9510   -0.2390    2.1950 oh        1 LDU     -0.591800
      5 C2          2.6350    1.4070    1.4850 c3        1 LDU      0.118800
      6 N           2.6990    2.0460    0.1790 n7        1 LDU     -0.809200
      7 C5          1.9600    1.2360   -0.7980 c3        1 LDU      0.122500
      8 C6          0.6840    1.9470   -1.2830 c3        1 LDU      0.154400
      9 O           0.9930    3.0970   -2.0380 oh        1 LDU     -0.602800
     10 H2          0.0660   -1.1880    0.2640 ho        1 LDU      0.418000
     11 H4          2.2040   -0.9570   -0.6570 h1        1 LDU      0.048700
     12 H3          2.7940   -0.8040    1.6270 h1        1 LDU      0.084700
     13 H5          2.6000    1.0560   -1.7100 h1        1 LDU      0.061700
     14 H1          0.2730    0.4160    1.9750 ho        1 LDU      0.416000
     15 H21C        3.6430    1.3650    1.9760 h1        1 LDU      0.058700
     16 H22C        1.9600    2.0250    2.1390 h1        1 LDU      0.058700
     17 H           3.6520    2.1510   -0.1160 hn        1 LDU      0.359800
     18 H61C        0.0180    2.2010   -0.4180 h1        1 LDU      0.057200
     19 H62C        0.1350    1.2700   -1.9920 h1        1 LDU      0.057200
     20 HA          1.4030    3.7350   -1.4410 ho        1 LDU      0.408000
@<TRIPOS>BOND
     1    1    2 1   
     2    1   10 1   
     3    2    3 1   
     4    2    7 1   
     5    2   11 1   
     6    3    4 1   
     7    3    5 1   
     8    3   12 1   
     9    4   14 1   
    10    5    6 1   
    11    5   15 1   
    12    5   16 1   
    13    6    7 1   
    14    6   17 1   
    15    7    8 1   
    16    7   13 1   
    17    8    9 1   
    18    8   18 1   
    19    8   19 1   
    20    9   20 1   
@<TRIPOS>SUBSTRUCTURE
     1 LDU         1 TEMP              0 ****  ****    0 ROOT
