@<TRIPOS>MOLECULE
LDU
   20    20     1     0     0
SMALL
bcc


@<TRIPOS>ATOM
      1 O2          0.2320   -0.3750   -0.2870 oh        1 LDU     -0.593800
      2 C4          1.6180   -0.1390   -0.1440 c3        1 LDU      0.089100
      3 C3          2.0060   -0.0190    1.3510 c3        1 LDU      0.083100
      4 O1          0.8870   -0.2220    2.1830 oh        1 LDU     -0.591800
      5 C2          2.6110    1.3970    1.5050 c3        1 LDU      0.118800
      6 N           2.7130    2.0300    0.1990 n3        1 LDU     -0.809200
      7 C5          1.9840    1.2280   -0.7910 c3        1 LDU      0.122500
      8 C6          0.7290    1.9560   -1.3060 c3        1 LDU      0.154400
      9 O           1.0720    3.0990   -2.0580 oh        1 LDU     -0.602800
     10 H2          0.0310   -1.1640    0.2360 ho        1 LDU      0.418000
     11 H4          2.1920   -0.9680   -0.6380 h1        1 LDU      0.048700
     12 H3          2.7330   -0.8160    1.6580 h1        1 LDU      0.084700
     13 H5          2.6410    1.0350   -1.6880 h1        1 LDU      0.061700
     14 H1          0.2240    0.4430    1.9460 ho        1 LDU      0.416000
     15 H21C        3.6070    1.3410    2.0190 h1        1 LDU      0.058700
     16 H22C        1.9300    2.0270    2.1430 h1        1 LDU      0.058700
     17 H           3.6730    2.1200   -0.0750 hn        1 LDU      0.359800
     18 H61C        0.1860    1.2850   -2.0250 h1        1 LDU      0.057200
     19 H62C        0.0480    2.2230   -0.4570 h1        1 LDU      0.057200
     20 HA          1.4780    3.7320   -1.4540 ho        1 LDU      0.408000
@<TRIPOS>BOND
     1    1    2 1   
     2    1   10 1   
     3    2    3 1   
     4    2    7 1   
     5    2   11 1   
     6    3    4 1   
     7    3    5 1   
     8    3   12 1   
     9    4   14 1   
    10    5    6 1   
    11    5   15 1   
    12    5   16 1   
    13    6    7 1   
    14    6   17 1   
    15    7    8 1   
    16    7   13 1   
    17    8    9 1   
    18    8   18 1   
    19    8   19 1   
    20    9   20 1   
@<TRIPOS>SUBSTRUCTURE
     1 LDU         1 TEMP              0 ****  ****    0 ROOT
