@<TRIPOS>MOLECULE
LDY
   20    20     1     0     0
SMALL
bcc


@<TRIPOS>ATOM
      1 C5          1.2340   -1.1330    0.9530 c3        1 LDY      0.104400
      2 O5         -0.0230   -1.5930    0.4680 os        1 LDY     -0.459600
      3 C1         -1.0050   -0.5670    0.4070 c3        1 LDY      0.307900
      4 C2         -0.5740    0.5740   -0.5370 c3        1 LDY      0.078100
      5 O2         -1.4800    1.6580   -0.4420 oh        1 LDY     -0.603800
      6 C3          0.8070    1.1120   -0.1260 c3        1 LDY      0.116100
      7 O3          0.7500    1.7890    1.1180 oh        1 LDY     -0.601800
      8 C4          1.8110   -0.0430    0.0470 c3        1 LDY      0.111100
      9 O4          2.1870   -0.5560   -1.2150 oh        1 LDY     -0.586800
     10 O1         -2.1120   -1.2170   -0.1670 oh        1 LDY     -0.611800
     11 H5          1.1210   -0.7340    1.9950 h1        1 LDY      0.073700
     12 H5A         1.8820   -2.0490    0.9400 h1        1 LDY      0.073700
     13 H1         -1.2470   -0.1770    1.4350 h2        1 LDY      0.062700
     14 H2         -0.5360    0.1910   -1.5940 h1        1 LDY      0.064700
     15 HO2        -2.3560    1.3030   -0.6440 ho        1 LDY      0.428000
     16 H3          1.1730    1.8150   -0.9250 h1        1 LDY      0.067700
     17 HO3         0.0650    2.4660    1.0330 ho        1 LDY      0.428000
     18 H4          2.7640    0.3590    0.4920 h1        1 LDY      0.102700
     19 HO4         1.4340   -1.0580   -1.5560 ho        1 LDY      0.409000
     20 HO1        -2.0910   -2.1440    0.1090 ho        1 LDY      0.436000
@<TRIPOS>BOND
     1    1    2 1   
     2    1    8 1   
     3    1   11 1   
     4    1   12 1   
     5    2    3 1   
     6    3    4 1   
     7    3   10 1   
     8    3   13 1   
     9    4    5 1   
    10    4    6 1   
    11    4   14 1   
    12    5   15 1   
    13    6    7 1   
    14    6    8 1   
    15    6   16 1   
    16    7   17 1   
    17    8    9 1   
    18    8   18 1   
    19    9   19 1   
    20   10   20 1   
@<TRIPOS>SUBSTRUCTURE
     1 LDY         1 TEMP              0 ****  ****    0 ROOT
