@<TRIPOS>MOLECULE
LDZ
   78    78     1     0     0
SMALL
bcc


@<TRIPOS>ATOM
      1 C4         -0.8430    0.6450    2.1020 ca        1 LDZ     -0.062500
      2 C5          0.1740    1.4820    1.6560 ca        1 LDZ     -0.131000
      3 C6          1.3270    0.9390    1.0770 ca        1 LDZ     -0.030000
      4 C1          1.4590   -0.4470    0.9430 ca        1 LDZ     -0.131000
      5 C2          0.4470   -1.2910    1.3870 ca        1 LDZ     -0.062500
      6 C3         -0.7100   -0.7520    1.9820 ca        1 LDZ     -0.197300
      7 C7         -1.7360   -1.6350    2.5210 c3        1 LDZ      0.266700
      8 O8         -2.6800   -1.8470    1.3030 os        1 LDZ     -0.390900
      9 C9         -3.7630   -2.5510    1.4640 c         1 LDZ      0.660100
     10 O31        -4.2310   -3.1050    2.4620 o         1 LDZ     -0.564000
     11 N10        -4.5540   -2.6770    0.1600 n4        1 LDZ     -0.674800
     12 C11        -5.9820   -3.0580    0.4220 c3        1 LDZ      0.084500
     13 C12        -6.0260   -4.4460    1.0870 c         1 LDZ      0.540100
     14 O32        -5.4910   -5.4470    0.6440 o         1 LDZ     -0.375100
     15 C30        -6.8100   -3.1050   -0.8730 c3        1 LDZ     -0.119400
     16 C31        -8.2880   -3.3470   -0.5920 c3        1 LDZ     -0.065700
     17 C32        -8.9040   -2.2380    0.2330 c3        1 LDZ     -0.109100
     18 C33        -9.0160   -3.4800   -1.9190 c3        1 LDZ     -0.109100
     19 N13        -6.7740   -4.5410    2.3910 n4        1 LDZ     -0.668800
     20 C14        -6.9230   -5.9420    2.9380 c3        1 LDZ      0.086500
     21 C15        -8.1030   -6.6350    2.2300 c         1 LDZ      0.530100
     22 O34        -8.3380   -6.4780    1.0370 o         1 LDZ     -0.407100
     23 C24        -7.0270   -5.9470    4.4670 c3        1 LDZ     -0.128400
     24 C25        -5.8890   -5.2310    5.1930 c3        1 LDZ     -0.072700
     25 C26        -6.0220   -5.5080    6.6820 c3        1 LDZ     -0.112100
     26 C27        -4.5290   -5.6730    4.6990 c3        1 LDZ     -0.112100
     27 N16        -8.9870   -7.5730    2.9790 n4        1 LDZ     -0.655800
     28 C17       -10.4440   -7.1360    2.9520 c3        1 LDZ     -0.006500
     29 C22       -10.6170   -5.6320    3.1350 c         1 LDZ      0.619900
     30 C18       -11.2650   -7.8990    3.9940 c3        1 LDZ     -0.115400
     31 C19       -11.1680   -9.4150    3.8800 c3        1 LDZ     -0.076700
     32 C20       -12.1320  -10.0400    4.8750 c3        1 LDZ     -0.108600
     33 C21       -11.4760   -9.9080    2.4820 c3        1 LDZ     -0.108600
     34 O33        -9.6490   -4.8720    3.0270 o         1 LDZ     -0.601100
     35 H3         -1.7430    1.0750    2.5670 ha        1 LDZ      0.140000
     36 H4          0.0780    2.5750    1.7660 ha        1 LDZ      0.173000
     37 H5          2.1350    1.6060    0.7300 ha        1 LDZ      0.177000
     38 H1          2.3730   -0.8700    0.4920 ha        1 LDZ      0.173000
     39 H2          0.5600   -2.3820    1.2890 ha        1 LDZ      0.140000
     40 H6         -2.3930   -1.1860    3.3040 h1        1 LDZ      0.089700
     41 H7         -1.3930   -2.6670    2.7750 h1        1 LDZ      0.089700
     42 H8         -4.0950   -3.3790   -0.4400 hn        1 LDZ      0.496800
     43 H9         -6.4090   -2.2610    1.1090 hx        1 LDZ      0.144700
     44 H34        -6.4210   -3.9170   -1.5470 hc        1 LDZ      0.109700
     45 H35        -6.7060   -2.1230   -1.4140 hc        1 LDZ      0.109700
     46 H36        -8.3890   -4.3240   -0.0350 hc        1 LDZ      0.019700
     47 H37       -10.0160   -2.3600    0.2690 hc        1 LDZ      0.062700
     48 H38        -8.5220   -2.2510    1.2840 hc        1 LDZ      0.062700
     49 H39        -8.6910   -1.2370   -0.2160 hc        1 LDZ      0.062700
     50 H40       -10.0950   -3.7090   -1.7380 hc        1 LDZ      0.062700
     51 H41        -8.5760   -4.3030   -2.5320 hc        1 LDZ      0.062700
     52 H42        -8.9550   -2.5270   -2.4990 hc        1 LDZ      0.062700
     53 H10        -6.2260   -3.9930    3.0890 hn        1 LDZ      0.507300
     54 H11        -5.9860   -6.5270    2.6400 hx        1 LDZ      0.176700
     55 H25        -8.0040   -5.4930    4.7890 hc        1 LDZ      0.091700
     56 H26        -6.9870   -7.0220    4.8010 hc        1 LDZ      0.091700
     57 H27        -5.9930   -4.1170    5.0530 hc        1 LDZ      0.047700
     58 H28        -7.0360   -5.2210    7.0500 hc        1 LDZ      0.063867
     59 H29        -5.8460   -6.5880    6.9030 hc        1 LDZ      0.063867
     60 H30        -5.2630   -4.9100    7.2450 hc        1 LDZ      0.063867
     61 H31        -4.4420   -6.7870    4.6970 hc        1 LDZ      0.063867
     62 H32        -4.3250   -5.2870    3.6700 hc        1 LDZ      0.063867
     63 H33        -3.7330   -5.2730    5.3780 hc        1 LDZ      0.063867
     64 H12        -8.6930   -7.6670    3.9600 hn        1 LDZ      0.489800
     65 H13       -10.8380   -7.3940    1.9130 hx        1 LDZ      0.164700
     66 H23       -11.6580   -5.2930    3.3380 h4        1 LDZ      0.117200
     67 H14       -12.3410   -7.5960    3.8400 hc        1 LDZ      0.103200
     68 H15       -10.9730   -7.5810    5.0310 hc        1 LDZ      0.103200
     69 H16       -10.1270   -9.7420    4.1640 hc        1 LDZ      0.026700
     70 H17       -13.1890   -9.7980    4.6070 hc        1 LDZ      0.062367
     71 H18       -11.9280   -9.6690    5.9090 hc        1 LDZ      0.062367
     72 H19       -12.0150  -11.1520    4.8690 hc        1 LDZ      0.062367
     73 H20       -10.6870   -9.5950    1.7540 hc        1 LDZ      0.062367
     74 H21       -12.4640   -9.5230    2.1300 hc        1 LDZ      0.062367
     75 H22       -11.5250  -11.0270    2.4760 hc        1 LDZ      0.062367
     76 H102       -4.5300   -1.7720   -0.3400 hn        1 LDZ      0.496800
     77 H132       -7.7090   -4.1070    2.2850 hn        1 LDZ      0.507300
     78 H162       -8.9500   -8.5120    2.5370 hn        1 LDZ      0.489800
@<TRIPOS>BOND
     1    1    2 ar  
     2    1    6 ar  
     3    1   35 1   
     4    2    3 ar  
     5    2   36 1   
     6    3    4 ar  
     7    3   37 1   
     8    4    5 ar  
     9    4   38 1   
    10    5    6 ar  
    11    5   39 1   
    12    6    7 1   
    13    7    8 1   
    14    7   40 1   
    15    7   41 1   
    16    8    9 1   
    17    9   10 2   
    18    9   11 1   
    19   11   12 1   
    20   11   42 1   
    21   11   76 1   
    22   12   13 1   
    23   12   15 1   
    24   12   43 1   
    25   13   14 2   
    26   13   19 1   
    27   15   16 1   
    28   15   44 1   
    29   15   45 1   
    30   16   17 1   
    31   16   18 1   
    32   16   46 1   
    33   17   47 1   
    34   17   48 1   
    35   17   49 1   
    36   18   50 1   
    37   18   51 1   
    38   18   52 1   
    39   19   20 1   
    40   19   53 1   
    41   19   77 1   
    42   20   21 1   
    43   20   23 1   
    44   20   54 1   
    45   21   22 2   
    46   21   27 1   
    47   23   24 1   
    48   23   55 1   
    49   23   56 1   
    50   24   25 1   
    51   24   26 1   
    52   24   57 1   
    53   25   58 1   
    54   25   59 1   
    55   25   60 1   
    56   26   61 1   
    57   26   62 1   
    58   26   63 1   
    59   27   28 1   
    60   27   64 1   
    61   27   78 1   
    62   28   29 1   
    63   28   30 1   
    64   28   65 1   
    65   29   34 2   
    66   29   66 1   
    67   30   31 1   
    68   30   67 1   
    69   30   68 1   
    70   31   32 1   
    71   31   33 1   
    72   31   69 1   
    73   32   70 1   
    74   32   71 1   
    75   32   72 1   
    76   33   73 1   
    77   33   74 1   
    78   33   75 1   
@<TRIPOS>SUBSTRUCTURE
     1 LDZ         1 TEMP              0 ****  ****    0 ROOT
