@<TRIPOS>MOLECULE
LDZ
   75    71     1     0     0
SMALL
bcc


@<TRIPOS>ATOM
      1 C4          6.4980    4.5460   -2.0710 c1        1 LDZ     -0.102000
      2 C5          7.8690    4.7610   -2.1020 c1        1 LDZ     -0.125250
      3 C6          8.4930    5.4390   -1.0600 c1        1 LDZ     -0.125250
      4 C1          7.7460    5.9030    0.0140 c1        1 LDZ     -0.125250
      5 C2          6.3690    5.6890    0.0490 c1        1 LDZ     -0.125250
      6 C3          5.7450    5.0120   -0.9920 c1        1 LDZ     -0.093000
      7 C7          4.2060    4.8080   -0.9760 c2        1 LDZ      0.040000
      8 O8          3.9120    3.4260   -0.7870 os        1 LDZ     -0.271000
      9 C9          2.5370    3.1230   -0.8340 c2        1 LDZ      0.395000
     10 O31         1.7090    4.0340   -0.8890 o         1 LDZ     -0.419000
     11 N10         2.0930    1.7470   -0.7030 n         1 LDZ     -0.346000
     12 C11         0.8360    1.3500   -1.2370 c3        1 LDZ      0.024000
     13 C12         0.4040    0.0390   -0.5940 c2        1 LDZ      0.273000
     14 O32         0.7590   -1.0260   -1.0810 o         1 LDZ     -0.389000
     15 C30         0.9580    1.1650   -2.7500 c3        1 LDZ     -0.160000
     16 C31        -0.3240    1.7270   -3.4500 c3        1 LDZ     -0.105000
     17 C32        -0.0380    3.1690   -3.9780 c3        1 LDZ     -0.210500
     18 C33        -0.7130    0.8030   -4.6450 c3        1 LDZ     -0.210500
     19 N13        -0.5390    0.0520    0.5610 n         1 LDZ     -0.364000
     20 C14        -0.9010   -1.1520    1.1860 c3        1 LDZ      0.013000
     21 C15        -2.2980   -1.5740    0.7150 c2        1 LDZ      0.284000
     22 O34        -2.9360   -0.8470   -0.0430 o         1 LDZ     -0.380000
     23 C24        -0.9140   -0.9560    2.7100 c3        1 LDZ     -0.159000
     24 C25         0.4860   -1.2360    3.2770 c3        1 LDZ     -0.113000
     25 C26         0.8020   -0.2160    4.4000 c3        1 LDZ     -0.210000
     26 C27         0.5270   -2.6320    3.8410 c3        1 LDZ     -0.210000
     27 N16        -2.8380   -2.8420    1.1180 n         1 LDZ     -0.371000
     28 C17        -4.1520   -3.1930    0.7530 c3        1 LDZ     -0.031000
     29 C22        -5.0890   -2.0550    1.0900 c2        1 LDZ      0.180000
     30 C18        -4.5820   -4.4550    1.5250 c3        1 LDZ     -0.179000
     31 C19        -5.4070   -5.3820    0.5890 c3        1 LDZ     -0.110000
     32 C20        -5.1980   -6.8310    0.9980 c3        1 LDZ     -0.209000
     33 C21        -6.8700   -5.0360    0.7010 c3        1 LDZ     -0.209000
     34 O33        -5.6170   -1.4040    0.1860 o         1 LDZ     -0.291000
     35 H3          6.0580    4.0670   -2.8080 ha        1 LDZ      0.142000
     36 H4          8.4000    4.4330   -2.8630 ha        1 LDZ      0.134000
     37 H5          9.4560    5.5890   -1.0830 ha        1 LDZ      0.134000
     38 H1          8.1870    6.3790    0.7460 ha        1 LDZ      0.134000
     39 H2          5.8350    6.0210    0.8190 ha        1 LDZ      0.134000
     40 H6          3.8180    5.1160   -1.8510 h4        1 LDZ      0.105000
     41 H7          3.8080    5.3370   -0.2310 h4        1 LDZ      0.105000
     42 H8          2.6090    1.1360   -0.2300 hn        1 LDZ      0.250000
     43 H9          0.1880    2.0220   -1.0520 h1        1 LDZ      0.133000
     44 H34         1.7560    1.6550   -3.0800 hc        1 LDZ      0.105000
     45 H35         1.0520    0.2100   -2.9560 hc        1 LDZ      0.105000
     46 H36        -1.0660    1.7550   -2.8020 hc        1 LDZ      0.097000
     47 H37         0.8220    3.1800   -4.4520 hc        1 LDZ      0.077333
     48 H38        -0.0030    3.7940   -3.2190 hc        1 LDZ      0.077333
     49 H39        -0.7740    3.4480   -4.6100 hc        1 LDZ      0.077333
     50 H40        -0.9570   -0.0900   -4.3050 hc        1 LDZ      0.077333
     51 H41        -1.4790    1.1930   -5.1240 hc        1 LDZ      0.077333
     52 H42         0.0510    0.7220   -5.2600 hc        1 LDZ      0.077333
     53 H10        -0.8610    0.8520    0.8820 hn        1 LDZ      0.262000
     54 H11        -0.2510   -1.8520    0.9500 h1        1 LDZ      0.123000
     55 H25        -1.1680   -0.0460    2.9160 hc        1 LDZ      0.108500
     56 H26        -1.5570   -1.5730    3.1130 hc        1 LDZ      0.108500
     57 H27         1.1520   -1.1520    2.5610 hc        1 LDZ      0.095000
     58 H28         0.9510    0.6740    4.0040 hc        1 LDZ      0.075167
     59 H29         1.6170   -0.5010    4.8860 hc        1 LDZ      0.075167
     60 H30         0.0350   -0.1730    5.0350 hc        1 LDZ      0.075167
     61 H31        -0.2630   -2.7770    4.4190 hc        1 LDZ      0.075167
     62 H32         0.5190   -3.2860    3.1030 hc        1 LDZ      0.075167
     63 H33         1.3540   -2.7490    4.3760 hc        1 LDZ      0.075167
     64 H12        -2.3030   -3.4530    1.5090 hn        1 LDZ      0.256000
     65 H13        -4.1860   -3.3690   -0.2020 h1        1 LDZ      0.115000
     66 H23        -5.2540   -1.8120    2.0410 h4        1 LDZ      0.129000
     67 H14        -3.7920   -4.9290    1.8380 hc        1 LDZ      0.100000
     68 H15        -5.1420   -4.1900    2.3090 hc        1 LDZ      0.100000
     69 H16        -5.1090   -5.2570   -0.3440 hc        1 LDZ      0.094000
     70 H17        -4.2550   -7.0620    0.9020 hc        1 LDZ      0.075333
     71 H18        -5.7450   -7.4210    0.4170 hc        1 LDZ      0.075333
     72 H19        -5.4730   -6.9500    1.9430 hc        1 LDZ      0.075333
     73 H20        -7.0930   -4.3520    0.0460 hc        1 LDZ      0.075333
     74 H21        -7.0590   -4.6990    1.6050 hc        1 LDZ      0.075333
     75 H22        -7.4120   -5.8420    0.5300 hc        1 LDZ      0.075333
@<TRIPOS>BOND
     1    1    6 1   
     2    1   35 1   
     3    2    3 1   
     4    2   36 1   
     5    3   37 1   
     6    4    5 1   
     7    4   38 1   
     8    5   39 1   
     9    7    8 1   
    10    7   40 1   
    11    7   41 1   
    12    8    9 1   
    13    9   10 1   
    14    9   11 1   
    15   11   12 1   
    16   11   42 1   
    17   12   13 1   
    18   12   15 1   
    19   12   43 1   
    20   13   14 1   
    21   13   19 1   
    22   15   16 1   
    23   15   44 1   
    24   15   45 1   
    25   16   17 1   
    26   16   18 1   
    27   16   46 1   
    28   17   47 1   
    29   17   48 1   
    30   17   49 1   
    31   18   50 1   
    32   18   51 1   
    33   18   52 1   
    34   19   20 1   
    35   19   53 1   
    36   20   21 1   
    37   20   23 1   
    38   20   54 1   
    39   21   22 1   
    40   21   27 1   
    41   23   24 1   
    42   23   55 1   
    43   23   56 1   
    44   24   25 1   
    45   24   26 1   
    46   24   57 1   
    47   25   58 1   
    48   25   59 1   
    49   25   60 1   
    50   26   61 1   
    51   26   62 1   
    52   26   63 1   
    53   27   28 1   
    54   27   64 1   
    55   28   29 1   
    56   28   30 1   
    57   28   65 1   
    58   29   34 1   
    59   29   66 1   
    60   30   31 1   
    61   30   67 1   
    62   30   68 1   
    63   31   32 1   
    64   31   33 1   
    65   31   69 1   
    66   32   70 1   
    67   32   71 1   
    68   32   72 1   
    69   33   73 1   
    70   33   74 1   
    71   33   75 1   
@<TRIPOS>SUBSTRUCTURE
     1 LDZ         1 TEMP              0 ****  ****    0 ROOT
