@<TRIPOS>MOLECULE
LDZ
   75    75     1     0     0
SMALL
bcc


@<TRIPOS>ATOM
      1 C4         -6.7360   -0.1740    1.3020 ca        1 LDZ     -0.111000
      2 C5         -7.8330   -0.7610    1.9320 ca        1 LDZ     -0.131500
      3 C6         -8.6470   -1.6520    1.2340 ca        1 LDZ     -0.124000
      4 C1         -8.3600   -1.9610   -0.0970 ca        1 LDZ     -0.131500
      5 C2         -7.2610   -1.3830   -0.7280 ca        1 LDZ     -0.111000
      6 C3         -6.4470   -0.4820   -0.0310 ca        1 LDZ     -0.097300
      7 C7         -5.3050    0.1570   -0.7450 c3        1 LDZ      0.196700
      8 O8         -4.2510    0.3650    0.2180 os        1 LDZ     -0.436900
      9 C9         -3.1100    0.9460   -0.2950 c         1 LDZ      0.730100
     10 O31        -3.0460    1.1770   -1.5140 o         1 LDZ     -0.587000
     11 N10        -2.1840    1.2640    0.6860 n         1 LDZ     -0.509900
     12 C11        -0.8200    1.5480    0.2930 c3        1 LDZ      0.037700
     13 C12         0.0710    0.2870    0.4660 c         1 LDZ      0.628100
     14 O32         0.0230   -0.3820    1.5190 o         1 LDZ     -0.616100
     15 C30        -0.2030    2.6670    1.1530 c3        1 LDZ     -0.085400
     16 C31         0.9930    3.3150    0.4700 c3        1 LDZ     -0.072700
     17 C32         0.5560    4.2870   -0.6060 c3        1 LDZ     -0.092100
     18 C33         1.8400    4.0320    1.5040 c3        1 LDZ     -0.092100
     19 N13         0.8670   -0.0800   -0.5960 n         1 LDZ     -0.538900
     20 C14         1.8460   -1.1320   -0.4920 c3        1 LDZ      0.034700
     21 C15         3.2840   -0.5670   -0.6500 c         1 LDZ      0.637100
     22 O34         3.5110    0.4750   -1.2980 o         1 LDZ     -0.622100
     23 C24         1.6880   -2.2300   -1.5560 c3        1 LDZ     -0.084400
     24 C25         0.3440   -2.9400   -1.5020 c3        1 LDZ     -0.064700
     25 C26         0.2920   -3.9930   -2.5920 c3        1 LDZ     -0.097600
     26 C27         0.0910   -3.5700   -0.1490 c3        1 LDZ     -0.097600
     27 N16         4.2930   -1.2660   -0.0250 n         1 LDZ     -0.547900
     28 C17         5.6860   -0.9440   -0.2140 c3        1 LDZ     -0.019300
     29 C22         6.4970   -2.0910   -0.8090 c         1 LDZ      0.548900
     30 C18         6.4040   -0.5200    1.0800 c3        1 LDZ     -0.078400
     31 C19         5.8400    0.7450    1.7060 c3        1 LDZ     -0.063700
     32 C20         6.5810    1.0400    2.9950 c3        1 LDZ     -0.097600
     33 C21         5.9270    1.9290    0.7660 c3        1 LDZ     -0.097600
     34 O33         6.0890   -3.2460   -0.9180 o         1 LDZ     -0.522100
     35 H3         -6.0870    0.5250    1.8500 ha        1 LDZ      0.138500
     36 H4         -8.0550   -0.5190    2.9820 ha        1 LDZ      0.133000
     37 H5         -9.5140   -2.1120    1.7300 ha        1 LDZ      0.132000
     38 H1         -9.0010   -2.6650   -0.6480 ha        1 LDZ      0.133000
     39 H2         -7.0330   -1.6330   -1.7750 ha        1 LDZ      0.138500
     40 H6         -4.9100   -0.4920   -1.5710 h1        1 LDZ      0.064700
     41 H7         -5.6010    1.1550   -1.1680 h1        1 LDZ      0.064700
     42 H8         -2.3020    0.8330    1.5780 hn        1 LDZ      0.332500
     43 H9         -0.8360    1.8810   -0.7890 h1        1 LDZ      0.103700
     44 H34        -0.9760    3.4540    1.3580 hc        1 LDZ      0.065200
     45 H35         0.1090    2.2350    2.1410 hc        1 LDZ      0.065200
     46 H36         1.6270    2.5150   -0.0070 hc        1 LDZ      0.055700
     47 H37        -0.0480    5.1170   -0.1640 hc        1 LDZ      0.037533
     48 H38         1.4500    4.7300   -1.1080 hc        1 LDZ      0.037533
     49 H39        -0.0640    3.7740   -1.3790 hc        1 LDZ      0.037533
     50 H40         2.2240    3.3110    2.2640 hc        1 LDZ      0.037533
     51 H41         2.7120    4.5250    1.0100 hc        1 LDZ      0.037533
     52 H42         1.2400    4.8140    2.0280 hc        1 LDZ      0.037533
     53 H10         0.9730    0.5420   -1.3670 hn        1 LDZ      0.330500
     54 H11         1.7390   -1.6040    0.5340 h1        1 LDZ      0.106700
     55 H25         1.8270   -1.7850   -2.5770 hc        1 LDZ      0.055700
     56 H26         2.5070   -2.9810   -1.3960 hc        1 LDZ      0.055700
     57 H27        -0.4710   -2.1880   -1.7020 hc        1 LDZ      0.058700
     58 H28         1.0720   -4.7740   -2.4220 hc        1 LDZ      0.038200
     59 H29        -0.7080   -4.4890   -2.6000 hc        1 LDZ      0.038200
     60 H30         0.4670   -3.5300   -3.5930 hc        1 LDZ      0.038200
     61 H31         0.9460   -4.2230    0.1500 hc        1 LDZ      0.038200
     62 H32        -0.0510   -2.7820    0.6320 hc        1 LDZ      0.038200
     63 H33        -0.8340   -4.1960   -0.1850 hc        1 LDZ      0.038200
     64 H12         4.0930   -2.1490    0.3870 hn        1 LDZ      0.323500
     65 H13         5.7470   -0.0810   -0.9510 h1        1 LDZ      0.110700
     66 H23         7.5180   -1.7920   -1.1370 h4        1 LDZ      0.007200
     67 H14         6.3510   -1.3530    1.8280 hc        1 LDZ      0.048700
     68 H15         7.4860   -0.3540    0.8290 hc        1 LDZ      0.048700
     69 H16         4.7550    0.5710    1.9560 hc        1 LDZ      0.057700
     70 H17         6.1450    1.9390    3.4930 hc        1 LDZ      0.038033
     71 H18         6.5060    0.1750    3.6970 hc        1 LDZ      0.038033
     72 H19         7.6610    1.2380    2.7920 hc        1 LDZ      0.038033
     73 H20         5.2240    1.7990   -0.0950 hc        1 LDZ      0.038033
     74 H21         5.6490    2.8670    1.3050 hc        1 LDZ      0.038033
     75 H22         6.9650    2.0450    0.3710 hc        1 LDZ      0.038033
@<TRIPOS>BOND
     1    1    2 ar  
     2    1    6 ar  
     3    1   35 1   
     4    2    3 ar  
     5    2   36 1   
     6    3    4 ar  
     7    3   37 1   
     8    4    5 ar  
     9    4   38 1   
    10    5    6 ar  
    11    5   39 1   
    12    6    7 1   
    13    7    8 1   
    14    7   40 1   
    15    7   41 1   
    16    8    9 1   
    17    9   10 2   
    18    9   11 1   
    19   11   12 1   
    20   11   42 1   
    21   12   13 1   
    22   12   15 1   
    23   12   43 1   
    24   13   14 2   
    25   13   19 1   
    26   15   16 1   
    27   15   44 1   
    28   15   45 1   
    29   16   17 1   
    30   16   18 1   
    31   16   46 1   
    32   17   47 1   
    33   17   48 1   
    34   17   49 1   
    35   18   50 1   
    36   18   51 1   
    37   18   52 1   
    38   19   20 1   
    39   19   53 1   
    40   20   21 1   
    41   20   23 1   
    42   20   54 1   
    43   21   22 2   
    44   21   27 1   
    45   23   24 1   
    46   23   55 1   
    47   23   56 1   
    48   24   25 1   
    49   24   26 1   
    50   24   57 1   
    51   25   58 1   
    52   25   59 1   
    53   25   60 1   
    54   26   61 1   
    55   26   62 1   
    56   26   63 1   
    57   27   28 1   
    58   27   64 1   
    59   28   29 1   
    60   28   30 1   
    61   28   65 1   
    62   29   34 2   
    63   29   66 1   
    64   30   31 1   
    65   30   67 1   
    66   30   68 1   
    67   31   32 1   
    68   31   33 1   
    69   31   69 1   
    70   32   70 1   
    71   32   71 1   
    72   32   72 1   
    73   33   73 1   
    74   33   74 1   
    75   33   75 1   
@<TRIPOS>SUBSTRUCTURE
     1 LDZ         1 TEMP              0 ****  ****    0 ROOT
