@<TRIPOS>MOLECULE
LDZ
   78    78     1     0     0
SMALL
bcc


@<TRIPOS>ATOM
      1 C4         -1.4290    1.0470    2.6880 ca        1 LDZ     -0.062500
      2 C5         -0.4450    1.9820    2.3890 ca        1 LDZ     -0.131000
      3 C6          0.8200    1.5600    1.9660 ca        1 LDZ     -0.030000
      4 C1          1.0990    0.1950    1.8400 ca        1 LDZ     -0.131000
      5 C2          0.1210   -0.7470    2.1370 ca        1 LDZ     -0.062500
      6 C3         -1.1500   -0.3290    2.5760 ca        1 LDZ     -0.197300
      7 C7         -2.1520   -1.3130    2.9650 c3        1 LDZ      0.266700
      8 O8         -2.9000   -1.5870    1.6300 os        1 LDZ     -0.390900
      9 C9         -3.9230   -2.3920    1.6370 c         1 LDZ      0.660100
     10 O31        -4.4630   -3.0090    2.5590 o         1 LDZ     -0.565000
     11 N10        -4.5190   -2.5580    0.2380 ny        1 LDZ     -0.674800
     12 C11        -5.9270   -3.0740    0.3010 c3        1 LDZ      0.083500
     13 C12        -5.9270   -4.4910    0.9030 c         1 LDZ      0.538100
     14 O32        -5.2730   -5.4260    0.4760 o         1 LDZ     -0.371100
     15 C30        -6.5820   -3.1380   -1.0890 c3        1 LDZ     -0.120400
     16 C31        -8.0520   -3.5330   -1.0020 c3        1 LDZ     -0.065700
     17 C32        -8.8750   -2.5100   -0.2490 c3        1 LDZ     -0.109600
     18 C33        -8.5910   -3.7050   -2.4120 c3        1 LDZ     -0.109600
     19 N13        -6.8000   -4.6990    2.1130 ny        1 LDZ     -0.665800
     20 C14        -6.9650   -6.1400    2.5460 c3        1 LDZ      0.079500
     21 C15        -8.3660   -6.6250    2.1270 c         1 LDZ      0.526100
     22 O34        -8.8310   -6.3770    1.0200 o         1 LDZ     -0.403100
     23 C24        -6.6380   -6.3300    4.0300 c3        1 LDZ     -0.128400
     24 C25        -5.2040   -5.9550    4.4040 c3        1 LDZ     -0.071700
     25 C26        -5.0240   -6.1810    5.8960 c3        1 LDZ     -0.112100
     26 C27        -4.1920   -6.7680    3.6260 c3        1 LDZ     -0.112100
     27 N16        -9.1930   -7.4550    3.0460 ny        1 LDZ     -0.654800
     28 C17       -10.5490   -6.8260    3.3270 c3        1 LDZ     -0.006500
     29 C22       -10.4620   -5.3250    3.5800 c         1 LDZ      0.621900
     30 C18       -11.2470   -7.5260    4.4970 c3        1 LDZ     -0.115400
     31 C19       -11.3930   -9.0330    4.3270 c3        1 LDZ     -0.076700
     32 C20       -12.2210   -9.5720    5.4810 c3        1 LDZ     -0.108600
     33 C21       -12.0360   -9.4040    3.0080 c3        1 LDZ     -0.108600
     34 O33        -9.4360   -4.6990    3.2940 o         1 LDZ     -0.606100
     35 H3         -2.4190    1.3830    3.0310 ha        1 LDZ      0.140000
     36 H4         -0.6570    3.0600    2.4930 ha        1 LDZ      0.173000
     37 H5          1.6010    2.3060    1.7350 ha        1 LDZ      0.177000
     38 H1          2.1000   -0.1330    1.5120 ha        1 LDZ      0.173000
     39 H2          0.3470   -1.8210    2.0470 ha        1 LDZ      0.140000
     40 H6         -1.7500   -2.3140    3.2560 h1        1 LDZ      0.089200
     41 H7         -2.9460   -0.9420    3.6560 h1        1 LDZ      0.089200
     42 H8         -4.5150   -1.6420   -0.2420 hn        1 LDZ      0.496800
     43 H9         -6.5080   -2.3490    0.9530 hx        1 LDZ      0.144700
     44 H34        -6.0350   -3.8760   -1.7380 hc        1 LDZ      0.110700
     45 H35        -6.5130   -2.1260   -1.5780 hc        1 LDZ      0.110700
     46 H36        -8.1260   -4.5280   -0.4730 hc        1 LDZ      0.020700
     47 H37        -8.6180   -2.5010    0.8390 hc        1 LDZ      0.063033
     48 H38        -9.9640   -2.7490   -0.3470 hc        1 LDZ      0.063033
     49 H39        -8.7190   -1.4840   -0.6650 hc        1 LDZ      0.063033
     50 H40        -9.6550   -4.0450   -2.3720 hc        1 LDZ      0.063033
     51 H41        -8.5540   -2.7370   -2.9690 hc        1 LDZ      0.063033
     52 H42        -7.9980   -4.4660   -2.9740 hc        1 LDZ      0.063033
     53 H10        -6.3560   -4.1760    2.8970 hn        1 LDZ      0.504300
     54 H11        -6.2300   -6.7810    1.9440 hx        1 LDZ      0.183700
     55 H25        -6.7460   -7.4250    4.2700 hc        1 LDZ      0.090700
     56 H26        -7.3540   -5.7410    4.6650 hc        1 LDZ      0.090700
     57 H27        -5.0240   -4.8590    4.2040 hc        1 LDZ      0.046700
     58 H28        -5.1400   -7.2630    6.1510 hc        1 LDZ      0.063867
     59 H29        -5.7670   -5.5880    6.4820 hc        1 LDZ      0.063867
     60 H30        -3.9970   -5.8610    6.2040 hc        1 LDZ      0.063867
     61 H31        -4.2150   -6.5110    2.5390 hc        1 LDZ      0.063867
     62 H32        -4.3780   -7.8640    3.7440 hc        1 LDZ      0.063867
     63 H33        -3.1620   -6.5580    4.0110 hc        1 LDZ      0.063867
     64 H12        -9.3790   -8.3780    2.6080 hn        1 LDZ      0.490300
     65 H13       -11.1740   -6.9710    2.3840 hx        1 LDZ      0.165700
     66 H23       -11.3800   -4.8570    4.0030 h4        1 LDZ      0.118200
     67 H14       -10.7120   -7.3060    5.4590 hc        1 LDZ      0.103200
     68 H15       -12.2770   -7.0720    4.5720 hc        1 LDZ      0.103200
     69 H16       -10.3740   -9.5120    4.3870 hc        1 LDZ      0.026700
     70 H17       -13.2650   -9.1770    5.4380 hc        1 LDZ      0.062367
     71 H18       -11.7670   -9.2870    6.4600 hc        1 LDZ      0.062367
     72 H19       -12.2680  -10.6880    5.4240 hc        1 LDZ      0.062367
     73 H20       -11.3700   -9.1630    2.1440 hc        1 LDZ      0.062367
     74 H21       -12.2460  -10.5040    2.9850 hc        1 LDZ      0.062367
     75 H22       -13.0090   -8.8710    2.8730 hc        1 LDZ      0.062367
     76 H102       -3.9210   -3.1980   -0.3060 hn        1 LDZ      0.496800
     77 H132       -7.7290   -4.2750    1.9320 hn        1 LDZ      0.504300
     78 H162       -8.7160   -7.6140    3.9430 hn        1 LDZ      0.490300
@<TRIPOS>BOND
     1    1    2 ar  
     2    1    6 ar  
     3    1   35 1   
     4    2    3 ar  
     5    2   36 1   
     6    3    4 ar  
     7    3   37 1   
     8    4    5 ar  
     9    4   38 1   
    10    5    6 ar  
    11    5   39 1   
    12    6    7 1   
    13    7    8 1   
    14    7   40 1   
    15    7   41 1   
    16    8    9 1   
    17    9   10 2   
    18    9   11 1   
    19   11   12 1   
    20   11   42 1   
    21   11   76 1   
    22   12   13 1   
    23   12   15 1   
    24   12   43 1   
    25   13   14 2   
    26   13   19 1   
    27   15   16 1   
    28   15   44 1   
    29   15   45 1   
    30   16   17 1   
    31   16   18 1   
    32   16   46 1   
    33   17   47 1   
    34   17   48 1   
    35   17   49 1   
    36   18   50 1   
    37   18   51 1   
    38   18   52 1   
    39   19   20 1   
    40   19   53 1   
    41   19   77 1   
    42   20   21 1   
    43   20   23 1   
    44   20   54 1   
    45   21   22 2   
    46   21   27 1   
    47   23   24 1   
    48   23   55 1   
    49   23   56 1   
    50   24   25 1   
    51   24   26 1   
    52   24   57 1   
    53   25   58 1   
    54   25   59 1   
    55   25   60 1   
    56   26   61 1   
    57   26   62 1   
    58   26   63 1   
    59   27   28 1   
    60   27   64 1   
    61   27   78 1   
    62   28   29 1   
    63   28   30 1   
    64   28   65 1   
    65   29   34 2   
    66   29   66 1   
    67   30   31 1   
    68   30   67 1   
    69   30   68 1   
    70   31   32 1   
    71   31   33 1   
    72   31   69 1   
    73   32   70 1   
    74   32   71 1   
    75   32   72 1   
    76   33   73 1   
    77   33   74 1   
    78   33   75 1   
@<TRIPOS>SUBSTRUCTURE
     1 LDZ         1 TEMP              0 ****  ****    0 ROOT
