@<TRIPOS>MOLECULE
LDZ
   78    78     1     0     0
SMALL
bcc


@<TRIPOS>ATOM
      1 C4         -0.8510    0.6690    2.1520 ca        1 LDZ     -0.062500
      2 C5          0.1530    1.5250    1.7120 ca        1 LDZ     -0.131000
      3 C6          1.2830    1.0090    1.0690 ca        1 LDZ     -0.030000
      4 C1          1.4070   -0.3690    0.8650 ca        1 LDZ     -0.131000
      5 C2          0.4080   -1.2320    1.3030 ca        1 LDZ     -0.062500
      6 C3         -0.7260   -0.7210    1.9630 ca        1 LDZ     -0.197300
      7 C7         -1.7360   -1.6270    2.4940 c3        1 LDZ      0.266700
      8 O8         -2.7230   -1.7790    1.3020 os        1 LDZ     -0.390900
      9 C9         -3.8000   -2.4890    1.4660 c         1 LDZ      0.660100
     10 O31        -4.2330   -3.0920    2.4520 o         1 LDZ     -0.564000
     11 N10        -4.6380   -2.5510    0.1870 n4        1 LDZ     -0.674800
     12 C11        -6.0570   -2.9440    0.4810 c3        1 LDZ      0.084500
     13 C12        -6.0790   -4.3630    1.0770 c         1 LDZ      0.540100
     14 O32        -5.5630   -5.3420    0.5640 o         1 LDZ     -0.375100
     15 C30        -6.9300   -2.9260   -0.7840 c3        1 LDZ     -0.119400
     16 C31        -8.3980   -3.1810   -0.4620 c3        1 LDZ     -0.065700
     17 C32        -8.9810   -2.1140    0.4390 c3        1 LDZ     -0.109100
     18 C33        -9.1730   -3.2460   -1.7670 c3        1 LDZ     -0.109100
     19 N13        -6.7790   -4.5230    2.4010 n4        1 LDZ     -0.668800
     20 C14        -6.9120   -5.9500    2.8820 c3        1 LDZ      0.086500
     21 C15        -8.1200   -6.6050    2.1850 c         1 LDZ      0.530100
     22 O34        -8.3990   -6.3880    1.0120 o         1 LDZ     -0.407100
     23 C24        -6.9580   -6.0320    4.4120 c3        1 LDZ     -0.128400
     24 C25        -5.7900   -5.3560    5.1280 c3        1 LDZ     -0.072700
     25 C26        -5.8660   -5.7070    6.6050 c3        1 LDZ     -0.112100
     26 C27        -4.4520   -5.7740    4.5600 c3        1 LDZ     -0.112100
     27 N16        -8.9780   -7.5780    2.9200 n4        1 LDZ     -0.655800
     28 C17       -10.4340   -7.1390    2.9690 c3        1 LDZ     -0.006500
     29 C22       -10.5940   -5.6460    3.2340 c         1 LDZ      0.619900
     30 C18       -11.2170   -7.9520    4.0030 c3        1 LDZ     -0.115400
     31 C19       -11.1300   -9.4610    3.8080 c3        1 LDZ     -0.076700
     32 C20       -12.0570  -10.1330    4.8070 c3        1 LDZ     -0.108600
     33 C21       -11.4910   -9.8810    2.4000 c3        1 LDZ     -0.108600
     34 O33        -9.6290   -4.8820    3.1280 o         1 LDZ     -0.601100
     35 H3         -1.7330    1.0780    2.6690 ha        1 LDZ      0.140000
     36 H4          0.0640    2.6120    1.8770 ha        1 LDZ      0.173000
     37 H5          2.0810    1.6900    0.7260 ha        1 LDZ      0.177000
     38 H1          2.3030   -0.7720    0.3620 ha        1 LDZ      0.173000
     39 H2          0.5140   -2.3170    1.1490 ha        1 LDZ      0.140000
     40 H6         -2.3630   -1.2150    3.3210 h1        1 LDZ      0.089700
     41 H7         -1.3870   -2.6700    2.6870 h1        1 LDZ      0.089700
     42 H8         -4.2020   -3.2220   -0.4640 hn        1 LDZ      0.496800
     43 H9         -6.4560   -2.1820    1.2220 hx        1 LDZ      0.144700
     44 H34        -6.5680   -3.7030   -1.5120 hc        1 LDZ      0.109700
     45 H35        -6.8440   -1.9180   -1.2780 hc        1 LDZ      0.109700
     46 H36        -8.4810   -4.1840    0.0490 hc        1 LDZ      0.019700
     47 H37        -8.7820   -1.0920    0.0340 hc        1 LDZ      0.062700
     48 H38       -10.0920   -2.2370    0.5080 hc        1 LDZ      0.062700
     49 H39        -8.5620   -2.1810    1.4730 hc        1 LDZ      0.062700
     50 H40       -10.2450   -3.4840   -1.5590 hc        1 LDZ      0.062700
     51 H41        -9.1310   -2.2660   -2.3010 hc        1 LDZ      0.062700
     52 H42        -8.7580   -4.0380   -2.4360 hc        1 LDZ      0.062700
     53 H10        -7.7170   -4.0840    2.3510 hn        1 LDZ      0.507300
     54 H11        -5.9890   -6.5200    2.5190 hx        1 LDZ      0.176700
     55 H25        -6.9080   -7.1230    4.6890 hc        1 LDZ      0.091700
     56 H26        -7.9190   -5.5940    4.7930 hc        1 LDZ      0.091700
     57 H27        -5.8950   -4.2360    5.0490 hc        1 LDZ      0.047700
     58 H28        -6.8650   -5.4380    7.0260 hc        1 LDZ      0.063867
     59 H29        -5.0840   -5.1400    7.1680 hc        1 LDZ      0.063867
     60 H30        -5.6860   -6.7980    6.7640 hc        1 LDZ      0.063867
     61 H31        -4.2860   -5.3370    3.5450 hc        1 LDZ      0.063867
     62 H32        -4.3690   -6.8870    4.4980 hc        1 LDZ      0.063867
     63 H33        -3.6290   -5.4110    5.2280 hc        1 LDZ      0.063867
     64 H12        -8.9610   -8.4940    2.4290 hn        1 LDZ      0.489800
     65 H13       -10.8670   -7.3430    1.9340 hx        1 LDZ      0.164700
     66 H23       -11.6260   -5.3150    3.4940 h4        1 LDZ      0.117200
     67 H14       -12.2970   -7.6410    3.9040 hc        1 LDZ      0.103200
     68 H15       -10.8850   -7.6870    5.0420 hc        1 LDZ      0.103200
     69 H16       -10.0800   -9.8030    4.0350 hc        1 LDZ      0.026700
     70 H17       -13.1230   -9.8770    4.5910 hc        1 LDZ      0.062367
     71 H18       -11.8130   -9.8150    5.8490 hc        1 LDZ      0.062367
     72 H19       -11.9440  -11.2440    4.7400 hc        1 LDZ      0.062367
     73 H20       -12.4910   -9.4780    2.1050 hc        1 LDZ      0.062367
     74 H21       -10.7300   -9.5340    1.6590 hc        1 LDZ      0.062367
     75 H22       -11.5450  -10.9990    2.3390 hc        1 LDZ      0.062367
     76 H102       -4.6300   -1.6220   -0.2680 hn        1 LDZ      0.496800
     77 H132       -6.2040   -4.0110    3.1040 hn        1 LDZ      0.507300
     78 H162       -8.6480   -7.7220    3.8820 hn        1 LDZ      0.489800
@<TRIPOS>BOND
     1    1    2 ar  
     2    1    6 ar  
     3    1   35 1   
     4    2    3 ar  
     5    2   36 1   
     6    3    4 ar  
     7    3   37 1   
     8    4    5 ar  
     9    4   38 1   
    10    5    6 ar  
    11    5   39 1   
    12    6    7 1   
    13    7    8 1   
    14    7   40 1   
    15    7   41 1   
    16    8    9 1   
    17    9   10 2   
    18    9   11 1   
    19   11   12 1   
    20   11   42 1   
    21   11   76 1   
    22   12   13 1   
    23   12   15 1   
    24   12   43 1   
    25   13   14 2   
    26   13   19 1   
    27   15   16 1   
    28   15   44 1   
    29   15   45 1   
    30   16   17 1   
    31   16   18 1   
    32   16   46 1   
    33   17   47 1   
    34   17   48 1   
    35   17   49 1   
    36   18   50 1   
    37   18   51 1   
    38   18   52 1   
    39   19   20 1   
    40   19   53 1   
    41   19   77 1   
    42   20   21 1   
    43   20   23 1   
    44   20   54 1   
    45   21   22 2   
    46   21   27 1   
    47   23   24 1   
    48   23   55 1   
    49   23   56 1   
    50   24   25 1   
    51   24   26 1   
    52   24   57 1   
    53   25   58 1   
    54   25   59 1   
    55   25   60 1   
    56   26   61 1   
    57   26   62 1   
    58   26   63 1   
    59   27   28 1   
    60   27   64 1   
    61   27   78 1   
    62   28   29 1   
    63   28   30 1   
    64   28   65 1   
    65   29   34 2   
    66   29   66 1   
    67   30   31 1   
    68   30   67 1   
    69   30   68 1   
    70   31   32 1   
    71   31   33 1   
    72   31   69 1   
    73   32   70 1   
    74   32   71 1   
    75   32   72 1   
    76   33   73 1   
    77   33   74 1   
    78   33   75 1   
@<TRIPOS>SUBSTRUCTURE
     1 LDZ         1 TEMP              0 ****  ****    0 ROOT
