@<TRIPOS>MOLECULE
LE1
   19    18     1     0     0
SMALL
bcc


@<TRIPOS>ATOM
      1 O           2.3690   -0.5760    0.7130 o         1 LE1     -0.835300
      2 C           1.7590    0.0470   -0.2020 c         1 LE1      0.886600
      3 CA          0.3160   -0.4490   -0.5840 c3        1 LE1      0.031500
      4 N           0.1760   -1.8960   -0.4850 n3        1 LE1     -0.879800
      5 CB         -0.7160    0.3110    0.2670 c3        1 LE1      0.118100
      6 C9         -0.5950   -0.0210    1.7350 c3        1 LE1     -0.099600
      7 C8         -0.5760    1.7990    0.0340 c3        1 LE1     -0.099600
      8 SG         -2.3640   -0.1990   -0.3210 sh        1 LE1     -0.445900
      9 OXT         2.2330    1.0210   -0.8470 o         1 LE1     -0.835300
     10 HA          0.1400   -0.1670   -1.6630 h1        1 LE1      0.061700
     11 HN          0.9170   -2.3040   -1.0290 hn        1 LE1      0.332800
     12 HNA         0.3430   -2.1630    0.4700 hn        1 LE1      0.332800
     13 H9          0.4890   -0.0180    2.0270 hc        1 LE1      0.044367
     14 H9A        -1.1430    0.7270    2.3580 hc        1 LE1      0.044367
     15 H9B        -1.0160   -1.0330    1.9490 hc        1 LE1      0.044367
     16 H8         -0.7620    2.0450   -1.0390 hc        1 LE1      0.044367
     17 H8A        -1.2970    2.3690    0.6690 hc        1 LE1      0.044367
     18 H8B         0.4680    2.1230    0.2830 hc        1 LE1      0.044367
     19 HSG        -3.0730    0.7580    0.2450 hs        1 LE1      0.164800
@<TRIPOS>BOND
     1    1    2 1   
     2    2    3 1   
     3    2    9 1   
     4    3    4 1   
     5    3    5 1   
     6    3   10 1   
     7    4   11 1   
     8    4   12 1   
     9    5    6 1   
    10    5    7 1   
    11    5    8 1   
    12    6   13 1   
    13    6   14 1   
    14    6   15 1   
    15    7   16 1   
    16    7   17 1   
    17    7   18 1   
    18    8   19 1   
@<TRIPOS>SUBSTRUCTURE
     1 LE1         1 TEMP              0 ****  ****    0 ROOT
