@<TRIPOS>MOLECULE
LE2
   22    19     1     0     0
SMALL
bcc


@<TRIPOS>ATOM
      1 C           0.2870   -4.0200    0.0480 c1        1 LE2     -0.049000
      2 N          -0.2380   -2.8870   -0.6320 n2        1 LE2     -0.304000
      3 S           1.3810   -5.0380   -0.7300 s         1 LE2     -0.184000
      4 C1          0.2630   -1.5550   -0.3260 c3        1 LE2     -0.038000
      5 C2         -0.8650   -0.5560   -0.4410 c3        1 LE2     -0.146000
      6 C3         -0.3600    0.8400   -0.0470 c2        1 LE2     -0.082000
      7 C4         -0.3780    1.2320    1.2810 c2        1 LE2     -0.123000
      8 C5          0.0360    2.5110    1.6340 c1        1 LE2     -0.126000
      9 C6          0.4670    3.3960    0.6570 c2        1 LE2     -0.126000
     10 C7          0.4850    3.0050   -0.6730 c1        1 LE2     -0.126000
     11 C8          0.0710    1.7240   -1.0270 c1        1 LE2     -0.127000
     12 H1          0.9790   -1.3190   -0.9600 h1        1 LE2      0.100500
     13 H1A         0.6140   -1.5420    0.5770 h1        1 LE2      0.100500
     14 H2         -1.1930   -0.5370   -1.3680 hc        1 LE2      0.097000
     15 H2A        -1.5900   -0.8180    0.1540 hc        1 LE2      0.097000
     16 H4         -0.6830    0.6060    1.9730 ha        1 LE2      0.133000
     17 H5          0.0230    2.7880    2.5750 DU        1 LE2      0.135000
     18 H6          0.7580    4.2960    0.9070 ha        1 LE2      0.134000
     19 H7          0.7860    3.6240   -1.3550 ha        1 LE2      0.134000
     20 H8          0.0830    1.4480   -1.9610 ha        1 LE2      0.131000
     21 H10         0.0190   -4.2040    0.9600 ha        1 LE2      0.132000
     22 H11        -0.9460   -2.9940   -1.2490 hn        1 LE2      0.237000
@<TRIPOS>BOND
     1    1    3 1   
     2    1   21 1   
     3    2    4 1   
     4    2   22 1   
     5    4    5 1   
     6    4   12 1   
     7    4   13 1   
     8    5    6 1   
     9    5   14 1   
    10    5   15 1   
    11    6    7 1   
    12    6   11 1   
    13    7    8 1   
    14    7   16 1   
    15    8    9 1   
    16    9   10 1   
    17    9   18 1   
    18   10   19 1   
    19   11   20 1   
@<TRIPOS>SUBSTRUCTURE
     1 LE2         1 TEMP              0 ****  ****    0 ROOT
