@<TRIPOS>MOLECULE
LE2
   23    23     1     0     0
SMALL
bcc


@<TRIPOS>ATOM
      1 C          -0.1380   -0.0000    0.1300 c         1 LE2      0.040200
      2 N           1.3390   -0.0000   -0.0380 ny        1 LE2     -0.622800
      3 S          -0.9140    0.0020    1.4050 s         1 LE2      0.142600
      4 C1          2.1290    0.0020    1.2320 c3        1 LE2      0.087800
      5 C2          3.6370    0.0020    0.9740 c3        1 LE2     -0.043100
      6 C3          4.3440    0.0030    2.2840 ca        1 LE2     -0.131300
      7 C4          4.6870   -1.2070    2.8980 ca        1 LE2     -0.116000
      8 C5          5.3680   -1.2040    4.1140 ca        1 LE2     -0.117000
      9 C6          5.7100    0.0050    4.7220 ca        1 LE2     -0.097000
     10 C7          5.3720    1.2130    4.1100 ca        1 LE2     -0.117000
     11 C8          4.6910    1.2140    2.8940 ca        1 LE2     -0.116000
     12 H1          1.8440    0.9170    1.8260 hx        1 LE2      0.113700
     13 H1A         1.8440   -0.9120    1.8280 hx        1 LE2      0.113700
     14 H2          3.9310    0.9090    0.3810 hc        1 LE2      0.068700
     15 H2A         3.9310   -0.9070    0.3830 hc        1 LE2      0.068700
     16 H4          4.4330   -2.1630    2.4170 ha        1 LE2      0.131000
     17 H5          5.6420   -2.1580    4.5920 ha        1 LE2      0.152000
     18 H6          6.2510    0.0060    5.6820 ha        1 LE2      0.154000
     19 H7          5.6470    2.1670    4.5850 ha        1 LE2      0.152000
     20 H8          4.4390    2.1690    2.4100 ha        1 LE2      0.131000
     21 H10        -0.5560   -0.0020   -0.9080 hx        1 LE2      0.094200
     22 H11         1.6060   -0.8300   -0.5870 hn        1 LE2      0.454800
     23 HN3         1.6050    0.8280   -0.5890 hn        1 LE2      0.454800
@<TRIPOS>BOND
     1    1    2 1   
     2    1    3 2   
     3    1   21 1   
     4    2    4 1   
     5    2   22 1   
     6    2   23 1   
     7    4    5 1   
     8    4   12 1   
     9    4   13 1   
    10    5    6 1   
    11    5   14 1   
    12    5   15 1   
    13    6    7 ar  
    14    6   11 ar  
    15    7    8 ar  
    16    7   16 1   
    17    8    9 ar  
    18    8   17 1   
    19    9   10 ar  
    20    9   18 1   
    21   10   11 ar  
    22   10   19 1   
    23   11   20 1   
@<TRIPOS>SUBSTRUCTURE
     1 LE2         1 TEMP              0 ****  ****    0 ROOT
