@<TRIPOS>MOLECULE
LE2
   22    22     1     0     0
SMALL
bcc


@<TRIPOS>ATOM
      1 C           3.3110   -0.6760    0.6320 c         1 LE2      0.394200
      2 N           2.3810   -0.7810   -0.3470 n         1 LE2     -0.490900
      3 S           3.2350    0.0980    1.9990 s         1 LE2     -0.470400
      4 C1          1.0660   -0.1980   -0.2680 c3        1 LE2      0.061000
      5 C2         -0.0660   -1.2290   -0.1820 c3        1 LE2     -0.053100
      6 C3         -1.3820   -0.5380   -0.1100 ca        1 LE2     -0.087300
      7 C4         -2.2640   -0.5720   -1.1960 ca        1 LE2     -0.124500
      8 C5         -3.5010    0.0660   -1.1160 ca        1 LE2     -0.127500
      9 C6         -3.8670    0.7420    0.0480 ca        1 LE2     -0.127000
     10 C7         -2.9910    0.7780    1.1340 ca        1 LE2     -0.127500
     11 C8         -1.7550    0.1410    1.0570 ca        1 LE2     -0.124500
     12 H1          1.0210    0.4740    0.6410 h1        1 LE2      0.078200
     13 H1A         0.9110    0.4380   -1.1860 h1        1 LE2      0.078200
     14 H2         -0.0340   -1.9080   -1.0750 hc        1 LE2      0.054200
     15 H2A         0.0690   -1.8670    0.7320 hc        1 LE2      0.054200
     16 H4         -1.9820   -1.1050   -2.1160 ha        1 LE2      0.134500
     17 H5         -4.1890    0.0340   -1.9730 ha        1 LE2      0.133500
     18 H6         -4.8430    1.2440    0.1100 ha        1 LE2      0.133000
     19 H7         -3.2770    1.3100    2.0530 ha        1 LE2      0.133500
     20 H8         -1.0650    0.1690    1.9150 ha        1 LE2      0.134500
     21 H10         4.2440   -1.2250    0.3570 h5        1 LE2      0.034200
     22 H11         2.5620   -1.3590   -1.1360 hn        1 LE2      0.310500
@<TRIPOS>BOND
     1    1    2 1   
     2    1    3 2   
     3    1   21 1   
     4    2    4 1   
     5    2   22 1   
     6    4    5 1   
     7    4   12 1   
     8    4   13 1   
     9    5    6 1   
    10    5   14 1   
    11    5   15 1   
    12    6    7 ar  
    13    6   11 ar  
    14    7    8 ar  
    15    7   16 1   
    16    8    9 ar  
    17    8   17 1   
    18    9   10 ar  
    19    9   18 1   
    20   10   11 ar  
    21   10   19 1   
    22   11   20 1   
@<TRIPOS>SUBSTRUCTURE
     1 LE2         1 TEMP              0 ****  ****    0 ROOT
