@<TRIPOS>MOLECULE
LE3
   24    23     1     0     0
SMALL
bcc


@<TRIPOS>ATOM
      1 C          -0.0030    0.3790    0.1740 c         1 LE3      0.039200
      2 N           1.4540    0.1400   -0.0020 ny        1 LE3     -0.621800
      3 S          -0.7770    0.4110    1.4500 s         1 LE3      0.145600
      4 C1          2.2230   -0.0840    1.2610 c3        1 LE3      0.087800
      5 C2          3.7080   -0.3110    1.0000 c3        1 LE3     -0.099400
      6 C3          4.4230   -0.4250    2.3340 c3        1 LE3     -0.063400
      7 C4          5.9130   -0.5390    2.1570 c3        1 LE3     -0.093100
      8 S5          6.7670   -0.0620    3.6420 s4        1 LE3      0.281600
      9 O5A         5.9900    1.1010    4.1550 o         1 LE3     -0.502200
     10 C5B         8.2070    0.5970    2.9420 c3        1 LE3     -0.137800
     11 H1          2.0840    0.8210    1.9210 hx        1 LE3      0.113700
     12 H1A         1.7830   -0.9790    1.7880 hx        1 LE3      0.113700
     13 H2          3.8670   -1.2470    0.4030 hc        1 LE3      0.064700
     14 H2A         4.1410    0.5480    0.4190 hc        1 LE3      0.064700
     15 H3          4.1920    0.4880    2.9560 hc        1 LE3      0.074700
     16 H3A         4.0330   -1.3190    2.8890 hc        1 LE3      0.074700
     17 H4          6.2010   -1.5940    1.9260 h1        1 LE3      0.083700
     18 H4A         6.2470    0.0810    1.2880 h1        1 LE3      0.083700
     19 H5B         8.0590    1.5680    2.4150 h1        1 LE3      0.095700
     20 H5BA        8.6720   -0.1170    2.2230 h1        1 LE3      0.095700
     21 H5BB        8.9460    0.7860    3.7590 h1        1 LE3      0.095700
     22 H12        -0.4060    0.5350   -0.8590 hx        1 LE3      0.095200
     23 H13         1.5800   -0.6800   -0.6120 hn        1 LE3      0.455800
     24 HN3         1.8610    0.9500   -0.4910 hn        1 LE3      0.455800
@<TRIPOS>BOND
     1    1    2 1   
     2    1    3 2   
     3    1   22 1   
     4    2    4 1   
     5    2   23 1   
     6    2   24 1   
     7    4    5 1   
     8    4   11 1   
     9    4   12 1   
    10    5    6 1   
    11    5   13 1   
    12    5   14 1   
    13    6    7 1   
    14    6   15 1   
    15    6   16 1   
    16    7    8 1   
    17    7   17 1   
    18    7   18 1   
    19    8    9 2   
    20    8   10 1   
    21   10   19 1   
    22   10   20 1   
    23   10   21 1   
@<TRIPOS>SUBSTRUCTURE
     1 LE3         1 TEMP              0 ****  ****    0 ROOT
