@<TRIPOS>MOLECULE
LE3
   24    23     1     0     0
SMALL
bcc


@<TRIPOS>ATOM
      1 C          -0.0050    0.4290    0.1920 c         1 LE3      0.039200
      2 N           1.4520    0.1920    0.0060 n4        1 LE3     -0.621800
      3 S          -0.7750    0.4230    1.4690 s         1 LE3      0.145600
      4 C1          2.2230   -0.0730    1.2590 c3        1 LE3      0.087800
      5 C2          3.7080   -0.2900    0.9890 c3        1 LE3     -0.099400
      6 C3          4.4240   -0.4490    2.3170 c3        1 LE3     -0.063400
      7 C4          5.9140   -0.5560    2.1350 c3        1 LE3     -0.093100
      8 S5          6.7690   -0.1280    3.6340 s4        1 LE3      0.281600
      9 O5A         5.9920    1.0160    4.1870 o         1 LE3     -0.502200
     10 C5B         8.2080    0.5560    2.9540 c3        1 LE3     -0.137800
     11 H1          2.0840    0.8090    1.9500 hx        1 LE3      0.113700
     12 H1A         1.7840   -0.9850    1.7560 hx        1 LE3      0.113700
     13 H2          3.8660   -1.2060    0.3600 hc        1 LE3      0.064700
     14 H2A         4.1390    0.5870    0.4370 hc        1 LE3      0.064700
     15 H3          4.1930    0.4420    2.9710 hc        1 LE3      0.074700
     16 H3A         4.0360   -1.3620    2.8420 hc        1 LE3      0.074700
     17 H4          6.2030   -1.6030    1.8690 h1        1 LE3      0.083700
     18 H4A         6.2460    0.0930    1.2870 h1        1 LE3      0.083700
     19 H5B         8.0580    1.5440    2.4600 h1        1 LE3      0.095700
     20 H5BA        8.6720   -0.1330    2.2120 h1        1 LE3      0.095700
     21 H5BB        8.9480    0.7190    3.7770 h1        1 LE3      0.095700
     22 H12        -0.4090    0.6160   -0.8350 hx        1 LE3      0.095200
     23 H13         1.5760   -0.6070   -0.6310 hn        1 LE3      0.455800
     24 HN3         1.8600    1.0170   -0.4580 hn        1 LE3      0.455800
@<TRIPOS>BOND
     1    1    2 1   
     2    1    3 2   
     3    1   22 1   
     4    2    4 1   
     5    2   23 1   
     6    2   24 1   
     7    4    5 1   
     8    4   11 1   
     9    4   12 1   
    10    5    6 1   
    11    5   13 1   
    12    5   14 1   
    13    6    7 1   
    14    6   15 1   
    15    6   16 1   
    16    7    8 1   
    17    7   17 1   
    18    7   18 1   
    19    8    9 2   
    20    8   10 1   
    21   10   19 1   
    22   10   20 1   
    23   10   21 1   
@<TRIPOS>SUBSTRUCTURE
     1 LE3         1 TEMP              0 ****  ****    0 ROOT
