@<TRIPOS>MOLECULE
LE3
   23    22     1     0     0
SMALL
bcc


@<TRIPOS>ATOM
      1 C           3.9700    0.8740    0.2960 c         1 LE3      0.395200
      2 N           2.9520    0.7610   -0.5900 n         1 LE3     -0.489900
      3 S           4.1410    0.1990    1.7060 s         1 LE3     -0.473400
      4 C1          1.7610   -0.0130   -0.3450 c3        1 LE3      0.057000
      5 C2          0.4850    0.8240   -0.2450 c3        1 LE3     -0.093400
      6 C3         -0.7070   -0.0880   -0.0500 c3        1 LE3     -0.058400
      7 C4         -1.9810    0.7040    0.1050 c3        1 LE3     -0.093100
      8 S5         -3.3480   -0.3970    0.2310 s4        1 LE3      0.263600
      9 O5A        -3.4810   -1.0250   -1.1140 o         1 LE3     -0.503200
     10 C5B        -4.6300    0.7720    0.3330 c3        1 LE3     -0.130800
     11 H1          1.6470   -0.7520   -1.1910 h1        1 LE3      0.075200
     12 H1A         1.9020   -0.5940    0.6150 h1        1 LE3      0.075200
     13 H2          0.5600    1.5380    0.6170 hc        1 LE3      0.048700
     14 H2A         0.3440    1.4330   -1.1760 hc        1 LE3      0.048700
     15 H3         -0.8040   -0.7760   -0.9340 hc        1 LE3      0.055700
     16 H3A        -0.5420   -0.7250    0.8600 hc        1 LE3      0.055700
     17 H4         -1.9330    1.3320    1.0290 h1        1 LE3      0.082200
     18 H4A        -2.0880    1.4060   -0.7580 h1        1 LE3      0.082200
     19 H5B        -4.7580    1.3820   -0.5910 h1        1 LE3      0.085033
     20 H5BA       -5.5930    0.2350    0.5040 h1        1 LE3      0.085033
     21 H5BB       -4.4640    1.4690    1.1850 h1        1 LE3      0.085033
     22 H12         4.7740    1.5400   -0.1010 h5        1 LE3      0.035200
     23 H13         2.9650    1.2990   -1.4260 hn        1 LE3      0.312500
@<TRIPOS>BOND
     1    1    2 1   
     2    1    3 2   
     3    1   22 1   
     4    2    4 1   
     5    2   23 1   
     6    4    5 1   
     7    4   11 1   
     8    4   12 1   
     9    5    6 1   
    10    5   13 1   
    11    5   14 1   
    12    6    7 1   
    13    6   15 1   
    14    6   16 1   
    15    7    8 1   
    16    7   17 1   
    17    7   18 1   
    18    8    9 2   
    19    8   10 1   
    20   10   19 1   
    21   10   20 1   
    22   10   21 1   
@<TRIPOS>SUBSTRUCTURE
     1 LE3         1 TEMP              0 ****  ****    0 ROOT
