@<TRIPOS>MOLECULE
LE3
   24    23     1     0     0
SMALL
bcc


@<TRIPOS>ATOM
      1 C          -0.0010    0.3990    0.1700 c         1 LE3      0.039200
      2 N           1.4550    0.1400   -0.0010 n4        1 LE3     -0.621800
      3 S          -0.7740    0.4590    1.4430 s         1 LE3      0.145600
      4 C1          2.2210   -0.0660    1.2660 c3        1 LE3      0.087800
      5 C2          3.7030   -0.3190    1.0100 c3        1 LE3     -0.099400
      6 C3          4.4170   -0.4110    2.3460 c3        1 LE3     -0.063400
      7 C4          5.9050   -0.5510    2.1710 c3        1 LE3     -0.093100
      8 S5          6.7670   -0.0460    3.6420 s4        1 LE3      0.281600
      9 O5A         6.0090    1.1410    4.1230 o         1 LE3     -0.502200
     10 C5B         8.2170    0.5700    2.9230 c3        1 LE3     -0.137800
     11 H1          1.7680   -0.9420    1.8140 hx        1 LE3      0.113700
     12 H1A         2.0950    0.8560    1.9060 hx        1 LE3      0.113700
     13 H2          3.8480   -1.2720    0.4360 hc        1 LE3      0.064700
     14 H2A         4.1460    0.5180    0.4080 hc        1 LE3      0.064700
     15 H3          4.2000    0.5200    2.9460 hc        1 LE3      0.074700
     16 H3A         4.0150   -1.2860    2.9230 hc        1 LE3      0.074700
     17 H4          6.1770   -1.6170    1.9680 h1        1 LE3      0.083700
     18 H4A         6.2460    0.0410    1.2860 h1        1 LE3      0.083700
     19 H5B         8.6690   -0.1700    2.2240 h1        1 LE3      0.095700
     20 H5BA        8.0830    1.5290    2.3700 h1        1 LE3      0.095700
     21 H5BB        8.9590    0.7710    3.7340 h1        1 LE3      0.095700
     22 H12        -0.4000    0.5410   -0.8660 hx        1 LE3      0.095200
     23 H13         1.8700    0.9350   -0.5070 hn        1 LE3      0.455800
     24 HN3         1.5720   -0.6930   -0.5950 hn        1 LE3      0.455800
@<TRIPOS>BOND
     1    1    2 1   
     2    1    3 2   
     3    1   22 1   
     4    2    4 1   
     5    2   23 1   
     6    2   24 1   
     7    4    5 1   
     8    4   11 1   
     9    4   12 1   
    10    5    6 1   
    11    5   13 1   
    12    5   14 1   
    13    6    7 1   
    14    6   15 1   
    15    6   16 1   
    16    7    8 1   
    17    7   17 1   
    18    7   18 1   
    19    8    9 2   
    20    8   10 1   
    21   10   19 1   
    22   10   20 1   
    23   10   21 1   
@<TRIPOS>SUBSTRUCTURE
     1 LE3         1 TEMP              0 ****  ****    0 ROOT
