@<TRIPOS>MOLECULE
LEA
   16    15     1     0     0
SMALL
bcc


@<TRIPOS>ATOM
      1 C2          0.0300   -0.0900   -0.0280 c         1 LEA      0.907600
      2 O2          1.0760    0.6180   -0.0960 o         1 LEA     -0.853800
      3 C3         -0.7560   -0.0790    1.2950 c3        1 LEA     -0.193400
      4 C4         -2.2360    0.0940    1.0540 c3        1 LEA     -0.065400
      5 C5         -3.0410   -0.0740    2.3260 c3        1 LEA     -0.081400
      6 C6         -4.5160    0.1210    2.0850 c3        1 LEA     -0.086100
      7 O1         -0.3900   -0.8160   -0.9750 o         1 LEA     -0.853800
      8 H31        -0.3700    0.7420    1.9490 hc        1 LEA      0.018200
      9 H32        -0.5650   -1.0520    1.8150 hc        1 LEA      0.018200
     10 H41        -2.4280    1.1110    0.6220 hc        1 LEA      0.043200
     11 H42        -2.5650   -0.6570    0.2870 hc        1 LEA      0.043200
     12 H51        -2.6860    0.6630    3.0930 hc        1 LEA      0.024700
     13 H52        -2.8620   -1.0980    2.7470 hc        1 LEA      0.024700
     14 H61        -4.7180    1.1470    1.6930 hc        1 LEA      0.018700
     15 H62        -4.8900   -0.6170    1.3340 hc        1 LEA      0.018700
     16 H63        -5.0930   -0.0150    3.0310 hc        1 LEA      0.018700
@<TRIPOS>BOND
     1    1    2 1   
     2    1    3 1   
     3    1    7 1   
     4    3    4 1   
     5    3    8 1   
     6    3    9 1   
     7    4    5 1   
     8    4   10 1   
     9    4   11 1   
    10    5    6 1   
    11    5   12 1   
    12    5   13 1   
    13    6   14 1   
    14    6   15 1   
    15    6   16 1   
@<TRIPOS>SUBSTRUCTURE
     1 LEA         1 TEMP              0 ****  ****    0 ROOT
