@<TRIPOS>MOLECULE
LEA
   16    14     1     0     0
SMALL
bcc


@<TRIPOS>ATOM
      1 C2          1.1570   -1.2480   -2.0050 c1        1 LEA      0.327000
      2 O2          2.4160   -1.2480   -2.0050 os        1 LEA     -0.587000
      3 C3          0.4010   -1.2480   -0.6940 c3        1 LEA     -0.222000
      4 C4          0.1490    0.1780   -0.2580 c3        1 LEA     -0.144000
      5 C5         -0.6080    0.1780    1.0530 c3        1 LEA     -0.160000
      6 C6         -0.8600    1.6050    1.4890 c3        1 LEA     -0.204000
      7 O1          0.5280   -1.2480   -3.0950 o         1 LEA     -0.590000
      8 H31        -0.4520   -1.7080   -0.8110 hc        1 LEA      0.057500
      9 H32         0.9290   -1.7080   -0.0140 hc        1 LEA      0.057500
     10 H41        -0.3790    0.6380   -0.9380 hc        1 LEA      0.082000
     11 H42         1.0020    0.6390   -0.1410 hc        1 LEA      0.082000
     12 H51        -1.4610   -0.2820    0.9360 hc        1 LEA      0.064000
     13 H52        -0.0800   -0.2820    1.7330 hc        1 LEA      0.064000
     14 H61        -0.0070    2.0650    1.6060 hc        1 LEA      0.058000
     15 H62        -1.3880    2.0650    0.8090 hc        1 LEA      0.058000
     16 H63        -1.3480    1.6050    2.3350 hc        1 LEA      0.058000
@<TRIPOS>BOND
     1    1    3 1   
     2    1    7 1   
     3    3    4 1   
     4    3    8 1   
     5    3    9 1   
     6    4    5 1   
     7    4   10 1   
     8    4   11 1   
     9    5    6 1   
    10    5   12 1   
    11    5   13 1   
    12    6   14 1   
    13    6   15 1   
    14    6   16 1   
@<TRIPOS>SUBSTRUCTURE
     1 LEA         1 TEMP              0 ****  ****    0 ROOT
