@<TRIPOS>MOLECULE
LEA
   16    15     1     0     0
SMALL
bcc


@<TRIPOS>ATOM
      1 C2         -1.6160   -0.0530    0.0640 c         1 LEA      0.907600
      2 O2         -2.5600    0.3230   -0.6900 o         1 LEA     -0.853800
      3 C3         -0.2990    0.7410    0.0130 c3        1 LEA     -0.193400
      4 C4          0.8940   -0.1790   -0.0740 c3        1 LEA     -0.065400
      5 C5          2.2020    0.5750    0.0570 c3        1 LEA     -0.081400
      6 C6          3.3910   -0.3440   -0.0530 c3        1 LEA     -0.086100
      7 O1         -1.7040   -1.0280    0.8660 o         1 LEA     -0.853800
      8 H31        -0.3190    1.4370   -0.8630 hc        1 LEA      0.018200
      9 H32        -0.2370    1.3600    0.9430 hc        1 LEA      0.018200
     10 H41         0.8120   -0.9520    0.7360 hc        1 LEA      0.042700
     11 H42         0.8750   -0.7250   -1.0540 hc        1 LEA      0.042700
     12 H51         2.2610    1.3620   -0.7400 hc        1 LEA      0.024700
     13 H52         2.2280    1.1050    1.0450 hc        1 LEA      0.024700
     14 H61         3.3570   -1.1260    0.7440 hc        1 LEA      0.018700
     15 H62         3.3990   -0.8590   -1.0440 hc        1 LEA      0.018700
     16 H63         4.3450    0.2280    0.0540 hc        1 LEA      0.018700
@<TRIPOS>BOND
     1    1    2 1   
     2    1    3 1   
     3    1    7 1   
     4    3    4 1   
     5    3    8 1   
     6    3    9 1   
     7    4    5 1   
     8    4   10 1   
     9    4   11 1   
    10    5    6 1   
    11    5   12 1   
    12    5   13 1   
    13    6   14 1   
    14    6   15 1   
    15    6   16 1   
@<TRIPOS>SUBSTRUCTURE
     1 LEA         1 TEMP              0 ****  ****    0 ROOT
