@<TRIPOS>MOLECULE
LEA
   16    15     1     0     0
SMALL
bcc


@<TRIPOS>ATOM
      1 C2          0.0330   -0.0630   -0.0240 c         1 LEA      0.907600
      2 O2          1.0420    0.6920   -0.1380 o         1 LEA     -0.853800
      3 C3         -0.7540   -0.0110    1.2970 c3        1 LEA     -0.193400
      4 C4         -2.2400    0.0740    1.0490 c3        1 LEA     -0.065400
      5 C5         -3.0380   -0.0560    2.3300 c3        1 LEA     -0.081400
      6 C6         -4.5200    0.0520    2.0800 c3        1 LEA     -0.086100
      7 O1         -0.3480   -0.8670   -0.9240 o         1 LEA     -0.853800
      8 H31        -0.4090    0.8650    1.9000 hc        1 LEA      0.018200
      9 H32        -0.5160   -0.9410    1.8740 hc        1 LEA      0.018200
     10 H41        -2.4810    1.0530    0.5570 hc        1 LEA      0.042700
     11 H42        -2.5310   -0.7370    0.3290 hc        1 LEA      0.042700
     12 H51        -2.7190    0.7420    3.0510 hc        1 LEA      0.024700
     13 H52        -2.8100   -1.0440    2.8110 hc        1 LEA      0.024700
     14 H61        -4.7710    1.0430    1.6290 hc        1 LEA      0.018700
     15 H62        -4.8570   -0.7460    1.3760 hc        1 LEA      0.018700
     16 H63        -5.0910   -0.0550    3.0340 hc        1 LEA      0.018700
@<TRIPOS>BOND
     1    1    2 1   
     2    1    3 1   
     3    1    7 1   
     4    3    4 1   
     5    3    8 1   
     6    3    9 1   
     7    4    5 1   
     8    4   10 1   
     9    4   11 1   
    10    5    6 1   
    11    5   12 1   
    12    5   13 1   
    13    6   14 1   
    14    6   15 1   
    15    6   16 1   
@<TRIPOS>SUBSTRUCTURE
     1 LEA         1 TEMP              0 ****  ****    0 ROOT
