@<TRIPOS>MOLECULE
LEC
   42    43     1     0     0
SMALL
bcc


@<TRIPOS>ATOM
      1 C8         -0.0050    0.5920   -0.1350 c3        1 LEC     -0.172100
      2 C7          1.4760    0.7710   -0.3440 c         1 LEC      0.675100
      3 O7          2.0770    1.8070    0.0050 o         1 LEC     -0.618100
      4 N2          2.1670   -0.2640   -0.9530 n         1 LEC     -0.571900
      5 C2          3.5910   -0.2060   -1.1300 c3        1 LEC      0.058700
      6 C3          4.0260    0.5100   -2.4340 c3        1 LEC      0.088100
      7 O3          3.5090    1.8170   -2.5480 oh        1 LEC     -0.596800
      8 C4          5.5650    0.5630   -2.4830 c3        1 LEC      0.090100
      9 O4          6.0030    1.1160   -3.7120 oh        1 LEC     -0.592800
     10 C5          6.1390   -0.8560   -2.3980 c3        1 LEC      0.105100
     11 C6          7.6650   -0.8380   -2.2730 c3        1 LEC      0.141400
     12 O6          8.1850   -2.1480   -2.2700 oh        1 LEC     -0.592800
     13 O5          5.6630   -1.5080   -1.2150 os        1 LEC     -0.442600
     14 C1          4.2510   -1.6130   -1.1550 c3        1 LEC      0.329900
     15 O1          4.0490   -2.1870    0.1290 os        1 LEC     -0.309900
     16 C1'         4.3080   -3.5360    0.2680 ca        1 LEC      0.167100
     17 C2'         3.7710   -4.1140    1.4360 ca        1 LEC     -0.185000
     18 C3'         3.9800   -5.4620    1.6880 ca        1 LEC     -0.036500
     19 C4'         4.7200   -6.2330    0.7720 ca        1 LEC     -0.211200
     20 N1'         4.9310   -7.6770    1.0370 no        1 LEC      0.318200
     21 O2'         4.4640   -8.1610    2.0330 o         1 LEC     -0.210000
     22 O1'         5.5610   -8.3280    0.2460 o         1 LEC     -0.210000
     23 C5'         5.2650   -5.6520   -0.3840 ca        1 LEC     -0.036500
     24 C6'         5.0610   -4.2990   -0.6340 ca        1 LEC     -0.185000
     25 H8         -0.2090   -0.3130    0.4860 hc        1 LEC      0.072033
     26 H8A        -0.4030    1.4930    0.3920 hc        1 LEC      0.072033
     27 H8B        -0.5260    0.4870   -1.1180 hc        1 LEC      0.072033
     28 HN2         1.6850   -1.0700   -1.2640 hn        1 LEC      0.316500
     29 H2          4.0290    0.3680   -0.2540 h1        1 LEC      0.108700
     30 H3          3.6380   -0.0290   -3.3440 h1        1 LEC      0.084700
     31 HO3         3.4970    2.2210   -1.6660 ho        1 LEC      0.435000
     32 H4          5.9510    1.1910   -1.6320 h1        1 LEC      0.058700
     33 HO4         5.4600    1.9030   -3.8690 ho        1 LEC      0.429000
     34 H5          5.8320   -1.4550   -3.3000 h1        1 LEC      0.068700
     35 H6          7.9670   -0.2870   -1.3440 h1        1 LEC      0.069700
     36 H6A         8.0970   -0.3400   -3.1830 h1        1 LEC      0.069700
     37 HO6         7.8580   -2.5810   -1.4700 ho        1 LEC      0.409000
     38 H1          3.8570   -2.2650   -1.9820 h2        1 LEC      0.057700
     39 H2'         3.2000   -3.4900    2.1380 ha        1 LEC      0.164500
     40 H3'         3.5670   -5.9280    2.5990 ha        1 LEC      0.175000
     41 H5'         5.8570   -6.2630   -1.0880 ha        1 LEC      0.175000
     42 H6'         5.5150   -3.8310   -1.5220 ha        1 LEC      0.164500
@<TRIPOS>BOND
     1    1    2 1   
     2    1   25 1   
     3    1   26 1   
     4    1   27 1   
     5    2    3 2   
     6    2    4 1   
     7    4    5 1   
     8    4   28 1   
     9    5    6 1   
    10    5   14 1   
    11    5   29 1   
    12    6    7 1   
    13    6    8 1   
    14    6   30 1   
    15    7   31 1   
    16    8    9 1   
    17    8   10 1   
    18    8   32 1   
    19    9   33 1   
    20   10   11 1   
    21   10   13 1   
    22   10   34 1   
    23   11   12 1   
    24   11   35 1   
    25   11   36 1   
    26   12   37 1   
    27   13   14 1   
    28   14   15 1   
    29   14   38 1   
    30   15   16 1   
    31   16   17 ar  
    32   16   24 ar  
    33   17   18 ar  
    34   17   39 1   
    35   18   19 ar  
    36   18   40 1   
    37   19   20 1   
    38   19   23 ar  
    39   20   21 1   
    40   20   22 1   
    41   23   24 ar  
    42   23   41 1   
    43   24   42 1   
@<TRIPOS>SUBSTRUCTURE
     1 LEC         1 TEMP              0 ****  ****    0 ROOT
