@<TRIPOS>MOLECULE
LEC
   43    44     1     0     0
SMALL
bcc


@<TRIPOS>ATOM
      1 C8          0.7240   -0.9100    0.5380 c3        1 LEC     -0.188100
      2 C7          1.5730    0.2350    0.1100 c         1 LEC      0.569100
      3 O7          1.9170    1.2150    0.7470 o         1 LEC     -0.392100
      4 N2          2.0850    0.1730   -1.3270 n4        1 LEC     -0.672800
      5 C2          3.5710    0.0300   -1.3970 c3        1 LEC      0.078500
      6 C3          4.1500    0.6040   -2.7120 c3        1 LEC      0.129100
      7 O3          3.6710    1.9270   -2.8340 oh        1 LEC     -0.621800
      8 C4          5.6870    0.5450   -2.6130 c3        1 LEC      0.099100
      9 O4          6.1400    0.9840   -3.8780 oh        1 LEC     -0.601800
     10 C5          6.1540   -0.8920   -2.3270 c3        1 LEC      0.064100
     11 C6          7.6470   -0.9240   -1.9520 c3        1 LEC      0.132400
     12 O6          8.4040   -0.3910   -3.0140 oh        1 LEC     -0.594800
     13 O5          5.4730   -1.4400   -1.1910 os        1 LEC     -0.399600
     14 C1          4.0690   -1.4430   -1.3210 c3        1 LEC      0.337900
     15 O1          3.6140   -1.9560   -0.0840 os        1 LEC     -0.360900
     16 C1'         3.8920   -3.2870    0.2120 ca        1 LEC      0.143100
     17 C2'         3.4110   -3.7030    1.4660 ca        1 LEC     -0.176500
     18 C3'         3.5980   -5.0230    1.8580 ca        1 LEC     -0.030000
     19 C4'         4.2600   -5.9150    0.9960 ca        1 LEC     -0.190200
     20 N1'         4.4490   -7.3330    1.4130 no        1 LEC      0.317200
     21 O2'         4.0120   -7.6810    2.4750 o         1 LEC     -0.186500
     22 O1'         5.0280   -8.0760    0.6700 o         1 LEC     -0.186500
     23 C5'         4.7510   -5.4890   -0.2470 ca        1 LEC     -0.030000
     24 C6'         4.5670   -4.1650   -0.6410 ca        1 LEC     -0.176500
     25 H8         -0.0930   -1.1240   -0.1950 hc        1 LEC      0.116700
     26 H8A         1.3690   -1.8230    0.6590 hc        1 LEC      0.116700
     27 H8B         0.2630   -0.6590    1.5300 hc        1 LEC      0.116700
     28 HN2         1.8440    1.0620   -1.8000 hn        1 LEC      0.467300
     29 H2          4.0020    0.6090   -0.5210 hx        1 LEC      0.154700
     30 H3          3.8040    0.0030   -3.6010 h1        1 LEC      0.073700
     31 HO3         4.2460    2.3880   -3.4670 ho        1 LEC      0.472000
     32 H4          6.0470    1.2380   -1.8020 h1        1 LEC      0.081700
     33 HO4         7.1070    1.0680   -3.8310 ho        1 LEC      0.460000
     34 H5          5.9610   -1.5360   -3.2290 h1        1 LEC      0.068700
     35 H6          7.9500   -1.9720   -1.6980 h1        1 LEC      0.080700
     36 H6A         7.8420   -0.2520   -1.0730 h1        1 LEC      0.080700
     37 HO6         8.5590   -1.0950   -3.6570 ho        1 LEC      0.422000
     38 H1          3.7230   -2.0580   -2.1970 h2        1 LEC      0.071700
     39 H2'         2.9120   -2.9860    2.1340 ha        1 LEC      0.155500
     40 H3'         3.2320   -5.3690    2.8430 ha        1 LEC      0.188500
     41 H5'         5.2840   -6.1970   -0.9080 ha        1 LEC      0.188500
     42 H6'         4.9830   -3.8210   -1.5990 ha        1 LEC      0.155500
     43 H22         1.6380   -0.6020   -1.8220 hn        1 LEC      0.467300
@<TRIPOS>BOND
     1    1    2 1   
     2    1   25 1   
     3    1   26 1   
     4    1   27 1   
     5    2    3 2   
     6    2    4 1   
     7    4    5 1   
     8    4   28 1   
     9    4   43 1   
    10    5    6 1   
    11    5   14 1   
    12    5   29 1   
    13    6    7 1   
    14    6    8 1   
    15    6   30 1   
    16    7   31 1   
    17    8    9 1   
    18    8   10 1   
    19    8   32 1   
    20    9   33 1   
    21   10   11 1   
    22   10   13 1   
    23   10   34 1   
    24   11   12 1   
    25   11   35 1   
    26   11   36 1   
    27   12   37 1   
    28   13   14 1   
    29   14   15 1   
    30   14   38 1   
    31   15   16 1   
    32   16   17 ar  
    33   16   24 ar  
    34   17   18 ar  
    35   17   39 1   
    36   18   19 ar  
    37   18   40 1   
    38   19   20 1   
    39   19   23 ar  
    40   20   21 1   
    41   20   22 1   
    42   23   24 ar  
    43   23   41 1   
    44   24   42 1   
@<TRIPOS>SUBSTRUCTURE
     1 LEC         1 TEMP              0 ****  ****    0 ROOT
