@<TRIPOS>MOLECULE
LEC
   43    44     1     0     0
SMALL
bcc


@<TRIPOS>ATOM
      1 C8          0.7370   -0.8720    0.5470 c3        1 LEC     -0.188100
      2 C7          1.6010    0.2650    0.1280 c         1 LEC      0.569100
      3 O7          1.9590    1.2350    0.7710 o         1 LEC     -0.392100
      4 N2          2.1110    0.2070   -1.3110 ny        1 LEC     -0.672800
      5 C2          3.5960    0.0440   -1.3820 c3        1 LEC      0.078500
      6 C3          4.1820    0.6200   -2.6930 c3        1 LEC      0.129100
      7 O3          3.7220    1.9500   -2.8040 oh        1 LEC     -0.621800
      8 C4          5.7180    0.5390   -2.5950 c3        1 LEC      0.099100
      9 O4          6.1770    0.9810   -3.8570 oh        1 LEC     -0.601800
     10 C5          6.1650   -0.9070   -2.3210 c3        1 LEC      0.064100
     11 C6          7.6570   -0.9630   -1.9470 c3        1 LEC      0.132400
     12 O6          8.4210   -0.4320   -3.0050 oh        1 LEC     -0.594800
     13 O5          5.4770   -1.4550   -1.1890 os        1 LEC     -0.399600
     14 C1          4.0720   -1.4370   -1.3180 c3        1 LEC      0.337900
     15 O1          3.6110   -1.9530   -0.0860 os        1 LEC     -0.360900
     16 C1'         3.8710   -3.2910    0.2000 ca        1 LEC      0.143100
     17 C2'         3.3850   -3.7090    1.4510 ca        1 LEC     -0.176500
     18 C3'         3.5540   -5.0350    1.8330 ca        1 LEC     -0.030000
     19 C4'         4.2020   -5.9290    0.9640 ca        1 LEC     -0.190200
     20 N1'         4.3720   -7.3530    1.3700 no        1 LEC      0.317200
     21 O2'         3.9300   -7.7040    2.4290 o         1 LEC     -0.186500
     22 O1'         4.9410   -8.0980    0.6200 o         1 LEC     -0.186500
     23 C5'         4.6990   -5.5000   -0.2760 ca        1 LEC     -0.030000
     24 C6'         4.5330   -4.1710   -0.6600 ca        1 LEC     -0.176500
     25 H8          1.3690   -1.7940    0.6610 hc        1 LEC      0.116700
     26 H8A        -0.0830   -1.0690   -0.1880 hc        1 LEC      0.116700
     27 H8B         0.2790   -0.6220    1.5410 hc        1 LEC      0.116700
     28 HN2         1.8830    1.1020   -1.7760 hn        1 LEC      0.467300
     29 H2          4.0350    0.6090   -0.5020 hx        1 LEC      0.154700
     30 H3          3.8280    0.0300   -3.5870 h1        1 LEC      0.073700
     31 HO3         4.3020    2.4090   -3.4340 ho        1 LEC      0.472000
     32 H4          6.0880    1.2200   -1.7780 h1        1 LEC      0.081700
     33 HO4         7.1450    1.0510   -3.8100 ho        1 LEC      0.460000
     34 H5          5.9630   -1.5420   -3.2280 h1        1 LEC      0.068700
     35 H6          7.8630   -0.3000   -1.0630 h1        1 LEC      0.080700
     36 H6A         7.9460   -2.0170   -1.7010 h1        1 LEC      0.080700
     37 HO6         8.5660   -1.1330   -3.6540 ho        1 LEC      0.422000
     38 H1          3.7180   -2.0400   -2.1990 h2        1 LEC      0.071700
     39 H2'         2.8960   -2.9910    2.1250 ha        1 LEC      0.155500
     40 H3'         3.1830   -5.3830    2.8150 ha        1 LEC      0.188500
     41 H5'         5.2210   -6.2110   -0.9440 ha        1 LEC      0.188500
     42 H6'         4.9530   -3.8260   -1.6150 ha        1 LEC      0.155500
     43 H22         1.6540   -0.5580   -1.8110 hn        1 LEC      0.467300
@<TRIPOS>BOND
     1    1    2 1   
     2    1   25 1   
     3    1   26 1   
     4    1   27 1   
     5    2    3 2   
     6    2    4 1   
     7    4    5 1   
     8    4   28 1   
     9    4   43 1   
    10    5    6 1   
    11    5   14 1   
    12    5   29 1   
    13    6    7 1   
    14    6    8 1   
    15    6   30 1   
    16    7   31 1   
    17    8    9 1   
    18    8   10 1   
    19    8   32 1   
    20    9   33 1   
    21   10   11 1   
    22   10   13 1   
    23   10   34 1   
    24   11   12 1   
    25   11   35 1   
    26   11   36 1   
    27   12   37 1   
    28   13   14 1   
    29   14   15 1   
    30   14   38 1   
    31   15   16 1   
    32   16   17 ar  
    33   16   24 ar  
    34   17   18 ar  
    35   17   39 1   
    36   18   19 ar  
    37   18   40 1   
    38   19   20 1   
    39   19   23 ar  
    40   20   21 1   
    41   20   22 1   
    42   23   24 ar  
    43   23   41 1   
    44   24   42 1   
@<TRIPOS>SUBSTRUCTURE
     1 LEC         1 TEMP              0 ****  ****    0 ROOT
