@<TRIPOS>MOLECULE
LEC
   42    43     1     0     0
SMALL
bcc


@<TRIPOS>ATOM
      1 C8         -2.4770    4.4900    0.6200 c3        1 LEC     -0.175100
      2 C7         -2.3050    3.1960   -0.1370 c         1 LEC      0.663100
      3 O7         -2.2110    3.1670   -1.3770 o         1 LEC     -0.583100
      4 N2         -2.2060    2.0330    0.6260 n         1 LEC     -0.553900
      5 C2         -2.2360    0.7330    0.0160 c3        1 LEC      0.083700
      6 C3         -3.3490   -0.1820    0.5880 c3        1 LEC      0.128100
      7 O3         -4.5890    0.4580    0.3560 oh        1 LEC     -0.589800
      8 C4         -3.3020   -1.5480   -0.1180 c3        1 LEC      0.077100
      9 O4         -4.3140   -2.3270    0.5020 oh        1 LEC     -0.599800
     10 C5         -1.9200   -2.1820    0.0760 c3        1 LEC      0.074100
     11 C6         -1.7600   -3.4700   -0.7400 c3        1 LEC      0.136400
     12 O6         -0.4940   -4.0500   -0.5230 oh        1 LEC     -0.588800
     13 O5         -0.9050   -1.3050   -0.4110 os        1 LEC     -0.443600
     14 C1         -0.8910   -0.0320    0.2230 c3        1 LEC      0.324900
     15 O1          0.0870    0.6500   -0.5480 os        1 LEC     -0.290900
     16 C1'         1.4110    0.3820   -0.2670 ca        1 LEC      0.171100
     17 C2'         2.3190    1.3380   -0.7670 ca        1 LEC     -0.186500
     18 C3'         3.6780    1.1590   -0.5630 ca        1 LEC     -0.037500
     19 C4'         4.1330    0.0300    0.1450 ca        1 LEC     -0.214200
     20 N1'         5.5860   -0.1530    0.3740 no        1 LEC      0.318200
     21 O2'         6.3530    0.6690   -0.0530 o         1 LEC     -0.213000
     22 O1'         5.9630   -1.1190    0.9830 o         1 LEC     -0.213000
     23 C5'         3.2280   -0.9260    0.6330 ca        1 LEC     -0.037500
     24 C6'         1.8640   -0.7500    0.4230 ca        1 LEC     -0.186500
     25 H8         -2.4770    5.3340   -0.1120 hc        1 LEC      0.068700
     26 H8A        -3.4470    4.4890    1.1730 hc        1 LEC      0.068700
     27 H8B        -1.6410    4.6370    1.3450 hc        1 LEC      0.068700
     28 HN2        -2.5000    2.0790    1.5740 hn        1 LEC      0.304500
     29 H2         -2.3920    0.8550   -1.1000 h1        1 LEC      0.128700
     30 H3         -3.2100   -0.3360    1.6960 h1        1 LEC      0.048700
     31 HO3        -5.2770   -0.1800    0.5930 ho        1 LEC      0.427000
     32 H4         -3.5220   -1.4190   -1.2140 h1        1 LEC      0.072700
     33 HO4        -4.4100   -3.1330   -0.0200 ho        1 LEC      0.416000
     34 H5         -1.7410   -2.3920    1.1670 h1        1 LEC      0.067700
     35 H6         -2.4990   -4.2350   -0.3830 h1        1 LEC      0.057200
     36 H6A        -1.9160   -3.2550   -1.8300 h1        1 LEC      0.057200
     37 HO6         0.1660   -3.4150   -0.8340 ho        1 LEC      0.418000
     38 H1         -0.6020   -0.1270    1.3040 h2        1 LEC      0.057700
     39 H2'         1.9370    2.2100   -1.3190 ha        1 LEC      0.164500
     40 H3'         4.4010    1.8990   -0.9500 ha        1 LEC      0.173000
     41 H5'         3.5960   -1.8150    1.1750 ha        1 LEC      0.173000
     42 H6'         1.1520   -1.5130    0.7740 ha        1 LEC      0.164500
@<TRIPOS>BOND
     1    1    2 1   
     2    1   25 1   
     3    1   26 1   
     4    1   27 1   
     5    2    3 2   
     6    2    4 1   
     7    4    5 1   
     8    4   28 1   
     9    5    6 1   
    10    5   14 1   
    11    5   29 1   
    12    6    7 1   
    13    6    8 1   
    14    6   30 1   
    15    7   31 1   
    16    8    9 1   
    17    8   10 1   
    18    8   32 1   
    19    9   33 1   
    20   10   11 1   
    21   10   13 1   
    22   10   34 1   
    23   11   12 1   
    24   11   35 1   
    25   11   36 1   
    26   12   37 1   
    27   13   14 1   
    28   14   15 1   
    29   14   38 1   
    30   15   16 1   
    31   16   17 ar  
    32   16   24 ar  
    33   17   18 ar  
    34   17   39 1   
    35   18   19 ar  
    36   18   40 1   
    37   19   20 1   
    38   19   23 ar  
    39   20   21 1   
    40   20   22 1   
    41   23   24 ar  
    42   23   41 1   
    43   24   42 1   
@<TRIPOS>SUBSTRUCTURE
     1 LEC         1 TEMP              0 ****  ****    0 ROOT
