@<TRIPOS>MOLECULE
LED
   20    19     1     0     0
SMALL
bcc


@<TRIPOS>ATOM
      1 N          -0.2920    1.8500    2.9980 n3        1 LED     -0.892800
      2 CA         -0.6060    1.8930    1.5750 c3        1 LED      0.011500
      3 CB          0.2030    0.8920    0.7490 c3        1 LED     -0.061400
      4 CG          1.6740    1.2610    0.6360 c3        1 LED     -0.186700
      5 CD1         2.4950    0.0720    0.1830 c3        1 LED     -0.080100
      6 CD2         1.8680    2.4290   -0.2920 c         1 LED      0.578900
      7 OE          2.9710    2.7740   -0.7300 o         1 LED     -0.583100
      8 C          -2.1230    1.6880    1.2380 c         1 LED      0.889600
      9 O          -2.9240    1.5050    2.1970 o         1 LED     -0.840300
     10 OXT        -2.4550    1.7420    0.0220 o         1 LED     -0.840300
     11 HN1        -0.9950    2.3930    3.4720 hn        1 LED      0.332800
     12 HN2        -0.4080    0.9040    3.3200 hn        1 LED      0.332800
     13 HA         -0.3470    2.9350    1.2260 h1        1 LED      0.036700
     14 HBC1       -0.2610    0.8490   -0.2740 hc        1 LED      0.053700
     15 HBC2        0.1180   -0.1320    1.1980 hc        1 LED      0.053700
     16 HG          2.0460    1.5930    1.6490 hc        1 LED      0.087700
     17 HD11        2.4840   -0.7220    0.9670 hc        1 LED      0.031033
     18 HD12        2.0760   -0.3560   -0.7590 hc        1 LED      0.031033
     19 HD13        3.5520    0.3810   -0.0050 hc        1 LED      0.031033
     20 HD2         0.9420    2.9890   -0.5600 h4        1 LED      0.016200
@<TRIPOS>BOND
     1    1    2 1   
     2    1   11 1   
     3    1   12 1   
     4    2    3 1   
     5    2    8 1   
     6    2   13 1   
     7    3    4 1   
     8    3   14 1   
     9    3   15 1   
    10    4    5 1   
    11    4    6 1   
    12    4   16 1   
    13    5   17 1   
    14    5   18 1   
    15    5   19 1   
    16    6    7 2   
    17    6   20 1   
    18    8    9 1   
    19    8   10 1   
@<TRIPOS>SUBSTRUCTURE
     1 LED         1 TEMP              0 ****  ****    0 ROOT
