@<TRIPOS>MOLECULE
LEE
   53    52     1     0     0
SMALL
bcc


@<TRIPOS>ATOM
      1 N          -6.8920    1.8280   -0.3520 n3        1 LEE     -0.895800
      2 CA         -6.0670    1.6860    0.8420 c3        1 LEE      0.020500
      3 C          -6.4230    2.6880    1.9910 c         1 LEE      0.888600
      4 O          -7.3870    3.4870    1.8070 o         1 LEE     -0.845800
      5 CB         -4.5650    1.7810    0.5620 c3        1 LEE     -0.063400
      6 CG         -4.0910    0.6660   -0.3460 c3        1 LEE     -0.145400
      7 CD         -2.6070    0.7650   -0.6490 c         1 LEE      0.663100
      8 OE1        -2.1950    1.1400   -1.7690 o         1 LEE     -0.642100
      9 OXT        -5.7470    2.6250    3.0540 o         1 LEE     -0.845800
     10 N1         -1.7250    0.4200    0.3560 n         1 LEE     -0.561900
     11 CA1        -0.2970    0.3630    0.1730 c3        1 LEE      0.038700
     12 CB1         0.4580    1.3660    1.0640 c3        1 LEE     -0.021300
     13 SG          1.8470    2.1140    0.2680 ss        1 LEE     -0.348200
     14 C1          3.2170    1.0600    0.6770 c3        1 LEE     -0.022300
     15 C2          4.4690    1.7440    0.1930 c3        1 LEE     -0.050400
     16 C3          5.6380    0.7780    0.2300 c3        1 LEE     -0.101400
     17 C4          6.8800    1.3990   -0.3700 c3        1 LEE     -0.068400
     18 C5          8.0440    0.4310   -0.3330 c3        1 LEE     -0.085400
     19 C6          9.2820    1.0240   -0.9540 c3        1 LEE     -0.087100
     20 C7          0.2330   -1.0570    0.5330 c         1 LEE      0.614100
     21 O1         -0.1570   -1.6090    1.5880 o         1 LEE     -0.652100
     22 N2          1.0640   -1.6730   -0.3680 n         1 LEE     -0.505900
     23 CA2         1.8200   -2.8520   -0.0210 c3        1 LEE     -0.060000
     24 C8          3.3230   -2.7880   -0.4060 c         1 LEE      0.901600
     25 O2          3.7930   -1.7160   -0.8910 o         1 LEE     -0.845800
     26 OXT1        4.0000   -3.8320   -0.2070 o         1 LEE     -0.845800
     27 H          -7.8180    2.0820   -0.0460 hn        1 LEE      0.331300
     28 H2         -6.5490    2.6050   -0.8890 hn        1 LEE      0.331300
     29 HA         -6.2820    0.6540    1.2500 h1        1 LEE      0.040700
     30 HB2        -4.3220    2.7730    0.1000 hc        1 LEE      0.055200
     31 HB3        -4.0410    1.7320    1.5540 hc        1 LEE      0.055200
     32 HG2        -4.3200   -0.3270    0.1210 hc        1 LEE      0.064700
     33 HG3        -4.6300    0.7140   -1.3290 hc        1 LEE      0.064700
     34 H1         -2.0760    0.0710    1.2180 hn        1 LEE      0.326500
     35 HA1        -0.0760    0.6130   -0.9100 h1        1 LEE      0.110700
     36 HB21       -0.2060    2.2320    1.3180 h1        1 LEE      0.082700
     37 HB31        0.7620    0.8740    2.0190 h1        1 LEE      0.082700
     38 H11         3.2540    0.8890    1.7790 h1        1 LEE      0.090200
     39 H12         3.1190    0.0590    0.1730 h1        1 LEE      0.090200
     40 H21         4.3170    2.1030   -0.8610 hc        1 LEE      0.033200
     41 H22         4.6930    2.6430    0.8240 hc        1 LEE      0.033200
     42 H31         5.8410    0.4780    1.2910 hc        1 LEE      0.075700
     43 H32         5.3600   -0.1610   -0.3320 hc        1 LEE      0.075700
     44 H41         6.6760    1.6960   -1.4330 hc        1 LEE      0.024200
     45 H42         7.1500    2.3340    0.1880 hc        1 LEE      0.024200
     46 H51         8.2570    0.1450    0.7310 hc        1 LEE      0.048200
     47 H52         7.7580   -0.5100   -0.8750 hc        1 LEE      0.048200
     48 H61         9.0970    1.2880   -2.0240 hc        1 LEE      0.020367
     49 H62         9.5900    1.9520   -0.4150 hc        1 LEE      0.020367
     50 H63        10.1270    0.2950   -0.9130 hc        1 LEE      0.020367
     51 H3          1.5110   -1.0960   -1.0530 hn        1 LEE      0.321500
     52 HA2         1.7500   -3.0500    1.0830 h1        1 LEE      0.048200
     53 HA3         1.3610   -3.7280   -0.5590 h1        1 LEE      0.048200
@<TRIPOS>BOND
     1    1    2 1   
     2    1   27 1   
     3    1   28 1   
     4    2    3 1   
     5    2    5 1   
     6    2   29 1   
     7    3    4 1   
     8    3    9 1   
     9    5    6 1   
    10    5   30 1   
    11    5   31 1   
    12    6    7 1   
    13    6   32 1   
    14    6   33 1   
    15    7    8 2   
    16    7   10 1   
    17   10   11 1   
    18   10   34 1   
    19   11   12 1   
    20   11   20 1   
    21   11   35 1   
    22   12   13 1   
    23   12   36 1   
    24   12   37 1   
    25   13   14 1   
    26   14   15 1   
    27   14   38 1   
    28   14   39 1   
    29   15   16 1   
    30   15   40 1   
    31   15   41 1   
    32   16   17 1   
    33   16   42 1   
    34   16   43 1   
    35   17   18 1   
    36   17   44 1   
    37   17   45 1   
    38   18   19 1   
    39   18   46 1   
    40   18   47 1   
    41   19   48 1   
    42   19   49 1   
    43   19   50 1   
    44   20   21 2   
    45   20   22 1   
    46   22   23 1   
    47   22   51 1   
    48   23   24 1   
    49   23   52 1   
    50   23   53 1   
    51   24   25 1   
    52   24   26 1   
@<TRIPOS>SUBSTRUCTURE
     1 LEE         1 TEMP              0 ****  ****    0 ROOT
