@<TRIPOS>MOLECULE
LEF
   21    20     1     0     0
SMALL
bcc


@<TRIPOS>ATOM
      1 CD1         0.3170   -0.8040    2.6440 c3        1 LEF      0.151900
      2 CD2         0.8310    1.4610    1.7230 c3        1 LEF     -0.084100
      3 CG         -0.0250    0.2250    1.5560 c3        1 LEF     -0.093700
      4 CB          0.1770   -0.4200    0.1940 c3        1 LEF     -0.060400
      5 N          -1.8810    0.4640   -0.9090 n3        1 LEF     -0.891800
      6 CA         -0.4270    0.3770   -0.9620 c3        1 LEF      0.017500
      7 C           0.1350   -0.2150   -2.3000 c         1 LEF      0.887600
      8 O          -0.6900   -0.5140   -3.2100 o         1 LEF     -0.843300
      9 F1          0.0120   -0.3550    3.9170 f         1 LEF     -0.270300
     10 OXT         1.3870   -0.3420   -2.4010 o         1 LEF     -0.843300
     11 HD12       -0.2620   -1.7520    2.4620 h1        1 LEF      0.033700
     12 HD13        1.4160   -1.0420    2.6070 h1        1 LEF      0.033700
     13 HD21        1.9050    1.2270    1.5250 hc        1 LEF      0.031033
     14 HD22        0.5060    2.2530    1.0070 hc        1 LEF      0.031033
     15 HD23        0.7370    1.8550    2.7640 hc        1 LEF      0.031033
     16 HG         -1.1050    0.5150    1.6780 hc        1 LEF      0.068700
     17 HB3         1.2750   -0.5270   -0.0180 hc        1 LEF      0.048700
     18 HB2        -0.2660   -1.4520    0.2030 hc        1 LEF      0.048700
     19 HA         -0.0420    1.4370   -0.9030 h1        1 LEF      0.042700
     20 H          -2.1890    0.8100   -1.8040 hn        1 LEF      0.330800
     21 H2         -2.2520   -0.4670   -0.8290 hn        1 LEF      0.330800
@<TRIPOS>BOND
     1    1    3 1   
     2    1    9 1   
     3    1   11 1   
     4    1   12 1   
     5    2    3 1   
     6    2   13 1   
     7    2   14 1   
     8    2   15 1   
     9    3    4 1   
    10    3   16 1   
    11    4    6 1   
    12    4   17 1   
    13    4   18 1   
    14    5    6 1   
    15    5   20 1   
    16    5   21 1   
    17    6    7 1   
    18    6   19 1   
    19    7    8 1   
    20    7   10 1   
@<TRIPOS>SUBSTRUCTURE
     1 LEF         1 TEMP              0 ****  ****    0 ROOT
