@<TRIPOS>MOLECULE
LEG
   36    36     1     0     0
SMALL
bcc


@<TRIPOS>ATOM
      1 C27        -7.1420   -0.6350    1.2370 c3        1 LEG     -0.093100
      2 C24        -6.2100   -0.1780    0.1450 c3        1 LEG     -0.080400
      3 C21        -4.7600   -0.3100    0.5610 c3        1 LEG     -0.079400
      4 C18        -3.8280    0.1500   -0.5380 c3        1 LEG     -0.080400
      5 C15        -2.3790    0.0170   -0.1190 c3        1 LEG     -0.076400
      6 C14        -1.4480    0.4760   -1.2250 c3        1 LEG     -0.043100
      7 C1         -0.0200    0.3860   -0.8160 ca        1 LEG     -0.050300
      8 C6          0.5070    1.2970    0.1080 ca        1 LEG     -0.142000
      9 C5          1.8440    1.2240    0.4860 ca        1 LEG     -0.083000
     10 C2          0.8160   -0.5970   -1.3580 ca        1 LEG     -0.142000
     11 C3          2.1530   -0.6770   -0.9750 ca        1 LEG     -0.083000
     12 C4          2.6760    0.2290   -0.0460 ca        1 LEG     -0.170600
     13 C11         4.0930    0.1750    0.3740 c         1 LEG      0.573900
     14 O13         4.7000    1.1950    0.7330 o         1 LEG     -0.536100
     15 C12         4.7340   -1.1540    0.3650 ce        1 LEG     -0.258200
     16 C33         6.0580   -1.3100    0.4160 c2        1 LEG     -0.135000
     17 H271       -6.9960   -0.0250    2.1610 hc        1 LEG      0.032700
     18 H272       -8.2050   -0.5290    0.9090 hc        1 LEG      0.032700
     19 H273       -6.9570   -1.7060    1.4910 hc        1 LEG      0.032700
     20 H241       -6.3890   -0.7840   -0.7820 hc        1 LEG      0.038700
     21 H242       -6.4280    0.8920   -0.1140 hc        1 LEG      0.038700
     22 H211       -4.5790    0.2970    1.4870 hc        1 LEG      0.040700
     23 H212       -4.5400   -1.3790    0.8190 hc        1 LEG      0.040700
     24 H181       -4.0090   -0.4580   -1.4640 hc        1 LEG      0.039700
     25 H182       -4.0490    1.2190   -0.7970 hc        1 LEG      0.039700
     26 H151       -2.1940    0.6290    0.8040 hc        1 LEG      0.045200
     27 H152       -2.1580   -1.0510    0.1410 hc        1 LEG      0.045200
     28 H141       -1.6260   -0.1460   -2.1430 hc        1 LEG      0.050700
     29 H142       -1.6880    1.5410   -1.4950 hc        1 LEG      0.050700
     30 H2          0.4160   -1.3110   -2.0930 ha        1 LEG      0.136000
     31 H3          2.8000   -1.4510   -1.4170 ha        1 LEG      0.143000
     32 H5          2.2650    1.9500    1.2000 ha        1 LEG      0.143000
     33 H6         -0.1420    2.0780    0.5340 ha        1 LEG      0.136000
     34 H12         4.0490   -2.0160    0.3270 ha        1 LEG      0.137000
     35 H331        6.7460   -0.4520    0.4640 ha        1 LEG      0.125000
     36 H332        6.5320   -2.3000    0.4120 ha        1 LEG      0.125000
@<TRIPOS>BOND
     1    1    2 1   
     2    1   17 1   
     3    1   18 1   
     4    1   19 1   
     5    2    3 1   
     6    2   20 1   
     7    2   21 1   
     8    3    4 1   
     9    3   22 1   
    10    3   23 1   
    11    4    5 1   
    12    4   24 1   
    13    4   25 1   
    14    5    6 1   
    15    5   26 1   
    16    5   27 1   
    17    6    7 1   
    18    6   28 1   
    19    6   29 1   
    20    7    8 ar  
    21    7   10 ar  
    22    8    9 ar  
    23    8   33 1   
    24    9   12 ar  
    25    9   32 1   
    26   10   11 ar  
    27   10   30 1   
    28   11   12 ar  
    29   11   31 1   
    30   12   13 1   
    31   13   14 2   
    32   13   15 1   
    33   15   16 2   
    34   15   34 1   
    35   16   35 1   
    36   16   36 1   
@<TRIPOS>SUBSTRUCTURE
     1 LEG         1 TEMP              0 ****  ****    0 ROOT
