@<TRIPOS>MOLECULE
LEG
   36    36     1     0     0
SMALL
bcc


@<TRIPOS>ATOM
      1 C27         0.0110    0.1000   -0.0350 c3        1 LEG     -0.093100
      2 C24         1.5150    0.0250    0.0030 c3        1 LEG     -0.080400
      3 C21         2.0350    0.0310    1.4250 c3        1 LEG     -0.079400
      4 C18         3.5460   -0.0460    1.4580 c3        1 LEG     -0.080400
      5 C15         4.0640   -0.0380    2.8810 c3        1 LEG     -0.076400
      6 C14         5.5790   -0.1180    2.9090 c3        1 LEG     -0.043100
      7 C1          6.1060   -0.0760    4.3000 ca        1 LEG     -0.050300
      8 C6          6.0800    1.1200    5.0280 ca        1 LEG     -0.142000
      9 C5          6.5820    1.1680    6.3250 ca        1 LEG     -0.083000
     10 C2          6.6470   -1.2230    4.8920 ca        1 LEG     -0.142000
     11 C3          7.1430   -1.1800    6.1940 ca        1 LEG     -0.083000
     12 C4          7.1090    0.0140    6.9220 ca        1 LEG     -0.170600
     13 C11         7.6350    0.0930    8.3020 c         1 LEG      0.573900
     14 O13         8.1010    1.1490    8.7560 o         1 LEG     -0.536100
     15 C12         7.5540   -1.1370    9.1110 ce        1 LEG     -0.258200
     16 C33         8.2540   -1.3020   10.2350 c2        1 LEG     -0.135000
     17 H271       -0.4420   -0.7710    0.4970 hc        1 LEG      0.032700
     18 H272       -0.3500    1.0360    0.4560 hc        1 LEG      0.032700
     19 H273       -0.3520    0.0950   -1.0920 hc        1 LEG      0.032700
     20 H241        1.8590   -0.9080   -0.5170 hc        1 LEG      0.038700
     21 H242        1.9500    0.8940   -0.5580 hc        1 LEG      0.038700
     22 H211        1.6020   -0.8390    1.9860 hc        1 LEG      0.040700
     23 H212        1.6940    0.9640    1.9460 hc        1 LEG      0.040700
     24 H181        3.8880   -0.9790    0.9380 hc        1 LEG      0.039700
     25 H182        3.9790    0.8230    0.8950 hc        1 LEG      0.039700
     26 H151        3.6300   -0.9060    3.4440 hc        1 LEG      0.045200
     27 H152        3.7280    0.8970    3.4010 hc        1 LEG      0.045200
     28 H141        5.9100   -1.0620    2.3990 hc        1 LEG      0.050700
     29 H142        6.0070    0.7420    2.3260 hc        1 LEG      0.050700
     30 H2          6.6830   -2.1660    4.3260 ha        1 LEG      0.136000
     31 H3          7.5730   -2.0890    6.6410 ha        1 LEG      0.143000
     32 H5          6.5770    2.1120    6.8940 ha        1 LEG      0.143000
     33 H6          5.6620    2.0280    4.5670 ha        1 LEG      0.136000
     34 H12         6.8660   -1.9120    8.7370 ha        1 LEG      0.137000
     35 H331        8.9350   -0.5270   10.6180 ha        1 LEG      0.125000
     36 H332        8.1890   -2.2180   10.8370 ha        1 LEG      0.125000
@<TRIPOS>BOND
     1    1    2 1   
     2    1   17 1   
     3    1   18 1   
     4    1   19 1   
     5    2    3 1   
     6    2   20 1   
     7    2   21 1   
     8    3    4 1   
     9    3   22 1   
    10    3   23 1   
    11    4    5 1   
    12    4   24 1   
    13    4   25 1   
    14    5    6 1   
    15    5   26 1   
    16    5   27 1   
    17    6    7 1   
    18    6   28 1   
    19    6   29 1   
    20    7    8 ar  
    21    7   10 ar  
    22    8    9 ar  
    23    8   33 1   
    24    9   12 ar  
    25    9   32 1   
    26   10   11 ar  
    27   10   30 1   
    28   11   12 ar  
    29   11   31 1   
    30   12   13 1   
    31   13   14 2   
    32   13   15 1   
    33   15   16 2   
    34   15   34 1   
    35   16   35 1   
    36   16   36 1   
@<TRIPOS>SUBSTRUCTURE
     1 LEG         1 TEMP              0 ****  ****    0 ROOT
