@<TRIPOS>MOLECULE
LEG
   36    33     1     0     0
SMALL
bcc


@<TRIPOS>ATOM
      1 C27        -3.4800    0.1150   -5.1720 c3        1 LEG     -0.211000
      2 C24        -3.2300   -0.5740   -3.8520 c3        1 LEG     -0.159000
      3 C21        -1.8440   -0.1820   -3.3190 c3        1 LEG     -0.158000
      4 C18        -1.4620   -1.0850   -2.2080 c3        1 LEG     -0.159000
      5 C15        -0.3630   -0.4260   -1.3730 c3        1 LEG     -0.155000
      6 C14         0.2000   -1.4570   -0.3810 c3        1 LEG     -0.128000
      7 C1          0.9110   -0.7600    0.7260 c2        1 LEG     -0.043000
      8 C6          0.2300   -0.4020    1.8560 c2        1 LEG     -0.143000
      9 C5          0.9210    0.1620    2.9390 c1        1 LEG     -0.090000
     10 C2          2.2940   -0.5640    0.6510 c1        1 LEG     -0.141000
     11 C3          2.9670   -0.0120    1.7120 c1        1 LEG     -0.075000
     12 C4          2.2800    0.3530    2.8610 c1        1 LEG     -0.150000
     13 C11         3.0330    0.9640    4.0430 c2        1 LEG      0.295000
     14 O13         4.2290    1.1320    3.9740 o         1 LEG     -0.297000
     15 C12         2.2550    1.4000    5.3210 c2        1 LEG     -0.239000
     16 C33         2.4010    2.6660    5.8140 c1        1 LEG     -0.135000
     17 H271       -4.4560    0.1990   -5.3180 hc        1 LEG      0.072333
     18 H272       -3.0790    0.9980   -5.1570 hc        1 LEG      0.072333
     19 H273       -3.0830   -0.4140   -5.9040 hc        1 LEG      0.072333
     20 H241       -3.9500   -0.2840   -3.1770 hc        1 LEG      0.078000
     21 H242       -3.2670   -1.4980   -3.9700 hc        1 LEG      0.078000
     22 H211       -1.8710    0.7240   -2.9990 hc        1 LEG      0.080500
     23 H212       -1.2000   -0.2530   -4.0170 hc        1 LEG      0.080500
     24 H181       -2.2090   -1.2500   -1.6660 hc        1 LEG      0.079500
     25 H182       -1.1130   -1.9800   -2.5960 hc        1 LEG      0.079500
     26 H151       -0.7500    0.3630   -0.8640 hc        1 LEG      0.085000
     27 H152        0.3560   -0.1130   -1.9660 hc        1 LEG      0.085000
     28 H141        0.7940   -2.0180   -0.8250 hc        1 LEG      0.090000
     29 H142       -0.5430   -1.9920   -0.0080 hc        1 LEG      0.090000
     30 H2          2.7970   -0.8290   -0.1810 ha        1 LEG      0.137000
     31 H3          3.9730    0.1290    1.6530 ha        1 LEG      0.151000
     32 H5          0.4470    0.4120    3.7300 ha        1 LEG      0.135000
     33 H6         -0.7510   -0.5410    1.9110 ha        1 LEG      0.135000
     34 H12         1.6670    0.7750    5.7660 ha        1 LEG      0.137000
     35 H331        2.9930    3.3010    5.3640 DU        1 LEG      0.133000
     36 H332        1.9040    2.9420    6.6320 ha        1 LEG      0.117000
@<TRIPOS>BOND
     1    1    2 1   
     2    1   17 1   
     3    1   18 1   
     4    1   19 1   
     5    2    3 1   
     6    2   20 1   
     7    2   21 1   
     8    3    4 1   
     9    3   22 1   
    10    3   23 1   
    11    4    5 1   
    12    4   24 1   
    13    4   25 1   
    14    5    6 1   
    15    5   26 1   
    16    5   27 1   
    17    6    7 1   
    18    6   28 1   
    19    6   29 1   
    20    7    8 1   
    21    7   10 1   
    22    8    9 1   
    23    8   33 1   
    24    9   32 1   
    25   10   30 1   
    26   11   12 1   
    27   11   31 1   
    28   12   13 1   
    29   13   14 1   
    30   13   15 1   
    31   15   16 1   
    32   15   34 1   
    33   16   36 1   
@<TRIPOS>SUBSTRUCTURE
     1 LEG         1 TEMP              0 ****  ****    0 ROOT
