@<TRIPOS>MOLECULE
LEG
   36    36     1     0     0
SMALL
bcc


@<TRIPOS>ATOM
      1 C27         0.0280   -0.1020   -0.0860 c3        1 LEG     -0.093100
      2 C24         1.5330   -0.0580   -0.0230 c3        1 LEG     -0.080400
      3 C21         2.0280   -0.0320    1.4070 c3        1 LEG     -0.079400
      4 C18         3.5400    0.0140    1.4650 c3        1 LEG     -0.080400
      5 C15         4.0330    0.0390    2.8960 c3        1 LEG     -0.076400
      6 C14         5.5480    0.0870    2.9490 c3        1 LEG     -0.042100
      7 C1          6.0510    0.0780    4.3500 ca        1 LEG     -0.050300
      8 C6          6.5910    1.2360    4.9210 ca        1 LEG     -0.142000
      9 C5          7.0650    1.2200    6.2310 ca        1 LEG     -0.082500
     10 C2          5.9930   -1.0970    5.1110 ca        1 LEG     -0.142000
     11 C3          6.4740   -1.1180    6.4170 ca        1 LEG     -0.082500
     12 C4          7.0190    0.0400    6.9850 ca        1 LEG     -0.170600
     13 C11         7.5320    0.0520    8.3730 c         1 LEG      0.573900
     14 O13         7.5140    1.0840    9.0590 o         1 LEG     -0.536100
     15 C12         8.0820   -1.2180    8.8840 ce        1 LEG     -0.258200
     16 C33         8.2870   -1.4370   10.1840 c2        1 LEG     -0.135000
     17 H271       -0.3610   -1.0150    0.4270 hc        1 LEG      0.033033
     18 H272       -0.4140    0.7940    0.4120 hc        1 LEG      0.033033
     19 H273       -0.3160   -0.1210   -1.1480 hc        1 LEG      0.033033
     20 H241        1.9580   -0.9520   -0.5500 hc        1 LEG      0.038700
     21 H242        1.9050    0.8520   -0.5650 hc        1 LEG      0.038700
     22 H211        1.6580   -0.9410    1.9490 hc        1 LEG      0.041200
     23 H212        1.6050    0.8630    1.9350 hc        1 LEG      0.041200
     24 H181        3.9640   -0.8800    0.9350 hc        1 LEG      0.040200
     25 H182        3.9100    0.9240    0.9230 hc        1 LEG      0.040200
     26 H151        3.6680   -0.8730    3.4380 hc        1 LEG      0.045700
     27 H152        3.6080    0.9320    3.4250 hc        1 LEG      0.045700
     28 H141        5.9680   -0.7990    2.4000 hc        1 LEG      0.050700
     29 H142        5.9090    1.0080    2.4160 hc        1 LEG      0.050700
     30 H2          5.5620   -2.0080    4.6700 ha        1 LEG      0.136000
     31 H3          6.4130   -2.0460    7.0050 ha        1 LEG      0.143000
     32 H5          7.4750    2.1340    6.6880 ha        1 LEG      0.143000
     33 H6          6.6380    2.1660    4.3360 ha        1 LEG      0.136000
     34 H12         8.3290   -1.9740    8.1220 ha        1 LEG      0.137000
     35 H331        8.0520   -0.6800   10.9480 ha        1 LEG      0.125000
     36 H332        8.7010   -2.3810   10.5610 ha        1 LEG      0.125000
@<TRIPOS>BOND
     1    1    2 1   
     2    1   17 1   
     3    1   18 1   
     4    1   19 1   
     5    2    3 1   
     6    2   20 1   
     7    2   21 1   
     8    3    4 1   
     9    3   22 1   
    10    3   23 1   
    11    4    5 1   
    12    4   24 1   
    13    4   25 1   
    14    5    6 1   
    15    5   26 1   
    16    5   27 1   
    17    6    7 1   
    18    6   28 1   
    19    6   29 1   
    20    7    8 ar  
    21    7   10 ar  
    22    8    9 ar  
    23    8   33 1   
    24    9   12 ar  
    25    9   32 1   
    26   10   11 ar  
    27   10   30 1   
    28   11   12 ar  
    29   11   31 1   
    30   12   13 1   
    31   13   14 2   
    32   13   15 1   
    33   15   16 2   
    34   15   34 1   
    35   16   35 1   
    36   16   36 1   
@<TRIPOS>SUBSTRUCTURE
     1 LEG         1 TEMP              0 ****  ****    0 ROOT
