@<TRIPOS>MOLECULE
LEH
   63    63     1     0     0
SMALL
bcc


@<TRIPOS>ATOM
      1 O3          5.4550   -2.5880    0.6980 o         1 LEH     -0.653100
      2 C7          4.8810   -1.6610    0.0800 c         1 LEH      0.639100
      3 N1          5.4110   -0.4030   -0.0650 n         1 LEH     -0.503900
      4 C6          6.4080    0.1310    0.8460 c3        1 LEH     -0.058300
      5 C5          7.7560    0.4070    0.1750 c3        1 LEH     -0.062400
      6 C4          8.4560   -0.8230   -0.3800 c3        1 LEH     -0.065700
      7 C3          9.7380   -0.4110   -1.0770 c3        1 LEH     -0.090100
      8 C2          8.7510   -1.8390    0.7040 c3        1 LEH     -0.090100
      9 C1          5.9300    1.4860    1.4970 c         1 LEH      0.907600
     10 O2          6.6160    1.9150    2.4610 o         1 LEH     -0.833300
     11 O1          4.9040    2.0520    1.0230 o         1 LEH     -0.833300
     12 C8          3.5680   -1.9480   -0.6410 c3        1 LEH     -0.157400
     13 C9          2.4190   -1.2130    0.0120 c3        1 LEH     -0.085400
     14 C10         1.1060   -1.5460   -0.6650 c3        1 LEH     -0.075400
     15 C11        -0.0440   -0.8040   -0.0180 c3        1 LEH     -0.081400
     16 C12        -1.3580   -1.1270   -0.6950 c3        1 LEH     -0.077400
     17 C13        -2.5070   -0.3870   -0.0450 c3        1 LEH     -0.080400
     18 C14        -3.8220   -0.7130   -0.7210 c3        1 LEH     -0.078400
     19 C15        -4.9740    0.0210   -0.0680 c3        1 LEH     -0.079400
     20 C16        -6.2870   -0.3140   -0.7420 c3        1 LEH     -0.079400
     21 C17        -7.4400    0.4100   -0.0820 c3        1 LEH     -0.101400
     22 C18        -8.7490    0.0390   -0.7830 c3        1 LEH      0.037300
     23 N2         -9.9240    0.6430   -0.2260 na        1 LEH     -0.203900
     24 C20       -10.5870    0.2520    0.9400 cc        1 LEH     -0.255600
     25 C21       -11.6520    1.1570    1.1070 cd        1 LEH      0.285200
     26 N3        -11.6480    2.0960    0.0770 nd        1 LEH     -0.672000
     27 C19       -10.5980    1.7760   -0.7090 cc        1 LEH      0.385400
     28 HN1         4.7870    0.3090   -0.3970 hn        1 LEH      0.315500
     29 H6          6.5690   -0.6050    1.6860 h1        1 LEH      0.067700
     30 H5          7.6140    1.1480   -0.6550 hc        1 LEH      0.047700
     31 H5A         8.4030    0.8910    0.9560 hc        1 LEH      0.047700
     32 H4          7.7830   -1.3090   -1.1410 hc        1 LEH      0.044700
     33 H3         10.2450   -1.3000   -1.5220 hc        1 LEH      0.026533
     34 H3A         9.5200    0.3190   -1.8930 hc        1 LEH      0.026533
     35 H3B        10.4390    0.0700   -0.3530 hc        1 LEH      0.026533
     36 H2          7.7950   -2.2860    1.0760 hc        1 LEH      0.026533
     37 H2A         9.3950   -2.6590    0.3050 hc        1 LEH      0.026533
     38 H2B         9.2800   -1.3570    1.5610 hc        1 LEH      0.026533
     39 H8          3.6520   -1.6550   -1.7200 hc        1 LEH      0.052200
     40 H8A         3.3890   -3.0540   -0.6000 hc        1 LEH      0.052200
     41 H9          2.3650   -1.4940    1.0970 hc        1 LEH      0.062200
     42 H9A         2.5930   -0.1040   -0.0300 hc        1 LEH      0.062200
     43 H10         1.1640   -1.2740   -1.7520 hc        1 LEH      0.031700
     44 H10A        0.9210   -2.6510   -0.6090 hc        1 LEH      0.031700
     45 H11        -0.1020   -1.0770    1.0690 hc        1 LEH      0.046700
     46 H11A        0.1470    0.3010   -0.0690 hc        1 LEH      0.046700
     47 H12        -1.2990   -0.8510   -1.7810 hc        1 LEH      0.034700
     48 H12A       -1.5460   -2.2320   -0.6450 hc        1 LEH      0.034700
     49 H13        -2.5640   -0.6610    1.0410 hc        1 LEH      0.042700
     50 H13A       -2.3200    0.7180   -0.0970 hc        1 LEH      0.042700
     51 H14        -3.7650   -0.4330   -1.8060 hc        1 LEH      0.037200
     52 H14A       -4.0050   -1.8190   -0.6740 hc        1 LEH      0.037200
     53 H15        -5.0270   -0.2540    1.0190 hc        1 LEH      0.043700
     54 H15A       -4.7940    1.1270   -0.1200 hc        1 LEH      0.043700
     55 H16        -6.2340   -0.0320   -1.8270 hc        1 LEH      0.040200
     56 H16A       -6.4590   -1.4220   -0.6960 hc        1 LEH      0.040200
     57 H17        -7.4930    0.1310    1.0030 hc        1 LEH      0.055700
     58 H17A       -7.2740    1.5170   -0.1350 hc        1 LEH      0.055700
     59 H18        -8.6810    0.3430   -1.8670 h1        1 LEH      0.058700
     60 H18A       -8.8780   -1.0810   -0.7400 h1        1 LEH      0.058700
     61 H20       -10.2690   -0.6030    1.5310 h4        1 LEH      0.175000
     62 H21       -12.4020    1.1790    1.8960 h4        1 LEH      0.038100
     63 H19       -10.2910    2.3030   -1.6180 h5        1 LEH      0.058100
@<TRIPOS>BOND
     1    1    2 2   
     2    2    3 1   
     3    2   12 1   
     4    3    4 1   
     5    3   28 1   
     6    4    5 1   
     7    4    9 1   
     8    4   29 1   
     9    5    6 1   
    10    5   30 1   
    11    5   31 1   
    12    6    7 1   
    13    6    8 1   
    14    6   32 1   
    15    7   33 1   
    16    7   34 1   
    17    7   35 1   
    18    8   36 1   
    19    8   37 1   
    20    8   38 1   
    21    9   10 1   
    22    9   11 1   
    23   12   13 1   
    24   12   39 1   
    25   12   40 1   
    26   13   14 1   
    27   13   41 1   
    28   13   42 1   
    29   14   15 1   
    30   14   43 1   
    31   14   44 1   
    32   15   16 1   
    33   15   45 1   
    34   15   46 1   
    35   16   17 1   
    36   16   47 1   
    37   16   48 1   
    38   17   18 1   
    39   17   49 1   
    40   17   50 1   
    41   18   19 1   
    42   18   51 1   
    43   18   52 1   
    44   19   20 1   
    45   19   53 1   
    46   19   54 1   
    47   20   21 1   
    48   20   55 1   
    49   20   56 1   
    50   21   22 1   
    51   21   57 1   
    52   21   58 1   
    53   22   23 1   
    54   22   59 1   
    55   22   60 1   
    56   23   24 1   
    57   23   27 1   
    58   24   25 2   
    59   24   61 1   
    60   25   26 1   
    61   25   62 1   
    62   26   27 2   
    63   27   63 1   
@<TRIPOS>SUBSTRUCTURE
     1 LEH         1 TEMP              0 ****  ****    0 ROOT
