@<TRIPOS>MOLECULE
LEH
   63    59     1     0     0
SMALL
bcc


@<TRIPOS>ATOM
      1 O3          3.1860    4.3570   -0.5750 o         1 LEH     -0.419000
      2 C7          2.3830    3.7580   -1.2220 c1        1 LEH      0.285000
      3 N1          2.5820    3.6010   -2.6820 n2        1 LEH     -0.330000
      4 C6          3.1840    4.6200   -3.4150 c3        1 LEH     -0.072000
      5 C5          2.2060    5.1660   -4.3990 c3        1 LEH     -0.136000
      6 C4          2.9690    5.7990   -5.5880 c3        1 LEH     -0.126000
      7 C3          2.3220    7.1360   -5.9640 c3        1 LEH     -0.198000
      8 C2          2.9100    4.8600   -6.7830 c3        1 LEH     -0.198000
      9 C1          3.6390    5.7680   -2.4410 c2        1 LEH      0.329000
     10 O2          4.7810    5.8610   -2.1220 o         1 LEH     -0.567500
     11 O1          2.7630    6.6190   -1.9840 o         1 LEH     -0.567500
     12 C8          1.0240    3.3400   -0.5790 c3        1 LEH     -0.186000
     13 C9          1.2380    2.1310    0.3360 c3        1 LEH     -0.150000
     14 C10        -0.1070    1.4470    0.6100 c3        1 LEH     -0.158000
     15 C11         0.1340    0.1520    1.4290 c3        1 LEH     -0.153000
     16 C12        -0.2830   -1.0420    0.6150 c3        1 LEH     -0.160000
     17 C13        -1.0970   -2.0410    1.5260 c3        1 LEH     -0.157000
     18 C14        -0.9890   -3.4800    0.9450 c3        1 LEH     -0.159000
     19 C15        -2.1680   -4.2820    1.3850 c3        1 LEH     -0.157000
     20 C16        -1.6800   -5.5390    2.1230 c3        1 LEH     -0.161000
     21 C17        -2.8340   -6.0820    3.0800 c3        1 LEH     -0.178000
     22 C18        -2.3440   -6.0440    4.5570 c3        1 LEH     -0.024000
     23 N2         -3.3990   -6.4350    5.4170 n3        1 LEH     -0.158000
     24 C20        -4.4780   -5.7050    5.7110 c1        1 LEH     -0.168000
     25 C21        -5.2060   -6.3820    6.6550 c1        1 LEH     -0.182000
     26 N3         -4.5640   -7.5250    6.9320 n2        1 LEH     -0.147000
     27 C19        -3.4360   -7.5650    6.1650 c1        1 LEH     -0.103000
     28 HN1         2.4000    2.8170   -3.0740 hn        1 LEH      0.238000
     29 H6          4.0040    4.2440   -3.9170 h1        1 LEH      0.104000
     30 H5          1.6750    5.8220   -3.9790 hc        1 LEH      0.068000
     31 H5A         1.5990    4.3980   -4.7450 hc        1 LEH      0.068000
     32 H4          3.8740    5.9440   -5.3420 hc        1 LEH      0.149000
     33 H3          2.2990    7.7410   -5.1580 hc        1 LEH      0.059833
     34 H3A         2.8590    7.5700   -6.6960 hc        1 LEH      0.059833
     35 H3B         1.4030    6.9760   -6.2810 hc        1 LEH      0.059833
     36 H2          3.1000    5.3650   -7.6060 hc        1 LEH      0.059833
     37 H2A         2.0600    4.4850   -6.8390 hc        1 LEH      0.059833
     38 H2B         3.6030    4.1200   -6.6710 hc        1 LEH      0.059833
     39 H8          0.6730    4.0780   -0.0590 hc        1 LEH      0.092500
     40 H8A         0.4010    3.1120   -1.2720 hc        1 LEH      0.092500
     41 H9          1.8010    1.5420   -0.0700 hc        1 LEH      0.094500
     42 H9A         1.6670    2.4540    1.2580 hc        1 LEH      0.094500
     43 H10        -0.5360    1.2190   -0.2390 hc        1 LEH      0.074000
     44 H10A       -0.7170    2.0860    1.1420 hc        1 LEH      0.074000
     45 H11        -0.3940    0.1830    2.2630 hc        1 LEH      0.073500
     46 H11A        1.0640    0.0790    1.6430 hc        1 LEH      0.073500
     47 H12         0.5580   -1.5190    0.2480 hc        1 LEH      0.084500
     48 H12A       -0.8340   -0.7550   -0.1190 hc        1 LEH      0.084500
     49 H13        -2.0450   -1.7660    1.5500 hc        1 LEH      0.075000
     50 H13A       -0.7160   -2.0260    2.4700 hc        1 LEH      0.075000
     51 H14        -0.9680   -3.4330   -0.1070 hc        1 LEH      0.083000
     52 H14A       -0.0770   -3.9500    1.3040 hc        1 LEH      0.083000
     53 H15        -2.7150   -3.7490    1.9790 hc        1 LEH      0.075000
     54 H15A       -2.6680   -4.5310    0.6460 hc        1 LEH      0.075000
     55 H16        -1.4330   -6.2640    1.4380 hc        1 LEH      0.089000
     56 H16A       -0.8490   -5.3020    2.6880 hc        1 LEH      0.089000
     57 H17        -3.0570   -7.0110    2.8300 hc        1 LEH      0.091500
     58 H17A       -3.6340   -5.5160    2.9840 hc        1 LEH      0.091500
     59 H18        -1.5710   -6.6750    4.6700 h1        1 LEH      0.102000
     60 H18A       -2.0360   -5.0650    4.7990 h1        1 LEH      0.102000
     61 H20        -4.7170   -4.8010    5.3030 DU        1 LEH      0.181667
     62 H21        -6.0610   -6.0770    7.0610 DU        1 LEH      0.181667
     63 H19        -2.7480   -8.2890    6.1640 DU        1 LEH      0.181667
@<TRIPOS>BOND
     1    1    2 1   
     2    2   12 1   
     3    3    4 1   
     4    3   28 1   
     5    4    5 1   
     6    4    9 1   
     7    4   29 1   
     8    5    6 1   
     9    5   30 1   
    10    5   31 1   
    11    6    7 1   
    12    6    8 1   
    13    6   32 1   
    14    7   33 1   
    15    7   34 1   
    16    7   35 1   
    17    8   36 1   
    18    8   37 1   
    19    8   38 1   
    20    9   10 1   
    21    9   11 1   
    22   12   13 1   
    23   12   39 1   
    24   12   40 1   
    25   13   14 1   
    26   13   41 1   
    27   13   42 1   
    28   14   15 1   
    29   14   43 1   
    30   14   44 1   
    31   15   16 1   
    32   15   45 1   
    33   15   46 1   
    34   16   17 1   
    35   16   47 1   
    36   16   48 1   
    37   17   18 1   
    38   17   49 1   
    39   17   50 1   
    40   18   19 1   
    41   18   51 1   
    42   18   52 1   
    43   19   20 1   
    44   19   53 1   
    45   19   54 1   
    46   20   21 1   
    47   20   55 1   
    48   20   56 1   
    49   21   22 1   
    50   21   57 1   
    51   21   58 1   
    52   22   23 1   
    53   22   59 1   
    54   22   60 1   
    55   23   24 1   
    56   23   27 1   
    57   24   25 1   
    58   25   26 1   
    59   26   27 1   
@<TRIPOS>SUBSTRUCTURE
     1 LEH         1 TEMP              0 ****  ****    0 ROOT
