@<TRIPOS>MOLECULE
LEI
   19    18     1     0     0
SMALL
bcc


@<TRIPOS>ATOM
      1 N           0.1500    1.8670   -0.6400 n3        1 LEI     -0.896800
      2 CA          0.3090    0.4300   -0.6140 c3        1 LEI      0.041500
      3 CB         -0.7080   -0.3350    0.2620 c3        1 LEI      0.089100
      4 C8         -0.4850   -1.8230    0.1510 c3        1 LEI     -0.098100
      5 C9         -0.6700    0.1200    1.7000 c3        1 LEI     -0.098100
      6 SG         -2.3540    0.0470   -0.4340 sh        1 LEI     -0.494900
      7 C           1.7580    0.0140   -0.1480 c         1 LEI      0.920600
      8 O           2.2560    0.6250    0.8400 o         1 LEI     -0.831300
      9 HN         -0.8030    2.1170   -0.4500 hn        1 LEI      0.340800
     10 HN2         0.7350    2.2780    0.0680 hn        1 LEI      0.340800
     11 HA          0.1760    0.0620   -1.6730 h1        1 LEI      0.063700
     12 H8          0.5580   -2.0720    0.4780 hc        1 LEI      0.044700
     13 H8A        -1.2130   -2.3820    0.7870 hc        1 LEI      0.044700
     14 H8B        -0.5990   -2.1540   -0.9100 hc        1 LEI      0.044700
     15 H9         -1.0900    1.1490    1.8050 hc        1 LEI      0.044700
     16 H9A        -1.2560   -0.5700    2.3540 hc        1 LEI      0.044700
     17 H9B         0.3980    0.1400    2.0480 hc        1 LEI      0.044700
     18 HSG        -3.1010   -0.5170    0.4940 hs        1 LEI      0.184800
     19 OXT         2.3190   -0.9160   -0.7840 o         1 LEI     -0.831300
@<TRIPOS>BOND
     1    1    2 1   
     2    1    9 1   
     3    1   10 1   
     4    2    3 1   
     5    2    7 1   
     6    2   11 1   
     7    3    4 1   
     8    3    5 1   
     9    3    6 1   
    10    4   12 1   
    11    4   13 1   
    12    4   14 1   
    13    5   15 1   
    14    5   16 1   
    15    5   17 1   
    16    6   18 1   
    17    7    8 1   
    18    7   19 1   
@<TRIPOS>SUBSTRUCTURE
     1 LEI         1 TEMP              0 ****  ****    0 ROOT
