@<TRIPOS>MOLECULE
LEM
   24    23     1     0     0
SMALL
bcc


@<TRIPOS>ATOM
      1 O           2.6420   -0.3800    0.8960 o         1 LEM     -0.537100
      2 C           1.8700    0.2430    0.1600 c         1 LEM      0.524100
      3 CZ          2.1600    1.6280   -0.3160 c3        1 LEM     -0.202100
      4 CA          0.5640   -0.3790   -0.3470 c3        1 LEM      0.069500
      5 N           0.5910   -1.8240   -0.4590 n3        1 LEM     -0.887800
      6 CB         -0.5700    0.1280    0.5600 c3        1 LEM     -0.065400
      7 CG         -1.9530   -0.1230   -0.0220 c3        1 LEM     -0.068700
      8 CD2        -2.9970   -0.0010    1.0710 c3        1 LEM     -0.091100
      9 CD1        -2.2660    0.8430   -1.1460 c3        1 LEM     -0.091100
     10 HZ          2.9830    2.0900    0.2820 hc        1 LEM      0.065700
     11 HZA         2.4750    1.5870   -1.3880 hc        1 LEM      0.065700
     12 HZB         1.2480    2.2680   -0.2380 hc        1 LEM      0.065700
     13 HA          0.3910    0.0210   -1.3920 h1        1 LEM      0.074700
     14 HN          1.4190   -2.1120   -0.9440 hn        1 LEM      0.354800
     15 HNA         0.5910   -2.2460    0.4500 hn        1 LEM      0.354800
     16 HB         -0.4920   -0.3680    1.5630 hc        1 LEM      0.047200
     17 HBA        -0.4320    1.2300    0.7180 hc        1 LEM      0.047200
     18 HG         -1.9920   -1.1720   -0.4330 hc        1 LEM      0.071700
     19 HD2        -2.9660    1.0150    1.5320 hc        1 LEM      0.033367
     20 HD2A       -4.0170   -0.1680    0.6500 hc        1 LEM      0.033367
     21 HD2B       -2.8160   -0.7590    1.8710 hc        1 LEM      0.033367
     22 HD1        -3.2880    0.6450   -1.5480 hc        1 LEM      0.033367
     23 HD1A       -2.2300    1.8980   -0.7810 hc        1 LEM      0.033367
     24 HD1B       -1.5330    0.7310   -1.9800 hc        1 LEM      0.033367
@<TRIPOS>BOND
     1    1    2 2   
     2    2    3 1   
     3    2    4 1   
     4    3   10 1   
     5    3   11 1   
     6    3   12 1   
     7    4    5 1   
     8    4    6 1   
     9    4   13 1   
    10    5   14 1   
    11    5   15 1   
    12    6    7 1   
    13    6   16 1   
    14    6   17 1   
    15    7    8 1   
    16    7    9 1   
    17    7   18 1   
    18    8   19 1   
    19    8   20 1   
    20    8   21 1   
    21    9   22 1   
    22    9   23 1   
    23    9   24 1   
@<TRIPOS>SUBSTRUCTURE
     1 LEM         1 TEMP              0 ****  ****    0 ROOT
