@<TRIPOS>MOLECULE
LEM
   24    22     1     0     0
SMALL
bcc


@<TRIPOS>ATOM
      1 O          -1.9150    0.7370   -1.9580 o         1 LEM     -0.297000
      2 C          -0.7000    0.7370   -1.9580 c1        1 LEM      0.184000
      3 CZ          0.0570    0.7390   -3.2680 c2        1 LEM     -0.270000
      4 CA          0.0560    0.7370   -0.6490 c3        1 LEM     -0.076000
      5 N           0.0390    2.0460   -0.0910 n3        1 LEM     -0.320000
      6 CB         -0.6000   -0.2280    0.3120 c3        1 LEM     -0.147000
      7 CG          0.4030   -0.6560    1.3600 c3        1 LEM     -0.101000
      8 CD2        -0.1560   -0.3750    2.7380 c3        1 LEM     -0.208500
      9 CD1         0.6790   -2.1370    1.2200 c3        1 LEM     -0.208500
     10 HZ         -0.5410    1.0170   -3.9880 ha        1 LEM      0.105000
     11 HZA         0.8080    1.3600   -3.2090 ha        1 LEM      0.105000
     12 HZB         0.3910   -0.1600   -3.4510 ha        1 LEM      0.105000
     13 HA          0.9790    0.4630   -0.8060 h1        1 LEM      0.112000
     14 HN          0.8180    2.4740   -0.2950 hn        1 LEM      0.150500
     15 HNA        -0.6640    2.5140   -0.4360 hn        1 LEM      0.150500
     16 HB         -0.9130   -1.0120   -0.1780 hc        1 LEM      0.087000
     17 HBA        -1.3580    0.2090    0.7450 hc        1 LEM      0.087000
     18 HG          1.2340   -0.1570    1.2390 hc        1 LEM      0.101000
     19 HD2         0.4650   -0.7040    3.4150 hc        1 LEM      0.073500
     20 HD2A       -1.0160   -0.8270    2.8380 hc        1 LEM      0.073500
     21 HD2B       -0.2800    0.5870    2.8490 hc        1 LEM      0.073500
     22 HD1         1.0860   -2.3110    0.3500 hc        1 LEM      0.073500
     23 HD1A       -0.1590   -2.6320    1.2920 hc        1 LEM      0.073500
     24 HD1B        1.2880   -2.4230    1.9280 hc        1 LEM      0.073500
@<TRIPOS>BOND
     1    1    2 1   
     2    2    4 1   
     3    3   10 1   
     4    3   11 1   
     5    3   12 1   
     6    4    5 1   
     7    4    6 1   
     8    4   13 1   
     9    5   14 1   
    10    5   15 1   
    11    6    7 1   
    12    6   16 1   
    13    6   17 1   
    14    7    8 1   
    15    7    9 1   
    16    7   18 1   
    17    8   19 1   
    18    8   20 1   
    19    8   21 1   
    20    9   22 1   
    21    9   23 1   
    22    9   24 1   
@<TRIPOS>SUBSTRUCTURE
     1 LEM         1 TEMP              0 ****  ****    0 ROOT
