@<TRIPOS>MOLECULE
LEN
   19    18     1     0     0
SMALL
bcc


@<TRIPOS>ATOM
      1 CD2        -1.3920    1.4040   -0.2970 c3        1 LEN     -0.090600
      2 CG         -1.0430    0.0520    0.2910 c3        1 LEN     -0.067700
      3 CD1        -2.1630   -0.9340    0.0240 c3        1 LEN     -0.090600
      4 CB          0.2660   -0.4820   -0.2730 c3        1 LEN     -0.080400
      5 CA          1.4690    0.2050    0.3710 c3        1 LEN      0.157800
      6 N           2.7360   -0.3070   -0.0940 n3        1 LEN     -0.916800
      7 HD21       -0.5920    2.1490   -0.0740 hc        1 LEN      0.033867
      8 HD22       -1.5100    1.3310   -1.4050 hc        1 LEN      0.033867
      9 HD23       -2.3520    1.7760    0.1360 hc        1 LEN      0.033867
     10 HG         -0.9330    0.1670    1.4070 hc        1 LEN      0.047700
     11 HD11       -2.2770   -1.1090   -1.0730 hc        1 LEN      0.033867
     12 HD12       -1.9480   -1.9130    0.5180 hc        1 LEN      0.033867
     13 HD13       -3.1290   -0.5410    0.4220 hc        1 LEN      0.033867
     14 HB1         0.3270   -1.5870   -0.0850 hc        1 LEN      0.047200
     15 HB2         0.2830   -0.3300   -1.3840 hc        1 LEN      0.047200
     16 HA1         1.3690    1.3200    0.2050 h1        1 LEN      0.024200
     17 HA2         1.4310    0.0350    1.4860 h1        1 LEN      0.024200
     18 HN1         2.7700   -0.3320   -1.0940 hn        1 LEN      0.347300
     19 HN2         3.4860    0.2610    0.2460 hn        1 LEN      0.347300
@<TRIPOS>BOND
     1    1    2 1   
     2    1    7 1   
     3    1    8 1   
     4    1    9 1   
     5    2    3 1   
     6    2    4 1   
     7    2   10 1   
     8    3   11 1   
     9    3   12 1   
    10    3   13 1   
    11    4    5 1   
    12    4   14 1   
    13    4   15 1   
    14    5    6 1   
    15    5   16 1   
    16    5   17 1   
    17    6   18 1   
    18    6   19 1   
@<TRIPOS>SUBSTRUCTURE
     1 LEN         1 TEMP              0 ****  ****    0 ROOT
