@<TRIPOS>MOLECULE
LEO
   27    28     1     0     0
SMALL
bcc


@<TRIPOS>ATOM
      1 C2          0.0090   -0.0130    0.0130 c3        1 LEO     -0.069400
      2 C3          0.3450    1.8430    1.8240 cx        1 LEO      0.078800
      3 C4          2.0830    0.0770    1.4040 c3        1 LEO     -0.073400
      4 C5          1.7830    1.4380    1.9990 c3        1 LEO     -0.062400
      5 C6          1.5340   -0.0330   -0.0140 c3        1 LEO     -0.027500
      6 C7         -0.5200    1.1250    0.8370 cx        1 LEO      0.069100
      7 C8          0.0450    3.2580    2.2060 c3        1 LEO     -0.083100
      8 O14        -0.6380    0.8760    2.2490 os        1 LEO     -0.404600
      9 C17         2.0540   -1.2580   -0.7030 c2        1 LEO     -0.108400
     10 C21         2.9070   -1.1630   -1.7280 c2        1 LEO     -0.226000
     11 C22         1.5820   -2.5730   -0.2040 c3        1 LEO     -0.061900
     12 H21        -0.3770   -0.9760    0.4430 hc        1 LEO      0.059700
     13 H22        -0.3780    0.0760   -1.0350 hc        1 LEO      0.059700
     14 H41         1.6200   -0.7180    2.0460 hc        1 LEO      0.052700
     15 H42         3.1910   -0.0890    1.3950 hc        1 LEO      0.052700
     16 H51         2.0290    1.4280    3.0940 hc        1 LEO      0.053700
     17 H52         2.4250    2.2170    1.5100 hc        1 LEO      0.053700
     18 H6          1.8810    0.8760   -0.5880 hc        1 LEO      0.051700
     19 H7         -1.4030    1.6400    0.4060 h1        1 LEO      0.085700
     20 H81         0.5670    3.9550    1.5070 hc        1 LEO      0.048367
     21 H82        -1.0530    3.4540    2.1640 hc        1 LEO      0.048367
     22 H83         0.4010    3.4570    3.2460 hc        1 LEO      0.048367
     23 H211        3.2600   -0.2000   -2.1180 ha        1 LEO      0.112500
     24 H212        3.3070   -2.0470   -2.2410 ha        1 LEO      0.112500
     25 H221        0.5400   -2.7670   -0.5620 hc        1 LEO      0.043700
     26 H222        2.2360   -3.4030   -0.5690 hc        1 LEO      0.043700
     27 H223        1.5770   -2.5930    0.9140 hc        1 LEO      0.043700
@<TRIPOS>BOND
     1    1    5 1   
     2    1    6 1   
     3    1   12 1   
     4    1   13 1   
     5    2    4 1   
     6    2    6 1   
     7    2    7 1   
     8    2    8 1   
     9    3    4 1   
    10    3    5 1   
    11    3   14 1   
    12    3   15 1   
    13    4   16 1   
    14    4   17 1   
    15    5    9 1   
    16    5   18 1   
    17    6    8 1   
    18    6   19 1   
    19    7   20 1   
    20    7   21 1   
    21    7   22 1   
    22    9   10 2   
    23    9   11 1   
    24   10   23 1   
    25   10   24 1   
    26   11   25 1   
    27   11   26 1   
    28   11   27 1   
@<TRIPOS>SUBSTRUCTURE
     1 LEO         1 TEMP              0 ****  ****    0 ROOT
