@<TRIPOS>MOLECULE
LEO
   27    28     1     0     0
SMALL
bcc


@<TRIPOS>ATOM
      1 C2          0.0050   -0.0080    0.0190 c3        1 LEO     -0.069400
      2 C3          0.3450    1.8400    1.8370 cx        1 LEO      0.078800
      3 C4          2.0840    0.0780    1.4030 c3        1 LEO     -0.073400
      4 C5          1.7850    1.4360    2.0050 c3        1 LEO     -0.062400
      5 C6          1.5300   -0.0260   -0.0140 c3        1 LEO     -0.027500
      6 C7         -0.5220    1.1250    0.8500 cx        1 LEO      0.069100
      7 C8          0.0450    3.2530    2.2260 c3        1 LEO     -0.083100
      8 O14        -0.6350    0.8700    2.2620 os        1 LEO     -0.404600
      9 C17         2.0480   -1.2480   -0.7100 c2        1 LEO     -0.108400
     10 C21         2.8970   -1.1470   -1.7390 c2        1 LEO     -0.226000
     11 C22         1.5810   -2.5660   -0.2150 c3        1 LEO     -0.061900
     12 H21        -0.3780   -0.9740    0.4470 hc        1 LEO      0.059700
     13 H22        -0.3860    0.0850   -1.0270 hc        1 LEO      0.059700
     14 H41         1.6250   -0.7200    2.0430 hc        1 LEO      0.052700
     15 H42         3.1920   -0.0860    1.3890 hc        1 LEO      0.052700
     16 H51         2.0340    1.4210    3.0980 hc        1 LEO      0.053700
     17 H52         2.4240    2.2180    1.5160 hc        1 LEO      0.053700
     18 H6          1.8730    0.8850   -0.5850 hc        1 LEO      0.051700
     19 H7         -1.4080    1.6410    0.4250 h1        1 LEO      0.085700
     20 H81         0.4050    3.4480    3.2650 hc        1 LEO      0.048367
     21 H82         0.5630    3.9540    1.5270 hc        1 LEO      0.048367
     22 H83        -1.0540    3.4480    2.1890 hc        1 LEO      0.048367
     23 H211        3.2470   -0.1820   -2.1260 ha        1 LEO      0.112500
     24 H212        3.2960   -2.0280   -2.2570 ha        1 LEO      0.112500
     25 H221        0.5370   -2.7590   -0.5690 hc        1 LEO      0.043700
     26 H222        1.5810   -2.5910    0.9030 hc        1 LEO      0.043700
     27 H223        2.2340   -3.3930   -0.5870 hc        1 LEO      0.043700
@<TRIPOS>BOND
     1    1    5 1   
     2    1    6 1   
     3    1   12 1   
     4    1   13 1   
     5    2    4 1   
     6    2    6 1   
     7    2    7 1   
     8    2    8 1   
     9    3    4 1   
    10    3    5 1   
    11    3   14 1   
    12    3   15 1   
    13    4   16 1   
    14    4   17 1   
    15    5    9 1   
    16    5   18 1   
    17    6    8 1   
    18    6   19 1   
    19    7   20 1   
    20    7   21 1   
    21    7   22 1   
    22    9   10 2   
    23    9   11 1   
    24   10   23 1   
    25   10   24 1   
    26   11   25 1   
    27   11   26 1   
    28   11   27 1   
@<TRIPOS>SUBSTRUCTURE
     1 LEO         1 TEMP              0 ****  ****    0 ROOT
