@<TRIPOS>MOLECULE
LEO
   27    27     1     0     0
SMALL
bcc


@<TRIPOS>ATOM
      1 C2         -1.0060   -0.1880   -0.7490 c3        1 LEO     -0.146000
      2 C3         -1.1620    0.9930    1.5840 cx        1 LEO      0.007000
      3 C4          1.0500   -0.1900    0.8820 c3        1 LEO     -0.152000
      4 C5          0.4060    0.9680    1.6980 c3        1 LEO     -0.141000
      5 C6          0.5130   -0.1890   -0.7490 c3        1 LEO     -0.072000
      6 C7         -1.6030    0.8960    0.1790 cx        1 LEO     -0.042000
      7 C8         -1.8810    2.1210    2.3330 c3        1 LEO     -0.201000
      8 O14        -1.9640   -0.1000    1.2440 os        1 LEO     -0.261000
      9 C17         1.0820   -1.2940   -1.5360 c2        1 LEO     -0.106000
     10 C21         0.8670   -2.5850   -1.1530 c1        1 LEO     -0.221000
     11 C22         1.9140   -0.9950   -2.7860 c3        1 LEO     -0.182000
     12 H21        -1.3230   -0.0290   -1.6670 hc        1 LEO      0.098500
     13 H22        -1.3230   -1.0690   -0.4520 hc        1 LEO      0.098500
     14 H41         0.8100   -1.0480    1.2970 hc        1 LEO      0.092000
     15 H42         2.0280   -0.0890    0.8970 hc        1 LEO      0.092000
     16 H51         0.6530    0.8640    2.6450 hc        1 LEO      0.092500
     17 H52         0.7610    1.8240    1.3690 hc        1 LEO      0.092500
     18 H6          0.8650    0.5900   -1.2340 hc        1 LEO      0.091000
     19 H7         -2.4430    1.3290   -0.0930 h1        1 LEO      0.125000
     20 H81        -1.6800    2.9810    1.9020 hc        1 LEO      0.087667
     21 H82        -2.8510    1.9620    2.3110 hc        1 LEO      0.087667
     22 H83        -1.5730    2.1420    3.2670 hc        1 LEO      0.087667
     23 H211        0.3340   -2.7760   -0.3530 DU        1 LEO      0.116000
     24 H212        1.2460   -3.3220   -1.6780 ha        1 LEO      0.113000
     25 H221        2.8180   -1.3650   -2.6740 hc        1 LEO      0.080667
     26 H222        1.9720   -0.0240   -2.9170 hc        1 LEO      0.080667
     27 H223        1.4870   -1.4070   -3.5700 hc        1 LEO      0.080667
@<TRIPOS>BOND
     1    1    5 1   
     2    1    6 1   
     3    1   12 1   
     4    1   13 1   
     5    2    4 1   
     6    2    6 1   
     7    2    7 1   
     8    2    8 1   
     9    3    4 1   
    10    3    5 1   
    11    3   14 1   
    12    3   15 1   
    13    4   16 1   
    14    4   17 1   
    15    5    9 1   
    16    5   18 1   
    17    6    8 1   
    18    6   19 1   
    19    7   20 1   
    20    7   21 1   
    21    7   22 1   
    22    9   10 1   
    23    9   11 1   
    24   10   24 1   
    25   11   25 1   
    26   11   26 1   
    27   11   27 1   
@<TRIPOS>SUBSTRUCTURE
     1 LEO         1 TEMP              0 ****  ****    0 ROOT
