@<TRIPOS>MOLECULE
LEO
   27    28     1     0     0
SMALL
bcc


@<TRIPOS>ATOM
      1 C2          1.0760    0.6860    0.2630 c3        1 LEO     -0.067400
      2 C3         -0.1650    0.0490   -1.9490 cx        1 LEO      0.079800
      3 C4         -0.8810   -0.8730    0.2740 c3        1 LEO     -0.074400
      4 C5         -1.2720   -0.5980   -1.1630 c3        1 LEO     -0.062400
      5 C6         -0.2620    0.3590    0.9210 c3        1 LEO     -0.027500
      6 C7          0.9850    0.6850   -1.2350 cx        1 LEO      0.069100
      7 C8         -0.5590    0.5140   -3.3160 c3        1 LEO     -0.083100
      8 O14         1.1220   -0.5980   -1.8730 os        1 LEO     -0.404600
      9 C17        -0.0880    0.1820    2.3990 c2        1 LEO     -0.109400
     10 C21        -0.4330    1.1480    3.2570 c2        1 LEO     -0.226000
     11 C22         0.4740   -1.1110    2.8610 c3        1 LEO     -0.061900
     12 H21         1.4180    1.6960    0.6100 hc        1 LEO      0.059200
     13 H22         1.8480   -0.0660    0.5770 hc        1 LEO      0.059200
     14 H41        -0.1410   -1.7170    0.3030 hc        1 LEO      0.052700
     15 H42        -1.7870   -1.1890    0.8520 hc        1 LEO      0.052700
     16 H51        -1.5600   -1.5610   -1.6620 hc        1 LEO      0.053700
     17 H52        -2.1630    0.0840   -1.1920 hc        1 LEO      0.053700
     18 H6         -0.9580    1.2300    0.7420 hc        1 LEO      0.051700
     19 H7          1.5640    1.4870   -1.7360 h1        1 LEO      0.085700
     20 H81        -1.0210   -0.3280   -3.8880 hc        1 LEO      0.048367
     21 H82        -1.3020    1.3430   -3.2320 hc        1 LEO      0.048367
     22 H83         0.3320    0.8780   -3.8810 hc        1 LEO      0.048367
     23 H211       -0.8590    2.1050    2.9300 ha        1 LEO      0.112000
     24 H212       -0.3090    1.0400    4.3420 ha        1 LEO      0.112000
     25 H221        0.7370   -1.0760    3.9460 hc        1 LEO      0.043033
     26 H222       -0.2740   -1.9290    2.7060 hc        1 LEO      0.043033
     27 H223        1.3950   -1.3690    2.2820 hc        1 LEO      0.043033
@<TRIPOS>BOND
     1    1    5 1   
     2    1    6 1   
     3    1   12 1   
     4    1   13 1   
     5    2    4 1   
     6    2    6 1   
     7    2    7 1   
     8    2    8 1   
     9    3    4 1   
    10    3    5 1   
    11    3   14 1   
    12    3   15 1   
    13    4   16 1   
    14    4   17 1   
    15    5    9 1   
    16    5   18 1   
    17    6    8 1   
    18    6   19 1   
    19    7   20 1   
    20    7   21 1   
    21    7   22 1   
    22    9   10 2   
    23    9   11 1   
    24   10   23 1   
    25   10   24 1   
    26   11   25 1   
    27   11   26 1   
    28   11   27 1   
@<TRIPOS>SUBSTRUCTURE
     1 LEO         1 TEMP              0 ****  ****    0 ROOT
