@<TRIPOS>MOLECULE
LEP
   26    23     1     0     0
SMALL
bcc


@<TRIPOS>ATOM
      1 C          -2.0520    0.2610   -0.5000 c1        1 LEP      0.241000
      2 N          -2.7620   -0.8710   -0.9710 n2        1 LEP     -0.433000
      3 O          -2.6590    1.2380   -0.1010 o         1 LEP     -0.524000
      4 P          -0.2030    1.4760   -2.8610 p3        1 LEP      2.556000
      5 N1         -0.0730    1.4050   -1.2100 n3        1 LEP     -0.828000
      6 O1         -1.6070    1.8860   -3.2380 o         1 LEP     -1.255500
      7 O2          0.1010    0.1150   -3.4500 os        1 LEP     -1.253000
      8 O3          0.7810    2.4900   -3.4010 o         1 LEP     -1.255500
      9 CA         -0.5370    0.2630   -0.5130 c3        1 LEP      0.054000
     10 CB         -0.0190    0.2940    0.9140 c3        1 LEP     -0.149000
     11 CG          1.1360   -0.6780    1.0540 c3        1 LEP     -0.100000
     12 CD1         2.3500    0.0540    1.5880 c3        1 LEP     -0.215500
     13 CD2         0.7510   -1.7830    2.0150 c3        1 LEP     -0.215500
     14 HN         -3.6750   -0.9010   -0.8990 hn        1 LEP      0.236500
     15 HNA        -2.3110   -1.5750   -1.3320 hn        1 LEP      0.236500
     16 HN1         0.2480    2.1200   -0.7480 hn        1 LEP      0.158000
     17 HA         -0.2140   -0.5450   -0.9590 h1        1 LEP      0.139000
     18 HB         -0.7340    0.0400    1.5250 hc        1 LEP      0.058000
     19 HBA         0.2890    1.2010    1.1300 hc        1 LEP      0.058000
     20 HG          1.3450   -1.0620    0.1830 hc        1 LEP      0.112000
     21 HD1         2.1420    0.4370    2.4690 hc        1 LEP      0.063667
     22 HD1A        3.1000   -0.5740    1.6720 hc        1 LEP      0.063667
     23 HD1B        2.5960    0.7750    0.9680 hc        1 LEP      0.063667
     24 HD2         1.5220   -2.3740    2.1590 hc        1 LEP      0.063667
     25 HD2A        0.4750   -1.3920    2.8690 hc        1 LEP      0.063667
     26 HD2B        0.0100   -2.3000    1.6380 hc        1 LEP      0.063667
@<TRIPOS>BOND
     1    1    3 1   
     2    1    9 1   
     3    2   14 1   
     4    2   15 1   
     5    4    5 1   
     6    4    6 1   
     7    4    8 1   
     8    5    9 1   
     9    5   16 1   
    10    9   10 1   
    11    9   17 1   
    12   10   11 1   
    13   10   18 1   
    14   10   19 1   
    15   11   12 1   
    16   11   13 1   
    17   11   20 1   
    18   12   21 1   
    19   12   22 1   
    20   12   23 1   
    21   13   24 1   
    22   13   25 1   
    23   13   26 1   
@<TRIPOS>SUBSTRUCTURE
     1 LEP         1 TEMP              0 ****  ****    0 ROOT
