@<TRIPOS>MOLECULE
LEP
   26    25     1     0     0
SMALL
bcc


@<TRIPOS>ATOM
      1 C           0.6730   -2.2550    0.0760 c         1 LEP      0.597100
      2 N          -0.4070   -2.8400   -0.5140 n         1 LEP     -0.673000
      3 O           1.5530   -2.9560    0.6510 o         1 LEP     -0.763100
      4 P          -1.5450    0.5130   -0.6150 p5        1 LEP      1.302800
      5 N1         -0.3530   -0.0260    0.4650 n3        1 LEP     -0.896300
      6 O1         -0.7650    1.1830   -1.7360 o         1 LEP     -0.935167
      7 O2         -2.2370   -0.7710   -1.0850 o         1 LEP     -0.935167
      8 O3         -2.4360    1.4180    0.2060 o         1 LEP     -0.935167
      9 CA          0.7650   -0.6960   -0.0560 c3        1 LEP      0.201500
     10 CB          2.1400   -0.2940    0.5090 c3        1 LEP     -0.070400
     11 CG          2.4530    1.1810    0.3130 c3        1 LEP     -0.060700
     12 CD1         3.7800    1.5130    0.9690 c3        1 LEP     -0.097600
     13 CD2         2.4720    1.5660   -1.1510 c3        1 LEP     -0.097600
     14 HN         -0.5980   -3.7910   -0.3300 hn        1 LEP      0.323000
     15 HNA        -1.1740   -2.2240   -0.8330 hn        1 LEP      0.323000
     16 HN1        -0.4290    0.0110    1.4420 hn        1 LEP      0.362800
     17 HA          0.7690   -0.4750   -1.1750 h1        1 LEP      0.099700
     18 HB          2.1790   -0.5390    1.6030 hc        1 LEP      0.018700
     19 HBA         2.9230   -0.9160    0.0030 hc        1 LEP      0.018700
     20 HG          1.6450    1.7840    0.8180 hc        1 LEP      0.072700
     21 HD1         4.0010    2.6030    0.8760 hc        1 LEP      0.024367
     22 HD1A        3.7600    1.2480    2.0530 hc        1 LEP      0.024367
     23 HD1B        4.6110    0.9440    0.4840 hc        1 LEP      0.024367
     24 HD2         1.4230    1.5330   -1.5690 hc        1 LEP      0.024367
     25 HD2A        2.8730    2.6020   -1.2720 hc        1 LEP      0.024367
     26 HD2B        3.1210    0.8700   -1.7340 hc        1 LEP      0.024367
@<TRIPOS>BOND
     1    1    2 1   
     2    1    3 2   
     3    1    9 1   
     4    2   14 1   
     5    2   15 1   
     6    4    5 1   
     7    4    6 1   
     8    4    7 1   
     9    4    8 1   
    10    5    9 1   
    11    5   16 1   
    12    9   10 1   
    13    9   17 1   
    14   10   11 1   
    15   10   18 1   
    16   10   19 1   
    17   11   12 1   
    18   11   13 1   
    19   11   20 1   
    20   12   21 1   
    21   12   22 1   
    22   12   23 1   
    23   13   24 1   
    24   13   25 1   
    25   13   26 1   
@<TRIPOS>SUBSTRUCTURE
     1 LEP         1 TEMP              0 ****  ****    0 ROOT
