@<TRIPOS>MOLECULE
LET
   49    48     1     0     0
SMALL
bcc


@<TRIPOS>ATOM
      1 O7          1.0890    4.0510    0.7200 o         1 LET     -0.528100
      2 O4          4.9740    5.5270   -2.4110 o         1 LET     -0.861800
      3 C11         4.7320    4.5210   -1.6800 c         1 LET      0.905600
      4 O3          5.5100    3.5250   -1.5990 o         1 LET     -0.861800
      5 C10         3.4460    4.5400   -0.8400 c3        1 LET     -0.182400
      6 C9          2.9050    3.1520   -0.6030 c3        1 LET     -0.167400
      7 C8          1.7950    3.0910    0.4070 c         1 LET      0.565100
      8 C7          1.6460    1.7170    1.0270 c3        1 LET      0.020400
      9 O6          0.3590    1.5770    1.6180 os        1 LET     -0.377600
     10 C5          0.2840    0.3740    2.3870 c3        1 LET      0.081100
     11 C4         -1.1350    0.0900    2.8500 c2        1 LET      0.425300
     12 C3         -1.1420   -0.5120    4.2360 c3        1 LET     -0.161700
     13 C2         -1.0390    0.5270    5.3280 c3        1 LET     -0.184400
     14 C1         -0.6420   -0.0990    6.6750 c         1 LET      0.906600
     15 O1         -1.1730    0.3680    7.7250 o         1 LET     -0.861300
     16 O2          0.2150   -1.0320    6.6910 o         1 LET     -0.861300
     17 NZ         -2.1410    0.3030    2.0710 n2        1 LET     -0.596900
     18 CE         -3.4950    0.0490    2.4900 c3        1 LET      0.106800
     19 CD         -4.0070   -1.3840    2.3130 c3        1 LET     -0.077400
     20 CG         -4.5690   -1.6370    0.9280 c3        1 LET     -0.078400
     21 CB         -5.0060   -3.0800    0.7820 c3        1 LET     -0.062400
     22 CA         -5.8440   -3.3950   -0.4610 c3        1 LET      0.031500
     23 N          -5.3270   -2.8360   -1.7020 n3        1 LET     -0.897800
     24 C          -7.3540   -3.0910   -0.1930 c         1 LET      0.887600
     25 O          -7.9820   -2.3650   -1.0210 o         1 LET     -0.855800
     26 OXT        -7.8950   -3.6330    0.8110 o         1 LET     -0.855800
     27 H101        3.6850    5.0260    0.1400 hc        1 LET      0.033200
     28 H102        2.6780    5.1730   -1.3500 hc        1 LET      0.033200
     29 H9C1        2.5100    2.7330   -1.5670 hc        1 LET      0.068700
     30 H9C2        3.7530    2.4870   -0.2800 hc        1 LET      0.068700
     31 H7C1        1.7800    0.9290    0.2360 h1        1 LET      0.039200
     32 H7C2        2.4500    1.5940    1.8040 h1        1 LET      0.039200
     33 H5C1        0.6370   -0.4970    1.7700 h1        1 LET      0.037200
     34 H5C2        0.9500    0.4870    3.2870 h1        1 LET      0.037200
     35 H3C1       -2.0740   -1.1200    4.3890 hc        1 LET      0.058200
     36 H3C2       -0.2730   -1.2200    4.3360 hc        1 LET      0.058200
     37 H2C1       -0.2570    1.2860    5.0670 hc        1 LET      0.030200
     38 H2C2       -2.0130    1.0660    5.4430 hc        1 LET      0.030200
     39 HEC1       -4.1310    0.7370    1.8610 h1        1 LET      0.039200
     40 HEC2       -3.6540    0.3410    3.5710 h1        1 LET      0.039200
     41 HDC1       -4.8170   -1.5550    3.0720 hc        1 LET      0.037700
     42 HDC2       -3.1920   -2.1210    2.5310 hc        1 LET      0.037700
     43 HGC1       -3.7830   -1.3860    0.1680 hc        1 LET      0.044200
     44 HGC2       -5.4460   -0.9610    0.7460 hc        1 LET      0.044200
     45 HBC1       -5.6300   -3.3740    1.6700 hc        1 LET      0.035700
     46 HBC2       -4.0910   -3.7300    0.7790 hc        1 LET      0.035700
     47 HA         -5.8010   -4.5190   -0.5980 h1        1 LET      0.029700
     48 HN1        -6.0990   -2.7690   -2.3460 hn        1 LET      0.332300
     49 HN2        -5.0160   -1.8950   -1.5380 hn        1 LET      0.332300
@<TRIPOS>BOND
     1    1    7 2   
     2    2    3 1   
     3    3    4 1   
     4    3    5 1   
     5    5    6 1   
     6    5   27 1   
     7    5   28 1   
     8    6    7 1   
     9    6   29 1   
    10    6   30 1   
    11    7    8 1   
    12    8    9 1   
    13    8   31 1   
    14    8   32 1   
    15    9   10 1   
    16   10   11 1   
    17   10   33 1   
    18   10   34 1   
    19   11   12 1   
    20   11   17 2   
    21   12   13 1   
    22   12   35 1   
    23   12   36 1   
    24   13   14 1   
    25   13   37 1   
    26   13   38 1   
    27   14   15 1   
    28   14   16 1   
    29   17   18 1   
    30   18   19 1   
    31   18   39 1   
    32   18   40 1   
    33   19   20 1   
    34   19   41 1   
    35   19   42 1   
    36   20   21 1   
    37   20   43 1   
    38   20   44 1   
    39   21   22 1   
    40   21   45 1   
    41   21   46 1   
    42   22   23 1   
    43   22   24 1   
    44   22   47 1   
    45   23   48 1   
    46   23   49 1   
    47   24   25 1   
    48   24   26 1   
@<TRIPOS>SUBSTRUCTURE
     1 LET         1 TEMP              0 ****  ****    0 ROOT
