@<TRIPOS>MOLECULE
LEU
   21    20     1     0     0
SMALL
bcc


@<TRIPOS>ATOM
      1 N          -1.9320    0.2840   -0.3820 n3        1 LEU     -0.891800
      2 CA         -0.4760    0.3540   -0.4190 c3        1 LEU      0.017500
      3 C           0.1510   -0.0470   -1.7970 c         1 LEU      0.886600
      4 O          -0.6320   -0.3870   -2.7310 o         1 LEU     -0.845800
      5 CB          0.2020   -0.4780    0.6700 c3        1 LEU     -0.059400
      6 CG         -0.0390    0.0420    2.0800 c3        1 LEU     -0.071700
      7 CD1         0.2570   -1.0430    3.0970 c3        1 LEU     -0.082600
      8 CD2         0.8120    1.2620    2.3680 c3        1 LEU     -0.082600
      9 OXT         1.4070    0.0110   -1.9080 o         1 LEU     -0.845800
     10 H          -2.2680    0.6450   -1.2610 hn        1 LEU      0.329300
     11 H2         -2.2030   -0.6830   -0.3570 hn        1 LEU      0.329300
     12 HA         -0.2070    1.4390   -0.2570 h1        1 LEU      0.040700
     13 HB2         1.3030   -0.4790    0.4490 hc        1 LEU      0.046200
     14 HB3        -0.1540   -1.5400    0.6050 hc        1 LEU      0.046200
     15 HG         -1.1220    0.3340    2.1810 hc        1 LEU      0.054700
     16 HD11        0.1120   -0.6590    4.1350 hc        1 LEU      0.021367
     17 HD12       -0.4240   -1.9150    2.9440 hc        1 LEU      0.021367
     18 HD13        1.3110   -1.3970    2.9940 hc        1 LEU      0.021367
     19 HD21        1.8980    1.0090    2.2950 hc        1 LEU      0.021367
     20 HD22        0.5900    2.0700    1.6300 hc        1 LEU      0.021367
     21 HD23        0.6070    1.6490    3.3950 hc        1 LEU      0.021367
@<TRIPOS>BOND
     1    1    2 1   
     2    1   10 1   
     3    1   11 1   
     4    2    3 1   
     5    2    5 1   
     6    2   12 1   
     7    3    4 1   
     8    3    9 1   
     9    5    6 1   
    10    5   13 1   
    11    5   14 1   
    12    6    7 1   
    13    6    8 1   
    14    6   15 1   
    15    7   16 1   
    16    7   17 1   
    17    7   18 1   
    18    8   19 1   
    19    8   20 1   
    20    8   21 1   
@<TRIPOS>SUBSTRUCTURE
     1 LEU         1 TEMP              0 ****  ****    0 ROOT
