@<TRIPOS>MOLECULE
LEV
   51    54     1     0     0
SMALL
bcc


@<TRIPOS>ATOM
      1 C1          0.8360   -0.6960   -0.5360 c3        1 LEV      0.116700
      2 O2          2.2040   -0.4220   -0.2020 os        1 LEV     -0.402900
      3 C3          2.5150   -0.2990    1.1350 ca        1 LEV      0.182100
      4 C4          1.5740   -0.4350    2.1360 ca        1 LEV     -0.246300
      5 C5          1.9430   -0.3000    3.5080 ca        1 LEV      0.506600
      6 N6          0.9800   -0.4450    4.4870 nb        1 LEV     -0.670000
      7 C7          1.3540   -0.3180    5.7490 ca        1 LEV      0.501200
      8 C8          2.6900   -0.0390    6.1770 ca        1 LEV     -0.327300
      9 C9          3.6580    0.1090    5.2100 ca        1 LEV      0.193100
     10 C10         3.3150   -0.0180    3.8160 ca        1 LEV     -0.217300
     11 C11         4.2550    0.1170    2.7830 ca        1 LEV      0.056000
     12 C12         3.8870   -0.0190    1.4410 ca        1 LEV     -0.241600
     13 C13         4.9660    0.1460    0.4790 c         1 LEV      0.582700
     14 O14         6.1430    0.4090    0.7060 o         1 LEV     -0.444100
     15 N15         4.6640   -0.0180   -0.9910 n4        1 LEV     -0.742400
     16 O16         4.9990    0.3540    5.4480 os        1 LEV     -0.242200
     17 C17         5.3790    0.6100    6.7670 ca        1 LEV      0.102100
     18 C18         6.3400   -0.2450    7.3190 ca        1 LEV     -0.093000
     19 C19         6.8670    0.0490    8.5780 ca        1 LEV      0.010400
     20 C20         6.4340    1.2000    9.2850 ca        1 LEV      0.017600
     21 C21         5.4580    2.0360    8.7080 ca        1 LEV     -0.098000
     22 C22         4.9310    1.7430    7.4540 ca        1 LEV     -0.119000
     23 N23         7.0260    1.4960   10.5420 n         1 LEV     -0.415100
     24 C24         6.3410    2.1230   11.5450 c         1 LEV      0.651100
     25 O25         5.2300    2.6620   11.5230 o         1 LEV     -0.481100
     26 N26         7.0300    2.2240   12.9170 n4        1 LEV     -0.629800
     27 C27         8.4460    2.6030   12.8330 cx        1 LEV     -0.024500
     28 C28         9.3740    2.3930   14.0150 cx        1 LEV     -0.098900
     29 C29         9.5420    1.5560   12.7870 cx        1 LEV     -0.098900
     30 CL          8.0360   -0.9930    9.2330 cl        1 LEV     -0.046400
     31 H1          0.5230   -1.6760   -0.1010 h1        1 LEV      0.073700
     32 H2          0.1800    0.1360   -0.1810 h1        1 LEV      0.073700
     33 H3          0.8560   -0.7420   -1.6550 h1        1 LEV      0.073700
     34 H4          0.5170   -0.6520    1.9020 ha        1 LEV      0.190000
     35 H5          0.5540   -0.4440    6.5080 h4        1 LEV      0.056100
     36 H6          2.9110    0.0450    7.2500 ha        1 LEV      0.170000
     37 H7          5.3090    0.3360    3.0430 ha        1 LEV      0.185000
     38 H8          4.2740   -0.9530   -1.1580 hn        1 LEV      0.474133
     39 H9          5.5170    0.1130   -1.5470 hn        1 LEV      0.474133
     40 H10         6.6810   -1.1320    6.7590 ha        1 LEV      0.189000
     41 H11         5.0970    2.9330    9.2420 ha        1 LEV      0.179000
     42 H12         4.1730    2.4050    7.0040 ha        1 LEV      0.175000
     43 H13         7.9400    1.1210   10.7080 hn        1 LEV      0.363500
     44 H14         6.9270    1.3270   13.4050 hn        1 LEV      0.472800
     45 H15         8.5560    3.5340   12.2260 hx        1 LEV      0.153700
     46 H16        10.1010    3.2010   14.2390 hc        1 LEV      0.116700
     47 H17         8.9970    1.9210   14.9430 hc        1 LEV      0.116700
     48 H18        10.3980    1.7430   12.1070 hc        1 LEV      0.116700
     49 H19         9.2870    0.4800   12.8350 hc        1 LEV      0.116700
     50 H153        3.9520    0.6680   -1.2720 hn        1 LEV      0.474133
     51 H262        6.5160    2.9450   13.4510 hn        1 LEV      0.472800
@<TRIPOS>BOND
     1    1    2 1   
     2    1   31 1   
     3    1   32 1   
     4    1   33 1   
     5    2    3 1   
     6    3    4 ar  
     7    3   12 ar  
     8    4    5 ar  
     9    4   34 1   
    10    5    6 ar  
    11    5   10 ar  
    12    6    7 ar  
    13    7    8 ar  
    14    7   35 1   
    15    8    9 ar  
    16    8   36 1   
    17    9   10 ar  
    18    9   16 1   
    19   10   11 ar  
    20   11   12 ar  
    21   11   37 1   
    22   12   13 1   
    23   13   14 2   
    24   13   15 1   
    25   15   38 1   
    26   15   39 1   
    27   15   50 1   
    28   16   17 1   
    29   17   18 ar  
    30   17   22 ar  
    31   18   19 ar  
    32   18   40 1   
    33   19   20 ar  
    34   19   30 1   
    35   20   21 ar  
    36   20   23 1   
    37   21   22 ar  
    38   21   41 1   
    39   22   42 1   
    40   23   24 1   
    41   23   43 1   
    42   24   25 2   
    43   24   26 1   
    44   26   27 1   
    45   26   44 1   
    46   26   51 1   
    47   27   28 1   
    48   27   29 1   
    49   27   45 1   
    50   28   29 1   
    51   28   46 1   
    52   28   47 1   
    53   29   48 1   
    54   29   49 1   
@<TRIPOS>SUBSTRUCTURE
     1 LEV         1 TEMP              0 ****  ****    0 ROOT
