@<TRIPOS>MOLECULE
LEV
   51    54     1     0     0
SMALL
bcc


@<TRIPOS>ATOM
      1 C1          0.8090   -0.7230   -0.5140 c3        1 LEV      0.116700
      2 O2          2.1770   -0.4380   -0.1870 os        1 LEV     -0.402900
      3 C3          2.4950   -0.3150    1.1480 ca        1 LEV      0.182100
      4 C4          1.5610   -0.4620    2.1540 ca        1 LEV     -0.246300
      5 C5          1.9360   -0.3260    3.5250 ca        1 LEV      0.506600
      6 N6          0.9810   -0.4820    4.5090 nb        1 LEV     -0.670000
      7 C7          1.3610   -0.3540    5.7690 ca        1 LEV      0.501200
      8 C8          2.6960   -0.0620    6.1890 ca        1 LEV     -0.327300
      9 C9          3.6580    0.0970    5.2170 ca        1 LEV      0.193100
     10 C10         3.3080   -0.0310    3.8250 ca        1 LEV     -0.217300
     11 C11         4.2390    0.1150    2.7870 ca        1 LEV      0.056000
     12 C12         3.8650   -0.0220    1.4470 ca        1 LEV     -0.241600
     13 C13         4.9370    0.1550    0.4780 c         1 LEV      0.582700
     14 O14         6.1120    0.4310    0.6990 o         1 LEV     -0.444100
     15 N15         4.6280   -0.0110   -0.9900 nz        1 LEV     -0.742400
     16 O16         4.9970    0.3550    5.4480 os        1 LEV     -0.242200
     17 C17         5.3820    0.6120    6.7650 ca        1 LEV      0.102100
     18 C18         6.3560   -0.2340    7.3100 ca        1 LEV     -0.093000
     19 C19         6.8870    0.0640    8.5660 ca        1 LEV      0.010400
     20 C20         6.4460    1.2090    9.2770 ca        1 LEV      0.017600
     21 C21         5.4580    2.0360    8.7080 ca        1 LEV     -0.098000
     22 C22         4.9260    1.7390    7.4570 ca        1 LEV     -0.119000
     23 N23         7.0420    1.5090   10.5310 ns        1 LEV     -0.415100
     24 C24         6.3560    2.1270   11.5400 c         1 LEV      0.651100
     25 O25         5.2390    2.6530   11.5260 o         1 LEV     -0.481100
     26 N26         7.0530    2.2320   12.9080 ny        1 LEV     -0.629800
     27 C27         8.4630    2.6280   12.8160 cx        1 LEV     -0.024500
     28 C28         9.4010    2.4250   13.9920 cx        1 LEV     -0.098900
     29 C29         9.5710    1.5940   12.7600 cx        1 LEV     -0.098900
     30 Cl          8.0700   -0.9670    9.2120 cl        1 LEV     -0.046400
     31 H1          0.5070   -1.7070   -0.0800 h1        1 LEV      0.073700
     32 H2          0.1480    0.1020   -0.1530 h1        1 LEV      0.073700
     33 H3          0.8230   -0.7660   -1.6330 h1        1 LEV      0.073700
     34 H4          0.5040   -0.6880    1.9260 ha        1 LEV      0.190000
     35 H5          0.5670   -0.4900    6.5320 h4        1 LEV      0.056100
     36 H6          2.9230    0.0210    7.2610 ha        1 LEV      0.170000
     37 H7          5.2930    0.3440    3.0410 ha        1 LEV      0.185000
     38 H8          5.4770    0.1280   -1.5500 hn        1 LEV      0.474133
     39 H9          4.2470   -0.9510   -1.1550 hn        1 LEV      0.474133
     40 H10         6.7030   -1.1160    6.7450 ha        1 LEV      0.189000
     41 H11         5.0900    2.9280    9.2460 ha        1 LEV      0.179000
     42 H12         4.1580    2.3940    7.0130 ha        1 LEV      0.175000
     43 H13         7.9620    1.1430   10.6910 hn        1 LEV      0.363500
     44 H14         6.5330    2.9450   13.4470 hn        1 LEV      0.472800
     45 H15         8.5590    3.5610   12.2110 hx        1 LEV      0.153700
     46 H16        10.1200    3.2400   14.2140 hc        1 LEV      0.116700
     47 H17         9.0350    1.9450   14.9210 hc        1 LEV      0.116700
     48 H18         9.3290    0.5150   12.8070 hc        1 LEV      0.116700
     49 H19        10.4200    1.7930   12.0760 hc        1 LEV      0.116700
     50 H153        3.9080    0.6670   -1.2660 hn        1 LEV      0.474133
     51 H262        6.9630    1.3320   13.3940 hn        1 LEV      0.472800
@<TRIPOS>BOND
     1    1    2 1   
     2    1   31 1   
     3    1   32 1   
     4    1   33 1   
     5    2    3 1   
     6    3    4 ar  
     7    3   12 ar  
     8    4    5 ar  
     9    4   34 1   
    10    5    6 ar  
    11    5   10 ar  
    12    6    7 ar  
    13    7    8 ar  
    14    7   35 1   
    15    8    9 ar  
    16    8   36 1   
    17    9   10 ar  
    18    9   16 1   
    19   10   11 ar  
    20   11   12 ar  
    21   11   37 1   
    22   12   13 1   
    23   13   14 2   
    24   13   15 1   
    25   15   38 1   
    26   15   39 1   
    27   15   50 1   
    28   16   17 1   
    29   17   18 ar  
    30   17   22 ar  
    31   18   19 ar  
    32   18   40 1   
    33   19   20 ar  
    34   19   30 1   
    35   20   21 ar  
    36   20   23 1   
    37   21   22 ar  
    38   21   41 1   
    39   22   42 1   
    40   23   24 1   
    41   23   43 1   
    42   24   25 2   
    43   24   26 1   
    44   26   27 1   
    45   26   44 1   
    46   26   51 1   
    47   27   28 1   
    48   27   29 1   
    49   27   45 1   
    50   28   29 1   
    51   28   46 1   
    52   28   47 1   
    53   29   48 1   
    54   29   49 1   
@<TRIPOS>SUBSTRUCTURE
     1 LEV         1 TEMP              0 ****  ****    0 ROOT
