@<TRIPOS>MOLECULE
LEW
   45    48     1     0     0
SMALL
bcc


@<TRIPOS>ATOM
      1 C18        -0.0880   -0.1210   -0.2920 ca        1 LEW     -0.012000
      2 C17         1.2440   -0.5710   -0.5120 ca        1 LEW     -0.108000
      3 C16         1.9510   -1.1870    0.4900 ca        1 LEW     -0.127000
      4 C15         1.3650   -1.3900    1.7620 ca        1 LEW     -0.125000
      5 C14         0.0810   -0.9710    2.0030 ca        1 LEW     -0.120000
      6 C13        -0.6750   -0.3300    0.9840 ca        1 LEW     -0.040000
      7 C12        -2.0080    0.1030    1.2240 ca        1 LEW     -0.107000
      8 C11        -2.7280    0.7200    0.2320 ca        1 LEW     -0.134000
      9 C10        -2.1520    0.9340   -1.0400 ca        1 LEW     -0.108000
     10 C9         -0.8600    0.5250   -1.3060 ca        1 LEW     -0.100500
     11 C8         -0.3020    0.7550   -2.6270 cc        1 LEW      0.309800
     12 C7         -0.6760    0.1700   -3.8500 cd        1 LEW     -0.186600
     13 N3          0.7260    1.6960   -2.9290 nc        1 LEW     -0.326000
     14 N2          0.9670    1.6850   -4.1700 nd        1 LEW     -0.176800
     15 N1          0.1360    0.8110   -4.8010 na        1 LEW      0.032400
     16 C1          0.2330    0.4160   -6.1960 c3        1 LEW      0.240800
     17 O5          1.0160   -0.7910   -6.2390 os        1 LEW     -0.436600
     18 C5          1.0330   -1.3820   -7.5420 c3        1 LEW      0.105100
     19 C6          1.8590   -2.6650   -7.3980 c3        1 LEW      0.141400
     20 O6          1.2060   -3.5980   -6.5680 oh        1 LEW     -0.591800
     21 C4          1.6780   -0.4260   -8.5550 c3        1 LEW      0.121100
     22 O4          1.5690   -1.0370   -9.8280 oh        1 LEW     -0.592800
     23 C3          0.9350    0.9200   -8.5420 c3        1 LEW      0.105100
     24 O3          1.6570    1.7860   -9.3990 oh        1 LEW     -0.601800
     25 C2          0.9000    1.4800   -7.1090 c3        1 LEW      0.091100
     26 O2          0.1170    2.6550   -7.1680 oh        1 LEW     -0.600800
     27 H17         1.7030   -0.4140   -1.5000 ha        1 LEW      0.143000
     28 H16         2.9820   -1.5300    0.3160 ha        1 LEW      0.134000
     29 H15         1.9530   -1.8850    2.5500 ha        1 LEW      0.133000
     30 H14        -0.3870   -1.1230    2.9880 ha        1 LEW      0.132000
     31 H12        -2.4460   -0.0650    2.2190 ha        1 LEW      0.134000
     32 H11        -3.7590    1.0590    0.4130 ha        1 LEW      0.135000
     33 H10        -2.7460    1.4400   -1.8160 ha        1 LEW      0.135000
     34 H7         -1.4060   -0.5950   -4.1070 h4        1 LEW      0.199000
     35 H1         -0.8170    0.1980   -6.5560 h2        1 LEW      0.076700
     36 H5         -0.0180   -1.6310   -7.8580 h1        1 LEW      0.071700
     37 H6          2.8780   -2.4210   -6.9980 h1        1 LEW      0.068200
     38 H6A         1.9380   -3.1570   -8.4050 h1        1 LEW      0.068200
     39 HO6         1.1490   -3.2040   -5.6880 ho        1 LEW      0.410000
     40 H4          2.7620   -0.2580   -8.3020 h1        1 LEW      0.067700
     41 HO4         1.9060   -0.3950  -10.4680 ho        1 LEW      0.428000
     42 H3         -0.1140    0.7930   -8.9300 h1        1 LEW      0.064700
     43 HO3         1.2260    2.6510   -9.3440 ho        1 LEW      0.429000
     44 H2          1.9450    1.7020   -6.7600 h1        1 LEW      0.088700
     45 HO2         0.3050    3.1710   -6.3730 ho        1 LEW      0.431000
@<TRIPOS>BOND
     1    1    2 ar  
     2    1    6 ar  
     3    1   10 ar  
     4    2    3 ar  
     5    2   27 1   
     6    3    4 ar  
     7    3   28 1   
     8    4    5 ar  
     9    4   29 1   
    10    5    6 ar  
    11    5   30 1   
    12    6    7 ar  
    13    7    8 ar  
    14    7   31 1   
    15    8    9 ar  
    16    8   32 1   
    17    9   10 ar  
    18    9   33 1   
    19   10   11 1   
    20   11   12 2   
    21   11   13 1   
    22   12   15 1   
    23   12   34 1   
    24   13   14 2   
    25   14   15 1   
    26   15   16 1   
    27   16   17 1   
    28   16   25 1   
    29   16   35 1   
    30   17   18 1   
    31   18   19 1   
    32   18   21 1   
    33   18   36 1   
    34   19   20 1   
    35   19   37 1   
    36   19   38 1   
    37   20   39 1   
    38   21   22 1   
    39   21   23 1   
    40   21   40 1   
    41   22   41 1   
    42   23   24 1   
    43   23   25 1   
    44   23   42 1   
    45   24   43 1   
    46   25   26 1   
    47   25   44 1   
    48   26   45 1   
@<TRIPOS>SUBSTRUCTURE
     1 LEW         1 TEMP              0 ****  ****    0 ROOT
