@<TRIPOS>MOLECULE
LEW
   45    48     1     0     0
SMALL
bcc


@<TRIPOS>ATOM
      1 C18        -0.0750   -0.1370   -0.2910 ca        1 LEW     -0.012000
      2 C17         1.2620   -0.5670   -0.5170 ca        1 LEW     -0.108000
      3 C16         1.9820   -1.1760    0.4810 ca        1 LEW     -0.127000
      4 C15         1.4040   -1.3900    1.7550 ca        1 LEW     -0.125000
      5 C14         0.1140   -0.9910    2.0020 ca        1 LEW     -0.120000
      6 C13        -0.6550   -0.3570    0.9870 ca        1 LEW     -0.040000
      7 C12        -1.9920    0.0560    1.2330 ca        1 LEW     -0.106000
      8 C11        -2.7260    0.6650    0.2450 ca        1 LEW     -0.134000
      9 C10        -2.1570    0.8910   -1.0290 ca        1 LEW     -0.108000
     10 C9         -0.8600    0.5010   -1.3000 ca        1 LEW     -0.100500
     11 C8         -0.3110    0.7420   -2.6230 cc        1 LEW      0.309800
     12 C7         -0.6800    0.1530   -3.8450 cd        1 LEW     -0.186600
     13 N3          0.7020    1.6990   -2.9260 nc        1 LEW     -0.326000
     14 N2          0.9390    1.6940   -4.1680 nd        1 LEW     -0.176800
     15 N1          0.1190    0.8090   -4.7980 na        1 LEW      0.032400
     16 C1          0.2170    0.4180   -6.1940 c3        1 LEW      0.240800
     17 O5          1.0200   -0.7760   -6.2420 os        1 LEW     -0.436600
     18 C5          1.0410   -1.3650   -7.5460 c3        1 LEW      0.105100
     19 C6          1.8880   -2.6350   -7.4070 c3        1 LEW      0.141400
     20 O6          1.2530   -3.5800   -6.5770 oh        1 LEW     -0.591800
     21 C4          1.6680   -0.3970   -8.5600 c3        1 LEW      0.121100
     22 O4          1.5640   -1.0070   -9.8330 oh        1 LEW     -0.592800
     23 C3          0.9040    0.9380   -8.5410 c3        1 LEW      0.105100
     24 O3          1.6080    1.8170   -9.3990 oh        1 LEW     -0.601800
     25 C2          0.8650    1.4940   -7.1070 c3        1 LEW      0.091100
     26 O2          0.0630    2.6560   -7.1610 oh        1 LEW     -0.600800
     27 H17         1.7150   -0.4010   -1.5060 ha        1 LEW      0.143000
     28 H16         3.0170   -1.5030    0.3020 ha        1 LEW      0.134000
     29 H15         2.0010   -1.8780    2.5390 ha        1 LEW      0.133000
     30 H14        -0.3480   -1.1510    2.9870 ha        1 LEW      0.132000
     31 H12        -2.4250   -0.1210    2.2290 ha        1 LEW      0.134000
     32 H11        -3.7610    0.9880    0.4300 ha        1 LEW      0.135000
     33 H10        -2.7610    1.3900   -1.8010 ha        1 LEW      0.135000
     34 H7         -1.3990   -0.6220   -4.1020 h4        1 LEW      0.199000
     35 H1         -0.8300    0.1840   -6.5510 h2        1 LEW      0.076700
     36 H5         -0.0060   -1.6300   -7.8590 h1        1 LEW      0.071700
     37 H6          1.9720   -3.1240   -8.4150 h1        1 LEW      0.068200
     38 H6A         2.9040   -2.3760   -7.0100 h1        1 LEW      0.068200
     39 HO6         1.1920   -3.1880   -5.6960 ho        1 LEW      0.410000
     40 H4          2.7500   -0.2120   -8.3100 h1        1 LEW      0.067700
     41 HO4         1.8880   -0.3580  -10.4730 ho        1 LEW      0.428000
     42 H3         -0.1440    0.7950   -8.9270 h1        1 LEW      0.064700
     43 HO3         1.1650    2.6740   -9.3410 ho        1 LEW      0.429000
     44 H2          1.9080    1.7320   -6.7620 h1        1 LEW      0.088700
     45 HO2         0.2460    3.1740   -6.3660 ho        1 LEW      0.431000
@<TRIPOS>BOND
     1    1    2 ar  
     2    1    6 ar  
     3    1   10 ar  
     4    2    3 ar  
     5    2   27 1   
     6    3    4 ar  
     7    3   28 1   
     8    4    5 ar  
     9    4   29 1   
    10    5    6 ar  
    11    5   30 1   
    12    6    7 ar  
    13    7    8 ar  
    14    7   31 1   
    15    8    9 ar  
    16    8   32 1   
    17    9   10 ar  
    18    9   33 1   
    19   10   11 1   
    20   11   12 2   
    21   11   13 1   
    22   12   15 1   
    23   12   34 1   
    24   13   14 2   
    25   14   15 1   
    26   15   16 1   
    27   16   17 1   
    28   16   25 1   
    29   16   35 1   
    30   17   18 1   
    31   18   19 1   
    32   18   21 1   
    33   18   36 1   
    34   19   20 1   
    35   19   37 1   
    36   19   38 1   
    37   20   39 1   
    38   21   22 1   
    39   21   23 1   
    40   21   40 1   
    41   22   41 1   
    42   23   24 1   
    43   23   25 1   
    44   23   42 1   
    45   24   43 1   
    46   25   26 1   
    47   25   44 1   
    48   26   45 1   
@<TRIPOS>SUBSTRUCTURE
     1 LEW         1 TEMP              0 ****  ****    0 ROOT
