@<TRIPOS>MOLECULE
LEW
   45    48     1     0     0
SMALL
bcc


@<TRIPOS>ATOM
      1 C18        -3.7650    0.1780   -0.0810 ca        1 LEW     -0.012000
      2 C17        -3.3310    0.2210   -1.4350 ca        1 LEW     -0.108000
      3 C16        -4.1870    0.6100   -2.4360 ca        1 LEW     -0.127000
      4 C15        -5.5200    0.9790   -2.1360 ca        1 LEW     -0.125000
      5 C14        -5.9670    0.9520   -0.8390 ca        1 LEW     -0.120000
      6 C13        -5.1020    0.5540    0.2180 ca        1 LEW     -0.040000
      7 C12        -5.5560    0.5280    1.5640 ca        1 LEW     -0.106000
      8 C11        -4.7110    0.1430    2.5760 ca        1 LEW     -0.134000
      9 C10        -3.3800   -0.2350    2.2880 ca        1 LEW     -0.108000
     10 C9         -2.9080   -0.2200    0.9910 ca        1 LEW     -0.100500
     11 C8         -1.5330   -0.6060    0.7330 cc        1 LEW      0.309800
     12 C7         -0.3510    0.0590    1.1060 cd        1 LEW     -0.186600
     13 N3         -1.1290   -1.8070    0.0780 nc        1 LEW     -0.326000
     14 N2          0.1330   -1.8710    0.0380 nd        1 LEW     -0.176800
     15 N1          0.6770   -0.7950    0.6690 na        1 LEW      0.032400
     16 C1          2.0880   -0.4500    0.6780 c3        1 LEW      0.240800
     17 O5          2.3040    0.4750   -0.4030 os        1 LEW     -0.436600
     18 C5          3.6210    1.0320   -0.3890 c3        1 LEW      0.105100
     19 C6          3.6620    2.0180   -1.5610 c3        1 LEW      0.141400
     20 O6          2.7910    3.1040   -1.3410 oh        1 LEW     -0.591800
     21 C4          4.6710   -0.0740   -0.5670 c3        1 LEW      0.121100
     22 O4          5.9420    0.5380   -0.4440 oh        1 LEW     -0.592800
     23 C3          4.4850   -1.1450    0.5210 c3        1 LEW      0.105100
     24 O3          5.3960   -2.1870    0.2210 oh        1 LEW     -0.601800
     25 C2          3.0370   -1.6650    0.4950 c3        1 LEW      0.091100
     26 O2          2.9240   -2.5600    1.5830 oh        1 LEW     -0.600800
     27 H17        -2.2950   -0.0660   -1.6720 ha        1 LEW      0.143000
     28 H16        -3.8470    0.6380   -3.4820 ha        1 LEW      0.134000
     29 H15        -6.1880    1.2840   -2.9550 ha        1 LEW      0.133000
     30 H14        -7.0010    1.2370   -0.5920 ha        1 LEW      0.132000
     31 H12        -6.5950    0.8200    1.7770 ha        1 LEW      0.134000
     32 H11        -5.0580    0.1190    3.6190 ha        1 LEW      0.135000
     33 H10        -2.7250   -0.5490    3.1150 ha        1 LEW      0.135000
     34 H7         -0.1670    1.0020    1.6160 h4        1 LEW      0.199000
     35 H1          2.3020    0.0640    1.6640 h2        1 LEW      0.076700
     36 H5          3.7920    1.5760    0.5810 h1        1 LEW      0.071700
     37 H6          4.6920    2.4620   -1.6230 h1        1 LEW      0.068200
     38 H6A         3.4040    1.4880   -2.5160 h1        1 LEW      0.068200
     39 HO6         1.8940    2.7470   -1.3090 ho        1 LEW      0.410000
     40 H4          4.5710   -0.5510   -1.5820 h1        1 LEW      0.067700
     41 HO4         6.5930   -0.1770   -0.4780 ho        1 LEW      0.428000
     42 H3          4.7210   -0.7180    1.5360 h1        1 LEW      0.064700
     43 HO3         5.2370   -2.8880    0.8680 ho        1 LEW      0.429000
     44 H2          2.8350   -2.1820   -0.4830 h1        1 LEW      0.088700
     45 HO2         2.1420   -3.1060    1.4310 ho        1 LEW      0.431000
@<TRIPOS>BOND
     1    1    2 ar  
     2    1    6 ar  
     3    1   10 ar  
     4    2    3 ar  
     5    2   27 1   
     6    3    4 ar  
     7    3   28 1   
     8    4    5 ar  
     9    4   29 1   
    10    5    6 ar  
    11    5   30 1   
    12    6    7 ar  
    13    7    8 ar  
    14    7   31 1   
    15    8    9 ar  
    16    8   32 1   
    17    9   10 ar  
    18    9   33 1   
    19   10   11 1   
    20   11   12 2   
    21   11   13 1   
    22   12   15 1   
    23   12   34 1   
    24   13   14 2   
    25   14   15 1   
    26   15   16 1   
    27   16   17 1   
    28   16   25 1   
    29   16   35 1   
    30   17   18 1   
    31   18   19 1   
    32   18   21 1   
    33   18   36 1   
    34   19   20 1   
    35   19   37 1   
    36   19   38 1   
    37   20   39 1   
    38   21   22 1   
    39   21   23 1   
    40   21   40 1   
    41   22   41 1   
    42   23   24 1   
    43   23   25 1   
    44   23   42 1   
    45   24   43 1   
    46   25   26 1   
    47   25   44 1   
    48   26   45 1   
@<TRIPOS>SUBSTRUCTURE
     1 LEW         1 TEMP              0 ****  ****    0 ROOT
