@<TRIPOS>MOLECULE
LEX
   25    23     1     0     0
SMALL
bcc


@<TRIPOS>ATOM
      1 C          -1.8480    0.3160   -0.6880 c1        1 LEX      0.150000
      2 N           0.1380    1.4770   -1.3590 n3        1 LEX     -0.321000
      3 O          -2.4550    1.0540    0.0610 o         1 LEX     -0.296000
      4 CA         -0.3360    0.3160   -0.6880 c3        1 LEX     -0.068000
      5 CB          0.1680    0.3160    0.7370 c3        1 LEX     -0.149000
      6 CG          1.5860   -0.2100    0.7700 c3        1 LEX     -0.101000
      7 CAC        -2.6040   -0.6010   -1.6240 c2        1 LEX     -0.067000
      8 CD1         2.4820    0.7990    1.4550 c3        1 LEX     -0.209500
      9 CD2         1.6220   -1.5160    1.5330 c3        1 LEX     -0.209500
     10 HN         -0.5170    2.1120   -1.3670 hn        1 LEX      0.153000
     11 HA         -0.0110   -0.4810   -1.1480 h1        1 LEX      0.115000
     12 HB          0.1500    1.2260    1.0880 hc        1 LEX      0.090000
     13 HBA        -0.4040   -0.2550    1.2840 hc        1 LEX      0.090000
     14 HG          1.9000   -0.3570   -0.1420 hc        1 LEX      0.100000
     15 HAC        -2.2560   -0.5000   -2.5300 h4        1 LEX      0.109000
     16 OXT        -3.9740   -0.2650   -1.6060 oh        1 LEX     -0.315000
     17 HACA       -2.4920   -1.5260   -1.3340 h4        1 LEX      0.109000
     18 HD1         3.3890    0.4430    1.5120 hc        1 LEX      0.074833
     19 HD1A        2.4900    1.6290    0.9400 hc        1 LEX      0.074833
     20 HD1B        2.1440    0.9770    2.3530 hc        1 LEX      0.074833
     21 HD2         2.5480   -1.8050    1.6390 hc        1 LEX      0.074833
     22 HD2A        1.1230   -2.1940    1.0400 hc        1 LEX      0.074833
     23 HD2B        1.2180   -1.3900    2.4130 hc        1 LEX      0.074833
     24 HXT        -4.4230   -0.8280   -2.1250 ho        1 LEX      0.219000
     25 H2          0.3640    1.2630   -2.2160 hn        1 LEX      0.153000
@<TRIPOS>BOND
     1    1    3 1   
     2    1    4 1   
     3    2    4 1   
     4    2   10 1   
     5    2   25 1   
     6    4    5 1   
     7    4   11 1   
     8    5    6 1   
     9    5   12 1   
    10    5   13 1   
    11    6    8 1   
    12    6    9 1   
    13    6   14 1   
    14    7   15 1   
    15    7   16 1   
    16    7   17 1   
    17    8   18 1   
    18    8   19 1   
    19    8   20 1   
    20    9   21 1   
    21    9   22 1   
    22    9   23 1   
    23   16   24 1   
@<TRIPOS>SUBSTRUCTURE
     1 LEX         1 TEMP              0 ****  ****    0 ROOT
