@<TRIPOS>MOLECULE
LEX
   25    24     1     0     0
SMALL
bcc


@<TRIPOS>ATOM
      1 C          -1.4770    0.1570    0.0470 c         1 LEX      0.489100
      2 N           0.1410    2.0500   -0.2220 n3        1 LEX     -0.888800
      3 O          -2.2050    0.7860    0.8230 o         1 LEX     -0.536100
      4 CA         -0.0690    0.6210   -0.3260 c3        1 LEX      0.078500
      5 CB          0.9230   -0.1930    0.5220 c3        1 LEX     -0.067400
      6 CG          2.3530   -0.1000    0.0110 c3        1 LEX     -0.068700
      7 CAC        -1.9640   -1.1030   -0.6250 c3        1 LEX      0.032400
      8 CD1         3.3120   -0.5480    1.0970 c3        1 LEX     -0.091600
      9 CD2         2.5520   -0.9410   -1.2330 c3        1 LEX     -0.091600
     10 HN         -0.6080    2.5420   -0.6700 hn        1 LEX      0.357800
     11 HA          0.0880    0.3520   -1.4150 h1        1 LEX      0.077700
     12 HB          0.8830    0.1640    1.5860 hc        1 LEX      0.050200
     13 HBA         0.5990   -1.2670    0.5180 hc        1 LEX      0.050200
     14 HG          2.5820    0.9730   -0.2440 hc        1 LEX      0.071700
     15 HAC        -1.1610   -1.8890   -0.6390 h1        1 LEX      0.069700
     16 OXT        -3.0540   -1.6970    0.0440 oh        1 LEX     -0.587800
     17 HACA       -2.2570   -0.8500   -1.6820 h1        1 LEX      0.069700
     18 HD1         4.3640   -0.4990    0.7250 hc        1 LEX      0.034533
     19 HD1A        3.2230    0.1120    1.9940 hc        1 LEX      0.034533
     20 HD1B        3.0950   -1.5980    1.4060 hc        1 LEX      0.034533
     21 HD2         1.8880   -0.5900   -2.0590 hc        1 LEX      0.034533
     22 HD2A        3.6110   -0.8660   -1.5810 hc        1 LEX      0.034533
     23 HD2B        2.3250   -2.0140   -1.0260 hc        1 LEX      0.034533
     24 HXT        -3.6280   -0.9860    0.3630 ho        1 LEX      0.420000
     25 H2          0.1810    2.3330    0.7390 hn        1 LEX      0.357800
@<TRIPOS>BOND
     1    1    3 2   
     2    1    4 1   
     3    1    7 1   
     4    2    4 1   
     5    2   10 1   
     6    2   25 1   
     7    4    5 1   
     8    4   11 1   
     9    5    6 1   
    10    5   12 1   
    11    5   13 1   
    12    6    8 1   
    13    6    9 1   
    14    6   14 1   
    15    7   15 1   
    16    7   16 1   
    17    7   17 1   
    18    8   18 1   
    19    8   19 1   
    20    8   20 1   
    21    9   21 1   
    22    9   22 1   
    23    9   23 1   
    24   16   24 1   
@<TRIPOS>SUBSTRUCTURE
     1 LEX         1 TEMP              0 ****  ****    0 ROOT
