@<TRIPOS>MOLECULE
LF0
   56    59     1     0     0
SMALL
bcc


@<TRIPOS>ATOM
      1 C1          0.0280   -0.0230   -0.0650 cp        1 LF0     -0.013000
      2 C2          1.4130   -0.0800   -0.0550 ca        1 LF0     -0.116600
      3 C3          2.0830   -0.1990    1.2280 ca        1 LF0      0.483600
      4 N1          1.4370   -0.2100    2.3900 nb        1 LF0     -0.706000
      5 C5          0.0640   -0.0890    2.3890 ca        1 LF0      0.398600
      6 C6         -0.6870    0.0070    1.1810 ca        1 LF0     -0.140300
      7 C7         -0.7620   -0.0130   -1.3030 cp        1 LF0     -0.067000
      8 C8         -0.6690    1.0520   -2.2130 ca        1 LF0     -0.073000
      9 C9         -1.4470    1.0590   -3.3660 ca        1 LF0     -0.158000
     10 C10        -2.3190   -0.0110   -3.6190 ca        1 LF0      0.111100
     11 C11        -2.4160   -1.0910   -2.7280 ca        1 LF0     -0.168300
     12 C12        -1.6300   -1.0770   -1.5720 ca        1 LF0     -0.094000
     13 C13        -2.0960    0.1430    1.2560 ca        1 LF0     -0.103000
     14 C14        -2.7410    0.1680    2.4690 ca        1 LF0     -0.158000
     15 C15        -2.0030    0.0600    3.6680 ca        1 LF0     -0.144000
     16 C16        -0.6370   -0.0630    3.6390 ca        1 LF0     -0.173300
     17 C17         3.5730   -0.3400    1.2500 c3        1 LF0     -0.177400
     18 C18         2.1970    0.0050   -1.3320 c3        1 LF0      0.044400
     19 C19         2.8340    1.4260   -1.5180 c         1 LF0      0.909600
     20 O20         2.0990    2.2920   -2.0720 o         1 LF0     -0.820800
     21 O21         4.0210    1.6310   -1.1550 o         1 LF0     -0.820800
     22 O22         3.1840   -1.0340   -1.3090 os        1 LF0     -0.414600
     23 C23         3.6150   -1.5060   -2.5920 c3        1 LF0      0.164800
     24 C24         4.0060   -0.3720   -3.5250 c3        1 LF0     -0.110767
     25 C25         4.8410   -2.3640   -2.2730 c3        1 LF0     -0.110767
     26 C26         2.5350   -2.3770   -3.2280 c3        1 LF0     -0.110767
     27 O27        -3.0880    0.0930   -4.7690 os        1 LF0     -0.332900
     28 C4         -3.6810   -1.1320   -5.2040 c3        1 LF0      0.132400
     29 C20        -4.3440   -1.8870   -4.0690 c3        1 LF0     -0.111400
     30 C21        -3.3210   -2.2370   -3.0070 c3        1 LF0     -0.021100
     31 H1          0.0650    1.8670   -2.0300 ha        1 LF0      0.219000
     32 H2         -1.3780    1.8880   -4.0840 ha        1 LF0      0.148000
     33 H3         -1.6980   -1.9170   -0.8640 ha        1 LF0      0.131000
     34 H4         -2.6690    0.2370    0.3190 ha        1 LF0      0.137000
     35 H5         -3.8330    0.2780    2.5190 ha        1 LF0      0.116000
     36 H6         -2.5380    0.0830    4.6290 ha        1 LF0      0.115000
     37 H7         -0.0590   -0.1380    4.5720 ha        1 LF0      0.135000
     38 H8          3.8410   -1.3640    0.8870 hc        1 LF0      0.073367
     39 H9          3.9970   -0.1940    2.2730 hc        1 LF0      0.073367
     40 H10         4.0280    0.4100    0.5460 hc        1 LF0      0.073367
     41 H11         1.5060   -0.1620   -2.2070 h1        1 LF0      0.048700
     42 H13         4.4920   -0.7830   -4.4410 hc        1 LF0      0.039256
     43 H14         4.7110    0.3190   -2.9960 hc        1 LF0      0.039256
     44 H15         3.1080    0.2230   -3.8200 hc        1 LF0      0.039256
     45 H16         5.2500   -2.7960   -3.2160 hc        1 LF0      0.039256
     46 H17         5.6200   -1.7330   -1.7840 hc        1 LF0      0.039256
     47 H18         4.5610   -3.1900   -1.5790 hc        1 LF0      0.039256
     48 H19         2.9560   -2.9170   -4.1080 hc        1 LF0      0.039256
     49 H20         1.6750   -1.7540   -3.5710 hc        1 LF0      0.039256
     50 H21         2.1610   -3.1220   -2.4860 hc        1 LF0      0.039256
     51 H22        -2.8890   -1.7630   -5.6890 h1        1 LF0      0.046200
     52 H23        -4.4290   -0.8010   -5.9720 h1        1 LF0      0.046200
     53 H24        -4.8200   -2.8180   -4.4690 hc        1 LF0      0.046700
     54 H25        -5.1510   -1.2500   -3.6220 hc        1 LF0      0.046700
     55 H26        -2.7060   -3.1140   -3.3480 hc        1 LF0      0.045200
     56 H27        -3.8470   -2.5480   -2.0660 hc        1 LF0      0.045200
@<TRIPOS>BOND
     1    1    2 ar  
     2    1    6 ar  
     3    1    7 1   
     4    2    3 ar  
     5    2   18 1   
     6    3    4 ar  
     7    3   17 1   
     8    4    5 ar  
     9    5    6 ar  
    10    5   16 ar  
    11    6   13 ar  
    12    7    8 ar  
    13    7   12 ar  
    14    8    9 ar  
    15    8   31 1   
    16    9   10 ar  
    17    9   32 1   
    18   10   11 ar  
    19   10   27 1   
    20   11   12 ar  
    21   11   30 1   
    22   12   33 1   
    23   13   14 ar  
    24   13   34 1   
    25   14   15 ar  
    26   14   35 1   
    27   15   16 ar  
    28   15   36 1   
    29   16   37 1   
    30   17   38 1   
    31   17   39 1   
    32   17   40 1   
    33   18   19 1   
    34   18   22 1   
    35   18   41 1   
    36   19   20 1   
    37   19   21 1   
    38   22   23 1   
    39   23   24 1   
    40   23   25 1   
    41   23   26 1   
    42   24   42 1   
    43   24   43 1   
    44   24   44 1   
    45   25   45 1   
    46   25   46 1   
    47   25   47 1   
    48   26   48 1   
    49   26   49 1   
    50   26   50 1   
    51   27   28 1   
    52   28   29 1   
    53   28   51 1   
    54   28   52 1   
    55   29   30 1   
    56   29   53 1   
    57   29   54 1   
    58   30   55 1   
    59   30   56 1   
@<TRIPOS>SUBSTRUCTURE
     1 LF0         1 TEMP              0 ****  ****    0 ROOT
