@<TRIPOS>MOLECULE
LF0
   56    59     1     0     0
SMALL
bcc


@<TRIPOS>ATOM
      1 C1         -0.4220   -1.0380   -0.0830 cp        1 LF0     -0.013000
      2 C2         -1.5390   -0.2270    0.0410 ca        1 LF0     -0.116600
      3 C3         -2.8010   -0.8530    0.3960 ca        1 LF0      0.483600
      4 N1         -2.9430   -2.1640    0.5620 nb        1 LF0     -0.706000
      5 C5         -1.8490   -2.9810    0.3770 ca        1 LF0      0.398600
      6 C6         -0.5620   -2.4610    0.0530 ca        1 LF0     -0.140300
      7 C7          0.9250   -0.5070   -0.3290 cp        1 LF0     -0.067000
      8 C8          1.2320    0.1700   -1.5200 ca        1 LF0     -0.073000
      9 C9          2.5210    0.6390   -1.7500 ca        1 LF0     -0.158000
     10 C10         3.5120    0.4400   -0.7770 ca        1 LF0      0.111100
     11 C11         3.2230   -0.2230    0.4270 ca        1 LF0     -0.168300
     12 C12         1.9230   -0.6910    0.6360 ca        1 LF0     -0.094000
     13 C13         0.5170   -3.3610   -0.1360 ca        1 LF0     -0.103000
     14 C14         0.3390   -4.7170    0.0030 ca        1 LF0     -0.158000
     15 C15        -0.9310   -5.2370    0.3360 ca        1 LF0     -0.144000
     16 C16        -2.0020   -4.3990    0.5180 ca        1 LF0     -0.173300
     17 C17        -4.0000    0.0170    0.6100 c3        1 LF0     -0.177400
     18 C18        -1.4530    1.2500   -0.2110 c3        1 LF0      0.044400
     19 C19        -2.0490    1.6270   -1.6110 c         1 LF0      0.909600
     20 O20        -1.2510    1.5530   -2.5880 o         1 LF0     -0.820800
     21 O21        -3.2440    2.0100   -1.6990 o         1 LF0     -0.820800
     22 O22        -2.1270    1.9170    0.8640 os        1 LF0     -0.414600
     23 C23        -1.6770    3.2480    1.1450 c3        1 LF0      0.164800
     24 C24        -1.6090    4.1120   -0.1050 c3        1 LF0     -0.110767
     25 C25        -2.7370    3.8000    2.1000 c3        1 LF0     -0.110767
     26 C26        -0.3240    3.2150    1.8490 c3        1 LF0     -0.110767
     27 O27         4.7800    0.9020   -1.1000 os        1 LF0     -0.332900
     28 C4          5.6710    1.0290    0.0100 c3        1 LF0      0.132400
     29 C20         5.6560   -0.1940    0.9040 c3        1 LF0     -0.111400
     30 C21         4.2660   -0.4120    1.4680 c3        1 LF0     -0.021100
     31 H1          0.4250    0.3690   -2.2600 ha        1 LF0      0.219000
     32 H2          2.7670    1.1710   -2.6790 ha        1 LF0      0.148000
     33 H3          1.6830   -1.2140    1.5740 ha        1 LF0      0.131000
     34 H4          1.5040   -2.9550   -0.4070 ha        1 LF0      0.137000
     35 H5          1.1790   -5.4090   -0.1490 ha        1 LF0      0.116000
     36 H6         -1.0520   -6.3240    0.4430 ha        1 LF0      0.115000
     37 H7         -2.9950   -4.8020    0.7700 ha        1 LF0      0.135000
     38 H8         -4.0630    0.7740   -0.2210 hc        1 LF0      0.073367
     39 H9         -4.9480   -0.5700    0.6500 hc        1 LF0      0.073367
     40 H10        -3.8730    0.5710    1.5730 hc        1 LF0      0.073367
     41 H11        -0.3700    1.5650   -0.2190 h1        1 LF0      0.048700
     42 H13        -2.5730    4.0290   -0.6670 hc        1 LF0      0.039256
     43 H14        -1.4210    5.1740    0.1770 hc        1 LF0      0.039256
     44 H15        -0.7920    3.7610   -0.7820 hc        1 LF0      0.039256
     45 H16        -3.7310    3.7980    1.5940 hc        1 LF0      0.039256
     46 H17        -2.7980    3.1620    3.0120 hc        1 LF0      0.039256
     47 H18        -2.4700    4.8410    2.3930 hc        1 LF0      0.039256
     48 H19        -0.0880    4.2250    2.2610 hc        1 LF0      0.039256
     49 H20        -0.3470    2.4760    2.6850 hc        1 LF0      0.039256
     50 H21         0.4860    2.9240    1.1390 hc        1 LF0      0.039256
     51 H22         6.6720    1.1740   -0.4760 h1        1 LF0      0.046200
     52 H23         5.3920    1.9480    0.5910 h1        1 LF0      0.046200
     53 H24         5.9670   -1.0910    0.3100 hc        1 LF0      0.046700
     54 H25         6.3930   -0.0570    1.7360 hc        1 LF0      0.046700
     55 H26         4.0810    0.3120    2.3080 hc        1 LF0      0.045200
     56 H27         4.1930   -1.4450    1.9000 hc        1 LF0      0.045200
@<TRIPOS>BOND
     1    1    2 ar  
     2    1    6 ar  
     3    1    7 1   
     4    2    3 ar  
     5    2   18 1   
     6    3    4 ar  
     7    3   17 1   
     8    4    5 ar  
     9    5    6 ar  
    10    5   16 ar  
    11    6   13 ar  
    12    7    8 ar  
    13    7   12 ar  
    14    8    9 ar  
    15    8   31 1   
    16    9   10 ar  
    17    9   32 1   
    18   10   11 ar  
    19   10   27 1   
    20   11   12 ar  
    21   11   30 1   
    22   12   33 1   
    23   13   14 ar  
    24   13   34 1   
    25   14   15 ar  
    26   14   35 1   
    27   15   16 ar  
    28   15   36 1   
    29   16   37 1   
    30   17   38 1   
    31   17   39 1   
    32   17   40 1   
    33   18   19 1   
    34   18   22 1   
    35   18   41 1   
    36   19   20 1   
    37   19   21 1   
    38   22   23 1   
    39   23   24 1   
    40   23   25 1   
    41   23   26 1   
    42   24   42 1   
    43   24   43 1   
    44   24   44 1   
    45   25   45 1   
    46   25   46 1   
    47   25   47 1   
    48   26   48 1   
    49   26   49 1   
    50   26   50 1   
    51   27   28 1   
    52   28   29 1   
    53   28   51 1   
    54   28   52 1   
    55   29   30 1   
    56   29   53 1   
    57   29   54 1   
    58   30   55 1   
    59   30   56 1   
@<TRIPOS>SUBSTRUCTURE
     1 LF0         1 TEMP              0 ****  ****    0 ROOT
