@<TRIPOS>MOLECULE
LF0
   56    59     1     0     0
SMALL
bcc


@<TRIPOS>ATOM
      1 C1          0.0290   -0.0200   -0.0650 cp        1 LF0     -0.013000
      2 C2          1.4130   -0.0770   -0.0560 ca        1 LF0     -0.116600
      3 C3          2.0830   -0.1960    1.2280 ca        1 LF0      0.483600
      4 N1          1.4370   -0.2070    2.3890 nb        1 LF0     -0.706000
      5 C5          0.0650   -0.0850    2.3890 ca        1 LF0      0.398600
      6 C6         -0.6860    0.0110    1.1810 ca        1 LF0     -0.140300
      7 C7         -0.7620   -0.0100   -1.3030 cp        1 LF0     -0.067000
      8 C8         -0.6680    1.0550   -2.2140 ca        1 LF0     -0.073000
      9 C9         -1.4460    1.0620   -3.3670 ca        1 LF0     -0.158000
     10 C10        -2.3190   -0.0070   -3.6190 ca        1 LF0      0.111100
     11 C11        -2.4170   -1.0880   -2.7280 ca        1 LF0     -0.168300
     12 C12        -1.6300   -1.0740   -1.5720 ca        1 LF0     -0.094000
     13 C13        -2.0960    0.1470    1.2560 ca        1 LF0     -0.103000
     14 C14        -2.7400    0.1730    2.4690 ca        1 LF0     -0.158000
     15 C15        -2.0020    0.0660    3.6680 ca        1 LF0     -0.144000
     16 C16        -0.6360   -0.0580    3.6380 ca        1 LF0     -0.173300
     17 C17         3.5730   -0.3380    1.2500 c3        1 LF0     -0.177400
     18 C18         2.1980    0.0070   -1.3330 c3        1 LF0      0.044400
     19 C19         2.8340    1.4280   -1.5190 c         1 LF0      0.909600
     20 O20         2.1000    2.2930   -2.0730 o         1 LF0     -0.820800
     21 O21         4.0220    1.6330   -1.1550 o         1 LF0     -0.820800
     22 O22         3.1840   -1.0320   -1.3090 os        1 LF0     -0.414600
     23 C23         3.6140   -1.5050   -2.5920 c3        1 LF0      0.164800
     24 C24         4.0070   -0.3710   -3.5260 c3        1 LF0     -0.110767
     25 C25         4.8400   -2.3630   -2.2740 c3        1 LF0     -0.110767
     26 C26         2.5340   -2.3750   -3.2280 c3        1 LF0     -0.110767
     27 O27        -3.0880    0.0960   -4.7690 os        1 LF0     -0.332900
     28 C4         -3.6820   -1.1290   -5.2040 c3        1 LF0      0.132400
     29 C20        -4.3450   -1.8830   -4.0690 c3        1 LF0     -0.111400
     30 C21        -3.3220   -2.2330   -3.0060 c3        1 LF0     -0.021100
     31 H1          0.0660    1.8700   -2.0310 ha        1 LF0      0.219000
     32 H2         -1.3770    1.8910   -4.0850 ha        1 LF0      0.148000
     33 H3         -1.6980   -1.9140   -0.8640 ha        1 LF0      0.131000
     34 H4         -2.6680    0.2420    0.3190 ha        1 LF0      0.137000
     35 H5         -3.8330    0.2830    2.5190 ha        1 LF0      0.116000
     36 H6         -2.5370    0.0880    4.6290 ha        1 LF0      0.115000
     37 H7         -0.0580   -0.1340    4.5720 ha        1 LF0      0.135000
     38 H8          4.0280    0.4110    0.5450 hc        1 LF0      0.073367
     39 H9          3.8410   -1.3620    0.8870 hc        1 LF0      0.073367
     40 H10         3.9980   -0.1920    2.2720 hc        1 LF0      0.073367
     41 H11         1.5060   -0.1600   -2.2070 h1        1 LF0      0.048700
     42 H13         3.1090    0.2250   -3.8210 hc        1 LF0      0.039256
     43 H14         4.4920   -0.7820   -4.4410 hc        1 LF0      0.039256
     44 H15         4.7120    0.3200   -2.9960 hc        1 LF0      0.039256
     45 H16         5.6200   -1.7330   -1.7840 hc        1 LF0      0.039256
     46 H17         4.5590   -3.1890   -1.5800 hc        1 LF0      0.039256
     47 H18         5.2490   -2.7950   -3.2160 hc        1 LF0      0.039256
     48 H19         1.6750   -1.7520   -3.5720 hc        1 LF0      0.039256
     49 H20         2.9550   -2.9160   -4.1080 hc        1 LF0      0.039256
     50 H21         2.1600   -3.1200   -2.4860 hc        1 LF0      0.039256
     51 H22        -4.4300   -0.7980   -5.9720 h1        1 LF0      0.046200
     52 H23        -2.8900   -1.7600   -5.6880 h1        1 LF0      0.046200
     53 H24        -4.8210   -2.8140   -4.4680 hc        1 LF0      0.046700
     54 H25        -5.1510   -1.2460   -3.6220 hc        1 LF0      0.046700
     55 H26        -3.8480   -2.5430   -2.0650 hc        1 LF0      0.045200
     56 H27        -2.7080   -3.1100   -3.3470 hc        1 LF0      0.045200
@<TRIPOS>BOND
     1    1    2 ar  
     2    1    6 ar  
     3    1    7 1   
     4    2    3 ar  
     5    2   18 1   
     6    3    4 ar  
     7    3   17 1   
     8    4    5 ar  
     9    5    6 ar  
    10    5   16 ar  
    11    6   13 ar  
    12    7    8 ar  
    13    7   12 ar  
    14    8    9 ar  
    15    8   31 1   
    16    9   10 ar  
    17    9   32 1   
    18   10   11 ar  
    19   10   27 1   
    20   11   12 ar  
    21   11   30 1   
    22   12   33 1   
    23   13   14 ar  
    24   13   34 1   
    25   14   15 ar  
    26   14   35 1   
    27   15   16 ar  
    28   15   36 1   
    29   16   37 1   
    30   17   38 1   
    31   17   39 1   
    32   17   40 1   
    33   18   19 1   
    34   18   22 1   
    35   18   41 1   
    36   19   20 1   
    37   19   21 1   
    38   22   23 1   
    39   23   24 1   
    40   23   25 1   
    41   23   26 1   
    42   24   42 1   
    43   24   43 1   
    44   24   44 1   
    45   25   45 1   
    46   25   46 1   
    47   25   47 1   
    48   26   48 1   
    49   26   49 1   
    50   26   50 1   
    51   27   28 1   
    52   28   29 1   
    53   28   51 1   
    54   28   52 1   
    55   29   30 1   
    56   29   53 1   
    57   29   54 1   
    58   30   55 1   
    59   30   56 1   
@<TRIPOS>SUBSTRUCTURE
     1 LF0         1 TEMP              0 ****  ****    0 ROOT
