@<TRIPOS>MOLECULE
LF2
   48    50     1     0     0
SMALL
bcc


@<TRIPOS>ATOM
      1 C1          3.6740    0.9650   -0.2010 ca        1 LF2     -0.043900
      2 C2          2.4520    0.3390   -0.0950 ca        1 LF2     -0.071000
      3 C3          1.2500    1.0900   -0.1080 ca        1 LF2     -0.144300
      4 C4          1.3170    2.5100   -0.2150 ca        1 LF2      0.409600
      5 C5          2.6040    3.1290   -0.3230 ca        1 LF2     -0.170300
      6 C6          3.7480    2.3740   -0.3170 ca        1 LF2     -0.122000
      7 C13        -0.0460    0.4790   -0.0020 cp        1 LF2     -0.017000
      8 C14        -1.1750    1.2810    0.0520 ca        1 LF2     -0.111600
      9 C15        -1.0020    2.7170   -0.0910 ca        1 LF2      0.492600
     10 N16         0.1870    3.2970   -0.2250 nb        1 LF2     -0.706000
     11 BR1         5.2630   -0.0330   -0.1890 br        1 LF2     -0.125100
     12 C18        -2.5340    0.6860    0.2830 c3        1 LF2      0.041400
     13 C19        -3.0030    0.9010    1.7650 c         1 LF2      0.909600
     14 O20        -3.4360    1.2740   -0.6620 os        1 LF2     -0.415600
     15 C21        -4.5760    0.4760   -1.0070 c3        1 LF2      0.164800
     16 C22        -5.3070   -0.0470    0.2200 c3        1 LF2     -0.110767
     17 C23        -5.4790    1.4420   -1.7760 c3        1 LF2     -0.110767
     18 C24        -4.1650   -0.6750   -1.9190 c3        1 LF2     -0.110767
     19 O25        -3.7130    1.8970    2.0570 o         1 LF2     -0.817800
     20 O26        -2.6510    0.0090    2.5880 o         1 LF2     -0.817800
     21 C27        -0.1090   -0.9880    0.0210 cp        1 LF2     -0.043000
     22 C28        -0.5970   -1.6740    1.1420 ca        1 LF2     -0.104500
     23 C29        -0.6210   -3.0690    1.1550 ca        1 LF2     -0.139500
     24 C30        -0.1640   -3.7800    0.0430 ca        1 LF2      0.014400
     25 C31         0.3100   -3.1080   -1.0870 ca        1 LF2     -0.139500
     26 C32         0.3370   -1.7160   -1.0920 ca        1 LF2     -0.104500
     27 C33        -2.2170    3.5900   -0.1140 c3        1 LF2     -0.180400
     28 CL1        -0.1880   -5.4870    0.0580 cl        1 LF2     -0.131400
     29 H1          2.3860   -0.7580    0.0090 ha        1 LF2      0.152000
     30 H2          2.6600    4.2250   -0.4050 ha        1 LF2      0.143000
     31 H3          4.7320    2.8610   -0.3990 ha        1 LF2      0.133000
     32 H4         -2.4910   -0.4260    0.1090 h1        1 LF2      0.048700
     33 H5         -5.4970    0.7980    0.9290 hc        1 LF2      0.040033
     34 H6         -6.2730   -0.5140   -0.0830 hc        1 LF2      0.040033
     35 H7         -4.6840   -0.8040    0.7560 hc        1 LF2      0.040033
     36 H8         -5.7560    2.3000   -1.1180 hc        1 LF2      0.040033
     37 H9         -4.9420    1.8360   -2.6710 hc        1 LF2      0.040033
     38 H10        -6.4020    0.9110   -2.1030 hc        1 LF2      0.040033
     39 H11        -5.0720   -1.1440   -2.3660 hc        1 LF2      0.040033
     40 H12        -3.5090   -0.2960   -2.7380 hc        1 LF2      0.040033
     41 H13        -3.6080   -1.4540   -1.3480 hc        1 LF2      0.040033
     42 H15        -1.0080   -1.1020    2.0030 ha        1 LF2      0.179000
     43 H16        -1.0100   -3.5970    2.0380 ha        1 LF2      0.141000
     44 H17         0.6580   -3.6700   -1.9650 ha        1 LF2      0.141000
     45 H18         0.7090   -1.1820   -1.9790 ha        1 LF2      0.179000
     46 H19        -2.9120    3.2810    0.7160 hc        1 LF2      0.076367
     47 H20        -1.9630    4.6720   -0.0040 hc        1 LF2      0.076367
     48 H21        -2.7500    3.4380   -1.0860 hc        1 LF2      0.076367
@<TRIPOS>BOND
     1    1    2 ar  
     2    1    6 ar  
     3    1   11 1   
     4    2    3 ar  
     5    2   29 1   
     6    3    4 ar  
     7    3    7 ar  
     8    4    5 ar  
     9    4   10 ar  
    10    5    6 ar  
    11    5   30 1   
    12    6   31 1   
    13    7    8 ar  
    14    7   21 1   
    15    8    9 ar  
    16    8   12 1   
    17    9   10 ar  
    18    9   27 1   
    19   12   13 1   
    20   12   14 1   
    21   12   32 1   
    22   13   19 1   
    23   13   20 1   
    24   14   15 1   
    25   15   16 1   
    26   15   17 1   
    27   15   18 1   
    28   16   33 1   
    29   16   34 1   
    30   16   35 1   
    31   17   36 1   
    32   17   37 1   
    33   17   38 1   
    34   18   39 1   
    35   18   40 1   
    36   18   41 1   
    37   21   22 ar  
    38   21   26 ar  
    39   22   23 ar  
    40   22   42 1   
    41   23   24 ar  
    42   23   43 1   
    43   24   25 ar  
    44   24   28 1   
    45   25   26 ar  
    46   25   44 1   
    47   26   45 1   
    48   27   46 1   
    49   27   47 1   
    50   27   48 1   
@<TRIPOS>SUBSTRUCTURE
     1 LF2         1 TEMP              0 ****  ****    0 ROOT
