@<TRIPOS>MOLECULE
LF2
   48    50     1     0     0
SMALL
bcc


@<TRIPOS>ATOM
      1 C1         -0.0290    0.0120   -0.0800 ca        1 LF2     -0.043900
      2 C2          1.3480    0.0260   -0.0580 ca        1 LF2     -0.071000
      3 C3          2.0540   -0.0680    1.1680 ca        1 LF2     -0.144300
      4 C4          1.3210   -0.1600    2.3880 ca        1 LF2      0.409600
      5 C5         -0.1100   -0.1710    2.3290 ca        1 LF2     -0.170300
      6 C6         -0.7630   -0.0890    1.1260 ca        1 LF2     -0.122000
      7 C13         3.4880   -0.0590    1.2390 cp        1 LF2     -0.017000
      8 C14         4.1100   -0.0800    2.4780 ca        1 LF2     -0.111600
      9 C15         3.2750   -0.2010    3.6600 ca        1 LF2      0.492600
     10 N16         1.9460   -0.2450    3.6120 nb        1 LF2     -0.706000
     11 BR1        -0.9600    0.1320   -1.7060 br        1 LF2     -0.125100
     12 C18         5.6010    0.0490    2.5950 c3        1 LF2      0.041400
     13 C19         6.0120    1.4950    3.0450 c         1 LF2      0.909600
     14 O20         6.0560   -0.9550    3.5100 os        1 LF2     -0.415600
     15 C21         7.4120   -1.3860    3.3300 c3        1 LF2      0.164800
     16 C22         8.3830   -0.2190    3.2440 c3        1 LF2     -0.110767
     17 C23         7.7020   -2.2110    4.5850 c3        1 LF2     -0.110767
     18 C24         7.5290   -2.2750    2.0960 c3        1 LF2     -0.110767
     19 O25         6.1890    1.7410    4.2660 o         1 LF2     -0.817800
     20 O26         6.1740    2.3340    2.1150 o         1 LF2     -0.817800
     21 C27         4.2330   -0.0500   -0.0260 cp        1 LF2     -0.043000
     22 C28         5.0600    1.0280   -0.3730 ca        1 LF2     -0.104500
     23 C29         5.7360    1.0300   -1.5930 ca        1 LF2     -0.139500
     24 C30         5.5930   -0.0510   -2.4660 ca        1 LF2      0.014400
     25 C31         4.7860   -1.1400   -2.1260 ca        1 LF2     -0.139500
     26 C32         4.1090   -1.1340   -0.9090 ca        1 LF2     -0.104500
     27 C33         3.9330   -0.3040    5.0000 c3        1 LF2     -0.180400
     28 CL1         6.4160   -0.0510   -3.9620 cl        1 LF2     -0.131400
     29 H1          1.9270    0.1180   -0.9920 ha        1 LF2      0.152000
     30 H2         -0.6790   -0.2420    3.2690 ha        1 LF2      0.143000
     31 H3         -1.8630   -0.0970    1.0940 ha        1 LF2      0.133000
     32 H4          6.0730   -0.1300    1.5870 h1        1 LF2      0.048700
     33 H5          8.2000    0.4810    4.0990 hc        1 LF2      0.040033
     34 H6          8.2250    0.3550    2.2990 hc        1 LF2      0.040033
     35 H7          9.4320   -0.5930    3.2760 hc        1 LF2      0.040033
     36 H8          8.7430   -2.6070    4.5390 hc        1 LF2      0.040033
     37 H9          6.9860   -3.0630    4.6570 hc        1 LF2      0.040033
     38 H10         7.5880   -1.5690    5.4900 hc        1 LF2      0.040033
     39 H11         7.4420   -1.6700    1.1620 hc        1 LF2      0.040033
     40 H12         6.7190   -3.0420    2.1010 hc        1 LF2      0.040033
     41 H13         8.5190   -2.7890    2.0950 hc        1 LF2      0.040033
     42 H15         5.2100    1.8610    0.3480 ha        1 LF2      0.179000
     43 H16         6.3850    1.8790   -1.8530 ha        1 LF2      0.141000
     44 H17         4.6840   -1.9950   -2.8090 ha        1 LF2      0.141000
     45 H18         3.4710   -1.9880   -0.6360 ha        1 LF2      0.179000
     46 H19         4.4090   -1.3130    5.0880 hc        1 LF2      0.076367
     47 H20         3.2090   -0.1690    5.8400 hc        1 LF2      0.076367
     48 H21         4.7450    0.4710    5.0760 hc        1 LF2      0.076367
@<TRIPOS>BOND
     1    1    2 ar  
     2    1    6 ar  
     3    1   11 1   
     4    2    3 ar  
     5    2   29 1   
     6    3    4 ar  
     7    3    7 ar  
     8    4    5 ar  
     9    4   10 ar  
    10    5    6 ar  
    11    5   30 1   
    12    6   31 1   
    13    7    8 ar  
    14    7   21 1   
    15    8    9 ar  
    16    8   12 1   
    17    9   10 ar  
    18    9   27 1   
    19   12   13 1   
    20   12   14 1   
    21   12   32 1   
    22   13   19 1   
    23   13   20 1   
    24   14   15 1   
    25   15   16 1   
    26   15   17 1   
    27   15   18 1   
    28   16   33 1   
    29   16   34 1   
    30   16   35 1   
    31   17   36 1   
    32   17   37 1   
    33   17   38 1   
    34   18   39 1   
    35   18   40 1   
    36   18   41 1   
    37   21   22 ar  
    38   21   26 ar  
    39   22   23 ar  
    40   22   42 1   
    41   23   24 ar  
    42   23   43 1   
    43   24   25 ar  
    44   24   28 1   
    45   25   26 ar  
    46   25   44 1   
    47   26   45 1   
    48   27   46 1   
    49   27   47 1   
    50   27   48 1   
@<TRIPOS>SUBSTRUCTURE
     1 LF2         1 TEMP              0 ****  ****    0 ROOT
