@<TRIPOS>MOLECULE
LF2
   48    50     1     0     0
SMALL
bcc


@<TRIPOS>ATOM
      1 C1         -0.0340   -0.0130   -0.0710 ca        1 LF2     -0.043900
      2 C2          1.3430    0.0040   -0.0530 ca        1 LF2     -0.071000
      3 C3          2.0520   -0.0820    1.1720 ca        1 LF2     -0.144300
      4 C4          1.3220   -0.1680    2.3940 ca        1 LF2      0.409600
      5 C5         -0.1090   -0.1820    2.3380 ca        1 LF2     -0.170300
      6 C6         -0.7650   -0.1080    1.1370 ca        1 LF2     -0.122000
      7 C13         3.4860   -0.0700    1.2400 cp        1 LF2     -0.017000
      8 C14         4.1110   -0.0820    2.4770 ca        1 LF2     -0.111600
      9 C15         3.2780   -0.1980    3.6630 ca        1 LF2      0.492600
     10 N16         1.9500   -0.2440    3.6170 nb        1 LF2     -0.706000
     11 Br1        -0.9680    0.0950   -1.6960 br        1 LF2     -0.125100
     12 C18         5.6020    0.0510    2.5910 c3        1 LF2      0.041400
     13 C19         6.0110    1.5000    3.0310 c         1 LF2      0.909600
     14 O20         6.0610   -0.9470    3.5110 os        1 LF2     -0.415600
     15 C21         7.4180   -1.3750    3.3300 c3        1 LF2      0.164800
     16 C22         8.3860   -0.2070    3.2350 c3        1 LF2     -0.110767
     17 C23         7.7130   -2.1930    4.5900 c3        1 LF2     -0.110767
     18 C24         7.5330   -2.2720    2.1010 c3        1 LF2     -0.110767
     19 O25         6.1900    1.7550    4.2500 o         1 LF2     -0.817800
     20 O26         6.1690    2.3350    2.0960 o         1 LF2     -0.817800
     21 C27         4.2290   -0.0660   -0.0270 cp        1 LF2     -0.043000
     22 C28         5.0520    1.0110   -0.3820 ca        1 LF2     -0.104500
     23 C29         5.7250    1.0070   -1.6040 ca        1 LF2     -0.139500
     24 C30         5.5830   -0.0790   -2.4700 ca        1 LF2      0.014400
     25 C31         4.7790   -1.1680   -2.1210 ca        1 LF2     -0.139500
     26 C32         4.1040   -1.1550   -0.9030 ca        1 LF2     -0.104500
     27 C33         3.9400   -0.2910    5.0010 c3        1 LF2     -0.180400
     28 Cl1         6.4020   -0.0850   -3.9670 cl        1 LF2     -0.131400
     29 H1          1.9200    0.0910   -0.9890 ha        1 LF2      0.152000
     30 H2         -0.6760   -0.2480    3.2800 ha        1 LF2      0.143000
     31 H3         -1.8650   -0.1190    1.1070 ha        1 LF2      0.133000
     32 H4          6.0720   -0.1320    1.5830 h1        1 LF2      0.048700
     33 H5          9.4360   -0.5790    3.2660 hc        1 LF2      0.040033
     34 H6          8.2040    0.4970    4.0860 hc        1 LF2      0.040033
     35 H7          8.2240    0.3610    2.2870 hc        1 LF2      0.040033
     36 H8          7.5990   -1.5450    5.4900 hc        1 LF2      0.040033
     37 H9          6.9970   -3.0450    4.6680 hc        1 LF2      0.040033
     38 H10         8.7540   -2.5870    4.5440 hc        1 LF2      0.040033
     39 H11         6.7250   -3.0410    2.1130 hc        1 LF2      0.040033
     40 H12         8.5240   -2.7840    2.1000 hc        1 LF2      0.040033
     41 H13         7.4420   -1.6730    1.1640 hc        1 LF2      0.040033
     42 H15         5.2020    1.8490    0.3340 ha        1 LF2      0.179000
     43 H16         6.3720    1.8570   -1.8700 ha        1 LF2      0.141000
     44 H17         4.6780   -2.0270   -2.7990 ha        1 LF2      0.141000
     45 H18         3.4690   -2.0090   -0.6240 ha        1 LF2      0.179000
     46 H19         4.4180   -1.2990    5.0950 hc        1 LF2      0.076367
     47 H20         4.7500    0.4860    5.0710 hc        1 LF2      0.076367
     48 H21         3.2180   -0.1530    5.8420 hc        1 LF2      0.076367
@<TRIPOS>BOND
     1    1    2 ar  
     2    1    6 ar  
     3    1   11 1   
     4    2    3 ar  
     5    2   29 1   
     6    3    4 ar  
     7    3    7 ar  
     8    4    5 ar  
     9    4   10 ar  
    10    5    6 ar  
    11    5   30 1   
    12    6   31 1   
    13    7    8 ar  
    14    7   21 1   
    15    8    9 ar  
    16    8   12 1   
    17    9   10 ar  
    18    9   27 1   
    19   12   13 1   
    20   12   14 1   
    21   12   32 1   
    22   13   19 1   
    23   13   20 1   
    24   14   15 1   
    25   15   16 1   
    26   15   17 1   
    27   15   18 1   
    28   16   33 1   
    29   16   34 1   
    30   16   35 1   
    31   17   36 1   
    32   17   37 1   
    33   17   38 1   
    34   18   39 1   
    35   18   40 1   
    36   18   41 1   
    37   21   22 ar  
    38   21   26 ar  
    39   22   23 ar  
    40   22   42 1   
    41   23   24 ar  
    42   23   43 1   
    43   24   25 ar  
    44   24   28 1   
    45   25   26 ar  
    46   25   44 1   
    47   26   45 1   
    48   27   46 1   
    49   27   47 1   
    50   27   48 1   
@<TRIPOS>SUBSTRUCTURE
     1 LF2         1 TEMP              0 ****  ****    0 ROOT
