@<TRIPOS>MOLECULE
LF7
   48    51     1     0     0
SMALL
bcc


@<TRIPOS>ATOM
      1 O20         0.3350   -0.7370    0.0130 o         1 LF7     -0.598100
      2 C14         1.4750   -0.2800    0.2330 c         1 LF7      0.649100
      3 N15         1.9510   -0.0060    1.4800 n         1 LF7     -0.445800
      4 C19         3.3170    0.3770    1.7890 c3        1 LF7      0.085000
      5 C18         3.4820    0.2920    3.3150 c3        1 LF7     -0.088400
      6 C17         2.1470   -0.1870    3.8770 c3        1 LF7     -0.085400
      7 C16         1.1510   -0.2180    2.6920 c3        1 LF7      0.179800
      8 C20         0.1150    0.8010    2.8630 c1        1 LF7      0.174700
      9 N2         -0.7190    1.5960    3.0100 n1        1 LF7     -0.307800
     10 C13         2.4090    0.0010   -0.9640 c3        1 LF7      0.014800
     11 N12         1.6570   -0.1010   -2.2410 ny        1 LF7     -0.749000
     12 C7          2.4610    0.0080   -3.5100 c3        1 LF7      0.134500
     13 C8          4.5430    1.3590   -2.8930 c3        1 LF7     -0.089400
     14 C1          5.6200    1.1800   -3.9690 c3        1 LF7     -0.061700
     15 C2          5.6990   -0.2840   -4.3950 c3        1 LF7     -0.080400
     16 C10         4.3660   -0.8560   -4.8860 c3        1 LF7     -0.056700
     17 C9          3.4040   -1.1810   -3.7400 c3        1 LF7     -0.090400
     18 C5          3.6890    0.1050   -5.8570 c3        1 LF7     -0.085400
     19 C21         5.0600    2.0190   -5.1230 c3        1 LF7     -0.107400
     20 C3          3.6160    1.4820   -5.1810 c3        1 LF7      0.161800
     21 O4          2.6740    2.2730   -5.8560 oh        1 LF7     -0.577800
     22 C6          3.2170    1.3290   -3.6620 c3        1 LF7     -0.116700
     23 H1          3.5080    1.4250    1.4260 h1        1 LF7      0.051200
     24 H2          4.0360   -0.3150    1.2690 h1        1 LF7      0.051200
     25 H3          4.3040   -0.4190    3.5770 hc        1 LF7      0.076200
     26 H4          3.7500    1.2960    3.7280 hc        1 LF7      0.076200
     27 H5          2.2400   -1.2160    4.3060 hc        1 LF7      0.083700
     28 H6          1.7810    0.4920    4.6860 hc        1 LF7      0.083700
     29 H7          0.6340   -1.2240    2.6150 h1        1 LF7      0.112700
     30 H10         2.8520    1.0360   -0.8880 hx        1 LF7      0.124200
     31 H11         3.2420   -0.7600   -0.9610 hx        1 LF7      0.124200
     32 H12         1.1580   -1.0060   -2.2420 hn        1 LF7      0.464300
     33 H14         4.6210    0.5580   -2.1200 hc        1 LF7      0.049200
     34 H15         4.6700    2.3470   -2.3830 hc        1 LF7      0.049200
     35 H16         6.6200    1.5400   -3.6260 hc        1 LF7      0.086700
     36 H17         6.0790   -0.9010   -3.5400 hc        1 LF7      0.061700
     37 H18         6.4440   -0.3700   -5.2300 hc        1 LF7      0.061700
     38 H19         4.5880   -1.8210   -5.4220 hc        1 LF7      0.083700
     39 H20         3.9870   -1.4350   -2.8190 hc        1 LF7      0.062700
     40 H21         2.7920   -2.0820   -4.0140 hc        1 LF7      0.062700
     41 H22         2.6710   -0.2550   -6.1500 hc        1 LF7      0.074700
     42 H23         4.2870    0.1880   -6.8010 hc        1 LF7      0.074700
     43 H24         5.0830    3.1090   -4.8800 hc        1 LF7      0.073200
     44 H25         5.6070    1.8560   -6.0810 hc        1 LF7      0.073200
     45 H26         2.9900    3.1870   -5.8470 ho        1 LF7      0.424000
     46 H27         2.5640    2.1940   -3.3780 hc        1 LF7      0.074700
     47 H28         1.6590   -0.0120   -4.3190 hx        1 LF7      0.116700
     48 H122        0.9420    0.6400   -2.2460 hn        1 LF7      0.464300
@<TRIPOS>BOND
     1    1    2 2   
     2    2    3 1   
     3    2   10 1   
     4    3    4 1   
     5    3    7 1   
     6    4    5 1   
     7    4   23 1   
     8    4   24 1   
     9    5    6 1   
    10    5   25 1   
    11    5   26 1   
    12    6    7 1   
    13    6   27 1   
    14    6   28 1   
    15    7    8 1   
    16    7   29 1   
    17    8    9 3   
    18   10   11 1   
    19   10   30 1   
    20   10   31 1   
    21   11   12 1   
    22   11   32 1   
    23   11   48 1   
    24   12   17 1   
    25   12   22 1   
    26   12   47 1   
    27   13   14 1   
    28   13   22 1   
    29   13   33 1   
    30   13   34 1   
    31   14   15 1   
    32   14   19 1   
    33   14   35 1   
    34   15   16 1   
    35   15   36 1   
    36   15   37 1   
    37   16   17 1   
    38   16   18 1   
    39   16   38 1   
    40   17   39 1   
    41   17   40 1   
    42   18   20 1   
    43   18   41 1   
    44   18   42 1   
    45   19   20 1   
    46   19   43 1   
    47   19   44 1   
    48   20   21 1   
    49   20   22 1   
    50   21   45 1   
    51   22   46 1   
@<TRIPOS>SUBSTRUCTURE
     1 LF7         1 TEMP              0 ****  ****    0 ROOT
