@<TRIPOS>MOLECULE
LF7
   48    51     1     0     0
SMALL
bcc


@<TRIPOS>ATOM
      1 O20         0.2070    0.4610   -0.0130 o         1 LF7     -0.597100
      2 C14         1.4200    0.4320    0.2820 c         1 LF7      0.651100
      3 N15         1.8990   -0.0220    1.4730 n         1 LF7     -0.444800
      4 C19         3.3030   -0.2060    1.7960 c3        1 LF7      0.084000
      5 C18         3.3700   -0.9910    3.1160 c3        1 LF7     -0.088400
      6 C17         1.9310   -1.2780    3.5330 c3        1 LF7     -0.085400
      7 C16         1.0190   -0.5140    2.5410 c3        1 LF7      0.179800
      8 C20         0.3080    0.5680    3.2210 c1        1 LF7      0.174700
      9 N2         -0.2730    1.4130    3.7670 n1        1 LF7     -0.305800
     10 C13         2.4470    0.9400   -0.7520 c3        1 LF7      0.013800
     11 N12         1.7550    1.6240   -1.8790 n4        1 LF7     -0.751000
     12 C7          2.7430    0.8970   -4.0790 c3        1 LF7     -0.110000
     13 C8          2.6670    1.9690   -3.0150 c3        1 LF7      0.133800
     14 C1          3.5510    1.4230   -5.3430 c3        1 LF7     -0.048700
     15 C2          4.6660    0.3840   -5.5450 c3        1 LF7     -0.083400
     16 C10         3.9740   -0.8910   -5.0370 c3        1 LF7     -0.059700
     17 C9          3.4670   -0.4010   -3.6700 c3        1 LF7     -0.088400
     18 C5          2.7780   -1.2200   -5.9380 c3        1 LF7     -0.069400
     19 C21         2.5900    1.2330   -6.5240 c3        1 LF7     -0.116400
     20 C3          1.8130   -0.0190   -6.0590 c3        1 LF7      0.164800
     21 O4          0.7390   -0.4060   -6.8720 oh        1 LF7     -0.558800
     22 C6          1.3850    0.4430   -4.6410 c3        1 LF7     -0.133400
     23 H1          3.8030    0.7970    1.9030 h1        1 LF7      0.051200
     24 H2          3.8150   -0.7710    0.9680 h1        1 LF7      0.051200
     25 H3          3.9420   -1.9400    2.9740 hc        1 LF7      0.077200
     26 H4          3.8960   -0.3840    3.8950 hc        1 LF7      0.077200
     27 H5          1.7070   -2.3720    3.4690 hc        1 LF7      0.084700
     28 H6          1.7400   -0.9470    4.5830 hc        1 LF7      0.084700
     29 H7          0.2420   -1.2010    2.0830 h1        1 LF7      0.112700
     30 H10         3.1650    1.6650   -0.2730 hx        1 LF7      0.125200
     31 H11         3.0260    0.0610   -1.1630 hx        1 LF7      0.125200
     32 H12         0.9950    1.0070   -2.2150 hn        1 LF7      0.468300
     33 H14         3.6940    2.1750   -2.5990 hx        1 LF7      0.105200
     34 H15         2.2640    2.9190   -3.4770 hx        1 LF7      0.105200
     35 H16         3.9190    2.4630   -5.2250 hc        1 LF7      0.071700
     36 H17         5.5690    0.6220   -4.9330 hc        1 LF7      0.066700
     37 H18         4.9790    0.3030   -6.6120 hc        1 LF7      0.066700
     38 H19         4.6620   -1.7630   -4.9570 hc        1 LF7      0.087700
     39 H20         4.3270   -0.1970   -2.9860 hc        1 LF7      0.048200
     40 H21         2.7850   -1.1390   -3.1860 hc        1 LF7      0.048200
     41 H22         2.2160   -2.0950   -5.5250 hc        1 LF7      0.075200
     42 H23         3.1390   -1.4920   -6.9620 hc        1 LF7      0.075200
     43 H24         1.9050    2.1050   -6.6530 hc        1 LF7      0.069700
     44 H25         3.1250    1.0630   -7.4870 hc        1 LF7      0.069700
     45 H26         0.2520    0.3940   -7.1080 ho        1 LF7      0.413000
     46 H27         0.6520    1.2820   -4.7100 hc        1 LF7      0.057200
     47 H28         0.9240   -0.3920   -4.0650 hc        1 LF7      0.057200
     48 H122        1.3120    2.4770   -1.5160 hn        1 LF7      0.468300
@<TRIPOS>BOND
     1    1    2 2   
     2    2    3 1   
     3    2   10 1   
     4    3    4 1   
     5    3    7 1   
     6    4    5 1   
     7    4   23 1   
     8    4   24 1   
     9    5    6 1   
    10    5   25 1   
    11    5   26 1   
    12    6    7 1   
    13    6   27 1   
    14    6   28 1   
    15    7    8 1   
    16    7   29 1   
    17    8    9 3   
    18   10   11 1   
    19   10   30 1   
    20   10   31 1   
    21   11   13 1   
    22   11   32 1   
    23   11   48 1   
    24   12   13 1   
    25   12   14 1   
    26   12   17 1   
    27   12   22 1   
    28   13   33 1   
    29   13   34 1   
    30   14   15 1   
    31   14   19 1   
    32   14   35 1   
    33   15   16 1   
    34   15   36 1   
    35   15   37 1   
    36   16   17 1   
    37   16   18 1   
    38   16   38 1   
    39   17   39 1   
    40   17   40 1   
    41   18   20 1   
    42   18   41 1   
    43   18   42 1   
    44   19   20 1   
    45   19   43 1   
    46   19   44 1   
    47   20   21 1   
    48   20   22 1   
    49   21   45 1   
    50   22   46 1   
    51   22   47 1   
@<TRIPOS>SUBSTRUCTURE
     1 LF7         1 TEMP              0 ****  ****    0 ROOT
