@<TRIPOS>MOLECULE
LF7
   47    50     1     0     0
SMALL
bcc


@<TRIPOS>ATOM
      1 O20         1.5220   -1.5340   -0.3220 o         1 LF7     -0.602100
      2 C14         1.7100   -0.3310   -0.5890 c         1 LF7      0.622100
      3 N15         2.7970    0.3440   -0.0500 n         1 LF7     -0.470800
      4 C19         3.2870    1.6050   -0.5720 c3        1 LF7      0.089000
      5 C18         4.7920    1.6910   -0.2630 c3        1 LF7     -0.093400
      6 C17         5.1630    0.3960    0.4500 c3        1 LF7     -0.087400
      7 C16         3.8310   -0.3550    0.7070 c3        1 LF7      0.164800
      8 C20         3.5500   -0.3930    2.1450 c1        1 LF7      0.207700
      9 N2          3.3370   -0.4400    3.2860 n1        1 LF7     -0.363800
     10 C13         0.7510    0.4580   -1.4960 c3        1 LF7      0.109800
     11 N12        -0.5200   -0.1580   -1.7560 n3        1 LF7     -0.801200
     12 C7         -1.5940    0.0870   -0.7770 c3        1 LF7      0.188200
     13 C8         -1.1690   -0.1810    0.6860 c3        1 LF7     -0.084400
     14 C1         -2.3270    0.0660    1.6400 c3        1 LF7     -0.056700
     15 C2         -2.7910    1.5130    1.5200 c3        1 LF7     -0.074400
     16 C10        -3.2510    1.7800    0.0920 c3        1 LF7     -0.056700
     17 C9         -2.0980    1.5470   -0.8760 c3        1 LF7     -0.084400
     18 C5         -4.4100    0.8560   -0.2530 c3        1 LF7     -0.099900
     19 C21        -3.4800   -0.8700    1.3040 c3        1 LF7     -0.099900
     20 C3         -3.9380   -0.5980   -0.1340 c3        1 LF7      0.153800
     21 O4         -4.9760   -1.4960   -0.5130 oh        1 LF7     -0.593800
     22 C6         -2.7830   -0.8520   -1.1070 c3        1 LF7     -0.061400
     23 H1          3.1060    1.6730   -1.6800 h1        1 LF7      0.048700
     24 H2          2.7320    2.4490   -0.0760 h1        1 LF7      0.048700
     25 H3          5.3770    1.8110   -1.2070 hc        1 LF7      0.059200
     26 H4          5.0000    2.5770    0.3860 hc        1 LF7      0.059200
     27 H5          5.8250   -0.2370   -0.1910 hc        1 LF7      0.065700
     28 H6          5.7010    0.5990    1.4070 hc        1 LF7      0.065700
     29 H7          3.8940   -1.4310    0.3520 h1        1 LF7      0.103700
     30 H10         0.6030    1.4900   -1.0710 h1        1 LF7      0.073700
     31 H11         1.2740    0.5560   -2.4940 h1        1 LF7      0.073700
     32 H12        -0.4040   -1.1500   -1.8790 hn        1 LF7      0.384800
     33 H14        -0.8110   -1.2400    0.7840 hc        1 LF7      0.049700
     34 H15        -0.3140    0.4910    0.9580 hc        1 LF7      0.049700
     35 H16        -1.9840   -0.1310    2.6920 hc        1 LF7      0.053700
     36 H17        -3.6330    1.7040    2.2340 hc        1 LF7      0.043200
     37 H18        -1.9510    2.2040    1.7850 hc        1 LF7      0.043200
     38 H19        -3.5900    2.8480    0.0030 hc        1 LF7      0.053700
     39 H20        -1.2680    2.2580   -0.6300 hc        1 LF7      0.049700
     40 H21        -2.4370    1.7560   -1.9230 hc        1 LF7      0.049700
     41 H22        -5.2680    1.0350    0.4430 hc        1 LF7      0.048950
     42 H23        -4.7660    1.0480   -1.2970 hc        1 LF7      0.048950
     43 H24        -3.1560   -1.9370    1.3970 hc        1 LF7      0.048950
     44 H25        -4.3320   -0.7040    2.0110 hc        1 LF7      0.048950
     45 H26        -5.7020   -1.3560    0.1060 ho        1 LF7      0.399000
     46 H27        -3.1400   -0.6740   -2.1530 hc        1 LF7      0.062200
     47 H28        -2.4690   -1.9240   -1.0220 hc        1 LF7      0.062200
@<TRIPOS>BOND
     1    1    2 2   
     2    2    3 1   
     3    2   10 1   
     4    3    4 1   
     5    3    7 1   
     6    4    5 1   
     7    4   23 1   
     8    4   24 1   
     9    5    6 1   
    10    5   25 1   
    11    5   26 1   
    12    6    7 1   
    13    6   27 1   
    14    6   28 1   
    15    7    8 1   
    16    7   29 1   
    17    8    9 3   
    18   10   11 1   
    19   10   30 1   
    20   10   31 1   
    21   11   12 1   
    22   11   32 1   
    23   12   13 1   
    24   12   17 1   
    25   12   22 1   
    26   13   14 1   
    27   13   33 1   
    28   13   34 1   
    29   14   15 1   
    30   14   19 1   
    31   14   35 1   
    32   15   16 1   
    33   15   36 1   
    34   15   37 1   
    35   16   17 1   
    36   16   18 1   
    37   16   38 1   
    38   17   39 1   
    39   17   40 1   
    40   18   20 1   
    41   18   41 1   
    42   18   42 1   
    43   19   20 1   
    44   19   43 1   
    45   19   44 1   
    46   20   21 1   
    47   20   22 1   
    48   21   45 1   
    49   22   46 1   
    50   22   47 1   
@<TRIPOS>SUBSTRUCTURE
     1 LF7         1 TEMP              0 ****  ****    0 ROOT
