@<TRIPOS>MOLECULE
LF8
   61    63     1     0     0
SMALL
bcc


@<TRIPOS>ATOM
      1 N1         -0.0210   -0.0320   -0.0580 nb        1 LF8     -0.680000
      2 C2          1.3350   -0.0160   -0.0170 cp        1 LF8      0.423800
      3 C3          2.0640   -0.0460    1.1910 ca        1 LF8     -0.180600
      4 C4          1.3400   -0.0730    2.4050 cp        1 LF8     -0.018000
      5 C5         -0.0630   -0.0110    2.3770 ca        1 LF8     -0.114600
      6 C6         -0.7070   -0.0190    1.1030 ca        1 LF8      0.448600
      7 C7          2.0780   -0.1770    3.6720 cp        1 LF8     -0.033000
      8 C8          2.1200    0.9020    4.5670 ca        1 LF8     -0.104000
      9 C9          2.8540    0.8040    5.7490 ca        1 LF8     -0.140000
     10 C10         3.5360   -0.3780    6.0450 ca        1 LF8      0.012400
     11 C11         3.4770   -1.4720    5.1770 ca        1 LF8     -0.140000
     12 C12         2.7470   -1.3660    3.9950 ca        1 LF8     -0.104000
     13 CL          4.4440   -0.4980    7.4860 cl        1 LF8     -0.135400
     14 C14         3.5450   -0.0230    1.1850 c3        1 LF8     -0.049800
     15 C15        -2.2010   -0.0220    1.0290 c3        1 LF8     -0.169400
     16 C16         2.0370    0.0260   -1.3180 cp        1 LF8     -0.110500
     17 C17         2.9280    1.0650   -1.6100 ca        1 LF8     -0.116000
     18 C18         3.5750    1.1030   -2.8420 ca        1 LF8     -0.136000
     19 C19         3.3470    0.1120   -3.8020 ca        1 LF8     -0.090300
     20 C20         2.4460   -0.9280   -3.5170 ca        1 LF8     -0.091300
     21 C21         1.7940   -0.9610   -2.2800 ca        1 LF8     -0.098000
     22 C22         4.0430    0.1630   -5.1080 c3        1 LF8     -0.044800
     23 C23         2.1800   -1.9830   -4.5230 c3        1 LF8     -0.045800
     24 C24        -0.8450    0.1100    3.6530 c3        1 LF8      0.045400
     25 C25        -1.3300    1.5840    3.8710 c         1 LF8      0.909600
     26 O26        -1.9330   -0.8200    3.5870 os        1 LF8     -0.412600
     27 C27        -2.4280   -1.2840    4.8490 c3        1 LF8      0.164800
     28 C28        -3.7340   -1.9960    4.4920 c3        1 LF8     -0.110100
     29 C29        -1.4540   -2.2830    5.4670 c3        1 LF8     -0.110100
     30 C30        -2.7110   -0.1450    5.8160 c3        1 LF8     -0.110100
     31 O33        -2.4910    1.9170    3.5190 o         1 LF8     -0.822300
     32 O34        -0.5050    2.3590    4.4330 o         1 LF8     -0.822300
     33 H1          1.5180    1.8130    4.3560 ha        1 LF8      0.175500
     34 H2          2.8770    1.6550    6.4460 ha        1 LF8      0.138500
     35 H3          3.9970   -2.4080    5.4220 ha        1 LF8      0.138500
     36 H4          2.6920   -2.2260    3.3110 ha        1 LF8      0.175500
     37 H5          3.9060    1.0280    1.3260 hc        1 LF8      0.041367
     38 H6          3.9660   -0.6460    2.0120 hc        1 LF8      0.041367
     39 H7          3.9550   -0.4070    0.2190 hc        1 LF8      0.041367
     40 H8         -2.5740   -1.0380    1.3110 hc        1 LF8      0.069700
     41 H9         -2.6090    0.7180    1.7710 hc        1 LF8      0.069700
     42 H10        -2.5750    0.2310    0.0080 hc        1 LF8      0.069700
     43 H11         3.1100    1.8520   -0.8620 ha        1 LF8      0.141000
     44 H12         4.2720    1.9250   -3.0630 ha        1 LF8      0.122000
     45 H13         1.0750   -1.7650   -2.0610 ha        1 LF8      0.143000
     46 H14         4.7210    1.0490   -5.1740 hc        1 LF8      0.035700
     47 H15         3.2990    0.2240   -5.9420 hc        1 LF8      0.035700
     48 H16         4.6550   -0.7620   -5.2580 hc        1 LF8      0.035700
     49 H17         3.1280   -2.5160   -4.7860 hc        1 LF8      0.036700
     50 H18         1.4460   -2.7330   -4.1410 hc        1 LF8      0.036700
     51 H19         1.7680   -1.5290   -5.4590 hc        1 LF8      0.036700
     52 H20        -0.1850   -0.1550    4.5270 h1        1 LF8      0.045700
     53 H21        -4.4360   -1.2720    4.0150 hc        1 LF8      0.039478
     54 H22        -4.1980   -2.4120    5.4160 hc        1 LF8      0.039478
     55 H23        -3.5330   -2.8260    3.7740 hc        1 LF8      0.039478
     56 H24        -0.5380   -1.7660    5.8380 hc        1 LF8      0.039478
     57 H25        -1.1520   -3.0410    4.7060 hc        1 LF8      0.039478
     58 H26        -1.9410   -2.8020    6.3260 hc        1 LF8      0.039478
     59 H27        -3.2470   -0.5310    6.7130 hc        1 LF8      0.039478
     60 H28        -3.3320    0.6330    5.3020 hc        1 LF8      0.039478
     61 H29        -1.7580    0.3430    6.1380 hc        1 LF8      0.039478
@<TRIPOS>BOND
     1    1    2 ar  
     2    1    6 ar  
     3    2    3 ar  
     4    2   16 1   
     5    3    4 ar  
     6    3   14 1   
     7    4    5 ar  
     8    4    7 1   
     9    5    6 ar  
    10    5   24 1   
    11    6   15 1   
    12    7    8 ar  
    13    7   12 ar  
    14    8    9 ar  
    15    8   33 1   
    16    9   10 ar  
    17    9   34 1   
    18   10   11 ar  
    19   10   13 1   
    20   11   12 ar  
    21   11   35 1   
    22   12   36 1   
    23   14   37 1   
    24   14   38 1   
    25   14   39 1   
    26   15   40 1   
    27   15   41 1   
    28   15   42 1   
    29   16   17 ar  
    30   16   21 ar  
    31   17   18 ar  
    32   17   43 1   
    33   18   19 ar  
    34   18   44 1   
    35   19   20 ar  
    36   19   22 1   
    37   20   21 ar  
    38   20   23 1   
    39   21   45 1   
    40   22   46 1   
    41   22   47 1   
    42   22   48 1   
    43   23   49 1   
    44   23   50 1   
    45   23   51 1   
    46   24   25 1   
    47   24   26 1   
    48   24   52 1   
    49   25   31 1   
    50   25   32 1   
    51   26   27 1   
    52   27   28 1   
    53   27   29 1   
    54   27   30 1   
    55   28   53 1   
    56   28   54 1   
    57   28   55 1   
    58   29   56 1   
    59   29   57 1   
    60   29   58 1   
    61   30   59 1   
    62   30   60 1   
    63   30   61 1   
@<TRIPOS>SUBSTRUCTURE
     1 LF8         1 TEMP              0 ****  ****    0 ROOT
