@<TRIPOS>MOLECULE
LF9
   58    61     1     0     0
SMALL
bcc


@<TRIPOS>ATOM
      1 C1          0.1560   -0.0200   -0.1330 ca        1 LF9      0.337000
      2 C2          1.5640   -0.0130   -0.1010 ca        1 LF9     -0.127600
      3 C3          2.1900   -0.0340    1.1710 cp        1 LF9     -0.022000
      4 C4          1.4080    0.0050    2.3360 ca        1 LF9     -0.095600
      5 C5         -0.0150   -0.0280    2.1900 ca        1 LF9      0.450600
      6 N1         -0.6150   -0.0500    0.9880 nb        1 LF9     -0.701000
      7 C7          3.6560   -0.1170    1.2420 cp        1 LF9     -0.044000
      8 C8          4.4150    0.9620    1.7180 ca        1 LF9     -0.107000
      9 C9          5.8070    0.8700    1.7530 ca        1 LF9     -0.147000
     10 C10         6.4500   -0.2920    1.3320 ca        1 LF9     -0.139000
     11 C11         5.6980   -1.3750    0.8780 ca        1 LF9     -0.147000
     12 C12         4.3080   -1.2900    0.8330 ca        1 LF9     -0.107000
     13 C13         2.3570    0.0280   -1.3500 c3        1 LF9     -0.054800
     14 C14        -0.8870   -0.0570    3.4060 c3        1 LF9     -0.171400
     15 C15         2.0520    0.1140    3.6870 c3        1 LF9      0.039400
     16 C16         1.9460    1.5780    4.2440 c         1 LF9      0.910600
     17 O17         1.4190   -0.8420    4.5470 os        1 LF9     -0.415600
     18 O18         1.0010    1.8800    5.0180 o         1 LF9     -0.818300
     19 O19         2.8640    2.3690    3.8900 o         1 LF9     -0.818300
     20 C20         2.2160   -1.3110    5.6410 c3        1 LF9      0.164800
     21 C21         3.2820   -2.2830    5.1440 c3        1 LF9     -0.110767
     22 C22         2.8520   -0.1740    6.4250 c3        1 LF9     -0.110767
     23 C23         1.2180   -2.0570    6.5290 c3        1 LF9     -0.110767
     24 C24        -0.5940   -0.0140   -1.4120 cc        1 LF9      0.408800
     25 N2         -1.8080   -0.7410   -1.5300 na        1 LF9     -0.261300
     26 C26        -2.2970   -0.4970   -2.8120 ca        1 LF9     -0.079200
     27 C27        -1.3080    0.3530   -3.4590 ca        1 LF9      0.077400
     28 N3         -0.2670    0.6340   -2.5540 nd        1 LF9     -0.574100
     29 C29        -3.4430   -0.9250   -3.4910 ca        1 LF9     -0.126000
     30 C30        -1.5010    0.7510   -4.7870 ca        1 LF9     -0.070000
     31 C31        -3.6070   -0.5120   -4.8050 ca        1 LF9     -0.123000
     32 C32        -2.6510    0.3080   -5.4330 ca        1 LF9     -0.009600
     33 Cl         -2.9210    0.7740   -7.0550 cl        1 LF9     -0.124400
     34 H1          3.9000    1.8620    2.1150 ha        1 LF9      0.168000
     35 H2          6.3930    1.7210    2.1310 ha        1 LF9      0.123000
     36 H3          7.5470   -0.3590    1.3640 ha        1 LF9      0.114000
     37 H4          6.1990   -2.2990    0.5580 ha        1 LF9      0.123000
     38 H5          3.7160   -2.1450    0.4760 ha        1 LF9      0.168000
     39 H6          2.2770    1.0430   -1.8160 hc        1 LF9      0.051367
     40 H7          3.4400   -0.1780   -1.1650 hc        1 LF9      0.051367
     41 H8          1.9840   -0.7300   -2.0830 hc        1 LF9      0.051367
     42 H9         -0.8320   -1.0750    3.8650 hc        1 LF9      0.071367
     43 H10        -0.4970    0.6850    4.1570 hc        1 LF9      0.071367
     44 H11        -1.9520    0.1800    3.1700 hc        1 LF9      0.071367
     45 H12         3.1490   -0.1300    3.6050 h1        1 LF9      0.051700
     46 H14         3.7480   -2.8080    6.0110 hc        1 LF9      0.039700
     47 H15         2.8220   -3.0380    4.4640 hc        1 LF9      0.039700
     48 H16         4.0820   -1.7420    4.5850 hc        1 LF9      0.039700
     49 H17         3.6320    0.3390    5.8100 hc        1 LF9      0.039700
     50 H18         2.0700    0.5850    6.6800 hc        1 LF9      0.039700
     51 H19         3.3200   -0.5680    7.3560 hc        1 LF9      0.039700
     52 H20         0.7410   -2.8860    5.9550 hc        1 LF9      0.039700
     53 H21         1.7470   -2.4780    7.4150 hc        1 LF9      0.039700
     54 H22         0.4230   -1.3530    6.8700 hc        1 LF9      0.039700
     55 H23        -2.3110   -1.1350   -0.7770 hn        1 LF9      0.319700
     56 H25        -4.1890   -1.5650   -3.0020 ha        1 LF9      0.135000
     57 H26        -0.7640    1.3930   -5.2920 ha        1 LF9      0.157000
     58 H27        -4.5000   -0.8290   -5.3650 ha        1 LF9      0.137000
@<TRIPOS>BOND
     1    1    2 ar  
     2    1    6 ar  
     3    1   24 1   
     4    2    3 ar  
     5    2   13 1   
     6    3    4 ar  
     7    3    7 1   
     8    4    5 ar  
     9    4   15 1   
    10    5    6 ar  
    11    5   14 1   
    12    7    8 ar  
    13    7   12 ar  
    14    8    9 ar  
    15    8   34 1   
    16    9   10 ar  
    17    9   35 1   
    18   10   11 ar  
    19   10   36 1   
    20   11   12 ar  
    21   11   37 1   
    22   12   38 1   
    23   13   39 1   
    24   13   40 1   
    25   13   41 1   
    26   14   42 1   
    27   14   43 1   
    28   14   44 1   
    29   15   16 1   
    30   15   17 1   
    31   15   45 1   
    32   16   18 1   
    33   16   19 1   
    34   17   20 1   
    35   20   21 1   
    36   20   22 1   
    37   20   23 1   
    38   21   46 1   
    39   21   47 1   
    40   21   48 1   
    41   22   49 1   
    42   22   50 1   
    43   22   51 1   
    44   23   52 1   
    45   23   53 1   
    46   23   54 1   
    47   24   25 1   
    48   24   28 2   
    49   25   26 1   
    50   25   55 1   
    51   26   27 ar  
    52   26   29 ar  
    53   27   28 1   
    54   27   30 ar  
    55   29   31 ar  
    56   29   56 1   
    57   30   32 ar  
    58   30   57 1   
    59   31   32 ar  
    60   31   58 1   
    61   32   33 1   
@<TRIPOS>SUBSTRUCTURE
     1 LF9         1 TEMP              0 ****  ****    0 ROOT
