@<TRIPOS>MOLECULE
LF9
   58    61     1     0     0
SMALL
bcc


@<TRIPOS>ATOM
      1 C1          0.1570   -0.0060   -0.1320 ca        1 LF9      0.337000
      2 C2          1.5650    0.0020   -0.0990 ca        1 LF9     -0.127600
      3 C3          2.1900   -0.0270    1.1730 cp        1 LF9     -0.022000
      4 C4          1.4070    0.0040    2.3380 ca        1 LF9     -0.095600
      5 C5         -0.0170   -0.0300    2.1910 ca        1 LF9      0.450600
      6 N1         -0.6150   -0.0440    0.9880 nb        1 LF9     -0.701000
      7 C7          3.6560   -0.1090    1.2460 cp        1 LF9     -0.044000
      8 C8          4.4130    0.9670    1.7300 ca        1 LF9     -0.107000
      9 C9          5.8050    0.8770    1.7670 ca        1 LF9     -0.147000
     10 C10         6.4500   -0.2820    1.3370 ca        1 LF9     -0.139000
     11 C11         5.6990   -1.3630    0.8760 ca        1 LF9     -0.147000
     12 C12         4.3090   -1.2780    0.8290 ca        1 LF9     -0.107000
     13 C13         2.3590    0.0530   -1.3460 c3        1 LF9     -0.054800
     14 C14        -0.8890   -0.0680    3.4050 c3        1 LF9     -0.171400
     15 C15         2.0490    0.1030    3.6910 c3        1 LF9      0.039400
     16 C16         1.9400    1.5630    4.2580 c         1 LF9      0.910600
     17 O17         1.4150   -0.8590    4.5430 os        1 LF9     -0.415600
     18 O18         0.9950    1.8590    5.0330 o         1 LF9     -0.818300
     19 O19         2.8580    2.3570    3.9110 o         1 LF9     -0.818300
     20 C20         2.2130   -1.3360    5.6350 c3        1 LF9      0.164800
     21 C21         3.2800   -2.3030    5.1320 c3        1 LF9     -0.110767
     22 C22         2.8470   -0.2030    6.4270 c3        1 LF9     -0.110767
     23 C23         1.2140   -2.0890    6.5160 c3        1 LF9     -0.110767
     24 C24        -0.5910    0.0090   -1.4120 cc        1 LF9      0.408800
     25 N2         -1.8060   -0.7190   -1.5360 na        1 LF9     -0.261300
     26 C26        -2.2930   -0.4670   -2.8170 ca        1 LF9     -0.079200
     27 C27        -1.3040    0.3890   -3.4570 ca        1 LF9      0.077400
     28 N3         -0.2640    0.6640   -2.5490 nd        1 LF9     -0.574100
     29 C29        -3.4380   -0.8910   -3.5000 ca        1 LF9     -0.126000
     30 C30        -1.4960    0.7960   -4.7830 ca        1 LF9     -0.070000
     31 C31        -3.6010   -0.4690   -4.8110 ca        1 LF9     -0.123000
     32 C32        -2.6440    0.3570   -5.4330 ca        1 LF9     -0.009600
     33 CL         -2.9140    0.8340   -7.0510 cl        1 LF9     -0.124400
     34 H1          3.8970    1.8640    2.1330 ha        1 LF9      0.168000
     35 H2          6.3900    1.7250    2.1510 ha        1 LF9      0.123000
     36 H3          7.5460   -0.3480    1.3700 ha        1 LF9      0.114000
     37 H4          6.2020   -2.2840    0.5500 ha        1 LF9      0.123000
     38 H5          3.7180   -2.1310    0.4660 ha        1 LF9      0.168000
     39 H6          3.4420   -0.1530   -1.1610 hc        1 LF9      0.051367
     40 H7          1.9880   -0.7010   -2.0850 hc        1 LF9      0.051367
     41 H8          2.2780    1.0710   -1.8050 hc        1 LF9      0.051367
     42 H9         -0.8340   -1.0900    3.8570 hc        1 LF9      0.071367
     43 H10        -0.5010    0.6690    4.1620 hc        1 LF9      0.071367
     44 H11        -1.9540    0.1690    3.1700 hc        1 LF9      0.071367
     45 H12         3.1460   -0.1390    3.6080 h1        1 LF9      0.051700
     46 H14         2.8200   -3.0540    4.4470 hc        1 LF9      0.039811
     47 H15         4.0790   -1.7570    4.5770 hc        1 LF9      0.039811
     48 H16         3.7450   -2.8330    5.9960 hc        1 LF9      0.039811
     49 H17         2.0630    0.5530    6.6870 hc        1 LF9      0.039811
     50 H18         3.6270    0.3140    5.8170 hc        1 LF9      0.039811
     51 H19         3.3140   -0.6040    7.3570 hc        1 LF9      0.039811
     52 H20         0.4180   -1.3880    6.8620 hc        1 LF9      0.039811
     53 H21         0.7380   -2.9130    5.9360 hc        1 LF9      0.039811
     54 H22         1.7430   -2.5160    7.4000 hc        1 LF9      0.039811
     55 H23        -2.3080   -1.1180   -0.7860 hn        1 LF9      0.319700
     56 H25        -4.1840   -1.5340   -3.0170 ha        1 LF9      0.135000
     57 H26        -0.7590    1.4420   -5.2820 ha        1 LF9      0.157000
     58 H27        -4.4930   -0.7830   -5.3750 ha        1 LF9      0.137000
@<TRIPOS>BOND
     1    1    2 ar  
     2    1    6 ar  
     3    1   24 1   
     4    2    3 ar  
     5    2   13 1   
     6    3    4 ar  
     7    3    7 1   
     8    4    5 ar  
     9    4   15 1   
    10    5    6 ar  
    11    5   14 1   
    12    7    8 ar  
    13    7   12 ar  
    14    8    9 ar  
    15    8   34 1   
    16    9   10 ar  
    17    9   35 1   
    18   10   11 ar  
    19   10   36 1   
    20   11   12 ar  
    21   11   37 1   
    22   12   38 1   
    23   13   39 1   
    24   13   40 1   
    25   13   41 1   
    26   14   42 1   
    27   14   43 1   
    28   14   44 1   
    29   15   16 1   
    30   15   17 1   
    31   15   45 1   
    32   16   18 1   
    33   16   19 1   
    34   17   20 1   
    35   20   21 1   
    36   20   22 1   
    37   20   23 1   
    38   21   46 1   
    39   21   47 1   
    40   21   48 1   
    41   22   49 1   
    42   22   50 1   
    43   22   51 1   
    44   23   52 1   
    45   23   53 1   
    46   23   54 1   
    47   24   25 1   
    48   24   28 2   
    49   25   26 1   
    50   25   55 1   
    51   26   27 ar  
    52   26   29 ar  
    53   27   28 1   
    54   27   30 ar  
    55   29   31 ar  
    56   29   56 1   
    57   30   32 ar  
    58   30   57 1   
    59   31   32 ar  
    60   31   58 1   
    61   32   33 1   
@<TRIPOS>SUBSTRUCTURE
     1 LF9         1 TEMP              0 ****  ****    0 ROOT
