@<TRIPOS>MOLECULE
LFA
   62    61     1     0     0
SMALL
bcc


@<TRIPOS>ATOM
      1 C1         -0.3550   -0.0040   11.8720 c3        1 LFA     -0.092100
      2 C2          0.4840    0.0050   10.6200 c3        1 LFA     -0.080400
      3 C3         -0.3760   -0.0040    9.3740 c3        1 LFA     -0.079400
      4 C4          0.4710    0.0050    8.1200 c3        1 LFA     -0.079400
      5 C5         -0.3900   -0.0040    6.8750 c3        1 LFA     -0.079400
      6 C6          0.4580    0.0050    5.6210 c3        1 LFA     -0.079400
      7 C7         -0.4030   -0.0040    4.3760 c3        1 LFA     -0.079400
      8 C8          0.4440    0.0050    3.1220 c3        1 LFA     -0.079400
      9 C9         -0.4170   -0.0040    1.8770 c3        1 LFA     -0.079400
     10 C10         0.4300    0.0050    0.6230 c3        1 LFA     -0.079400
     11 C11        -0.4300   -0.0050   -0.6230 c3        1 LFA     -0.079400
     12 C12         0.4170    0.0040   -1.8770 c3        1 LFA     -0.079400
     13 C13        -0.4440   -0.0050   -3.1220 c3        1 LFA     -0.079400
     14 C14         0.4030    0.0040   -4.3760 c3        1 LFA     -0.079400
     15 C15        -0.4580   -0.0050   -5.6210 c3        1 LFA     -0.079400
     16 C16         0.3900    0.0040   -6.8750 c3        1 LFA     -0.079400
     17 C17        -0.4710   -0.0050   -8.1200 c3        1 LFA     -0.079400
     18 C18         0.3760    0.0040   -9.3740 c3        1 LFA     -0.079400
     19 C19        -0.4840   -0.0050  -10.6200 c3        1 LFA     -0.080400
     20 C20         0.3550    0.0040  -11.8720 c3        1 LFA     -0.092100
     21 H11        -0.9990   -0.9160   11.9080 hc        1 LFA      0.032700
     22 H12         0.2980    0.0030   12.7770 hc        1 LFA      0.032700
     23 H13        -1.0190    0.8940   11.9080 hc        1 LFA      0.032700
     24 H21         1.1610   -0.8900   10.6140 hc        1 LFA      0.038700
     25 H22         1.1410    0.9150   10.6140 hc        1 LFA      0.038700
     26 H31        -1.0520    0.8910    9.3780 hc        1 LFA      0.039700
     27 H32        -1.0320   -0.9140    9.3780 hc        1 LFA      0.039700
     28 H41         1.1470   -0.8900    8.1160 hc        1 LFA      0.039700
     29 H42         1.1280    0.9150    8.1160 hc        1 LFA      0.039700
     30 H51        -1.0660    0.8910    6.8790 hc        1 LFA      0.039700
     31 H52        -1.0460   -0.9140    6.8790 hc        1 LFA      0.039700
     32 H61         1.1340   -0.8900    5.6170 hc        1 LFA      0.039700
     33 H62         1.1140    0.9150    5.6170 hc        1 LFA      0.039700
     34 H71        -1.0800    0.8910    4.3800 hc        1 LFA      0.039700
     35 H72        -1.0600   -0.9140    4.3800 hc        1 LFA      0.039700
     36 H81         1.1200   -0.8900    3.1180 hc        1 LFA      0.039700
     37 H82         1.1010    0.9150    3.1180 hc        1 LFA      0.039700
     38 H91        -1.0930    0.8910    1.8800 hc        1 LFA      0.039700
     39 H92        -1.0730   -0.9140    1.8800 hc        1 LFA      0.039700
     40 H101        1.1070   -0.8910    0.6190 hc        1 LFA      0.039700
     41 H102        1.0870    0.9140    0.6190 hc        1 LFA      0.039700
     42 H111       -1.1070    0.8910   -0.6190 hc        1 LFA      0.039700
     43 H112       -1.0870   -0.9140   -0.6190 hc        1 LFA      0.039700
     44 H121        1.0930   -0.8910   -1.8800 hc        1 LFA      0.039700
     45 H122        1.0730    0.9140   -1.8800 hc        1 LFA      0.039700
     46 H131       -1.1200    0.8900   -3.1180 hc        1 LFA      0.039700
     47 H132       -1.1010   -0.9150   -3.1180 hc        1 LFA      0.039700
     48 H141        1.0800   -0.8910   -4.3800 hc        1 LFA      0.039700
     49 H142        1.0600    0.9140   -4.3800 hc        1 LFA      0.039700
     50 H151       -1.1340    0.8900   -5.6170 hc        1 LFA      0.039700
     51 H152       -1.1140   -0.9150   -5.6170 hc        1 LFA      0.039700
     52 H161        1.0660   -0.8910   -6.8790 hc        1 LFA      0.039700
     53 H162        1.0460    0.9140   -6.8790 hc        1 LFA      0.039700
     54 H171       -1.1470    0.8900   -8.1160 hc        1 LFA      0.039700
     55 H172       -1.1280   -0.9150   -8.1160 hc        1 LFA      0.039700
     56 H181        1.0520   -0.8910   -9.3780 hc        1 LFA      0.039700
     57 H182        1.0320    0.9140   -9.3780 hc        1 LFA      0.039700
     58 H191       -1.1610    0.8900  -10.6140 hc        1 LFA      0.038700
     59 H192       -1.1410   -0.9150  -10.6140 hc        1 LFA      0.038700
     60 H201       -0.2980   -0.0030  -12.7770 hc        1 LFA      0.032700
     61 H202        0.9990    0.9160  -11.9080 hc        1 LFA      0.032700
     62 H203        1.0190   -0.8940  -11.9080 hc        1 LFA      0.032700
@<TRIPOS>BOND
     1    1    2 1   
     2    1   21 1   
     3    1   22 1   
     4    1   23 1   
     5    2    3 1   
     6    2   24 1   
     7    2   25 1   
     8    3    4 1   
     9    3   26 1   
    10    3   27 1   
    11    4    5 1   
    12    4   28 1   
    13    4   29 1   
    14    5    6 1   
    15    5   30 1   
    16    5   31 1   
    17    6    7 1   
    18    6   32 1   
    19    6   33 1   
    20    7    8 1   
    21    7   34 1   
    22    7   35 1   
    23    8    9 1   
    24    8   36 1   
    25    8   37 1   
    26    9   10 1   
    27    9   38 1   
    28    9   39 1   
    29   10   11 1   
    30   10   40 1   
    31   10   41 1   
    32   11   12 1   
    33   11   42 1   
    34   11   43 1   
    35   12   13 1   
    36   12   44 1   
    37   12   45 1   
    38   13   14 1   
    39   13   46 1   
    40   13   47 1   
    41   14   15 1   
    42   14   48 1   
    43   14   49 1   
    44   15   16 1   
    45   15   50 1   
    46   15   51 1   
    47   16   17 1   
    48   16   52 1   
    49   16   53 1   
    50   17   18 1   
    51   17   54 1   
    52   17   55 1   
    53   18   19 1   
    54   18   56 1   
    55   18   57 1   
    56   19   20 1   
    57   19   58 1   
    58   19   59 1   
    59   20   60 1   
    60   20   61 1   
    61   20   62 1   
@<TRIPOS>SUBSTRUCTURE
     1 LFA         1 TEMP              0 ****  ****    0 ROOT
