@<TRIPOS>MOLECULE
LFA
   62    61     1     0     0
SMALL
bcc


@<TRIPOS>ATOM
      1 C1         -9.8340   -0.0270   -6.4190 c3        1 LFA     -0.092100
      2 C2         -8.3210   -0.0270   -6.4190 c3        1 LFA     -0.080400
      3 C3         -7.8170   -0.0270   -4.9920 c3        1 LFA     -0.079400
      4 C4         -6.3040   -0.0130   -4.9920 c3        1 LFA     -0.079400
      5 C5         -5.7990   -0.0270   -3.5660 c3        1 LFA     -0.079400
      6 C6         -4.2870   -0.0020   -3.5660 c3        1 LFA     -0.079400
      7 C7         -3.7820   -0.0240   -2.1400 c3        1 LFA     -0.079400
      8 C8         -2.2700    0.0070   -2.1390 c3        1 LFA     -0.079400
      9 C9         -1.7650   -0.0180   -0.7130 c3        1 LFA     -0.079400
     10 C10        -0.2520    0.0150   -0.7130 c3        1 LFA     -0.079400
     11 C11         0.2520   -0.0110    0.7130 c3        1 LFA     -0.079400
     12 C12         1.7650    0.0220    0.7130 c3        1 LFA     -0.079400
     13 C13         2.2690   -0.0040    2.1390 c3        1 LFA     -0.079400
     14 C14         3.7820    0.0280    2.1400 c3        1 LFA     -0.079400
     15 C15         4.2870   -0.0000    3.5660 c3        1 LFA     -0.079400
     16 C16         5.7990    0.0330    3.5660 c3        1 LFA     -0.079400
     17 C17         6.3040   -0.0010    4.9920 c3        1 LFA     -0.079400
     18 C18         7.8160    0.0390    4.9920 c3        1 LFA     -0.079400
     19 C19         8.3210   -0.0070    6.4180 c3        1 LFA     -0.080400
     20 C20         9.8340    0.0420    6.4190 c3        1 LFA     -0.092100
     21 H11       -10.1590   -0.8220   -5.9550 hc        1 LFA      0.032700
     22 H12       -10.1590    0.7720   -5.9620 hc        1 LFA      0.032700
     23 H13       -10.1590   -0.0310   -7.3390 hc        1 LFA      0.032700
     24 H21        -7.9950   -0.8240   -6.8790 hc        1 LFA      0.038700
     25 H22        -7.9950    0.7700   -6.8790 hc        1 LFA      0.038700
     26 H31        -8.1490    0.7660   -4.5300 hc        1 LFA      0.039700
     27 H32        -8.1350   -0.8280   -4.5350 hc        1 LFA      0.039700
     28 H41        -5.9710   -0.8010   -5.4630 hc        1 LFA      0.039700
     29 H42        -5.9850    0.7920   -5.4420 hc        1 LFA      0.039700
     30 H51        -6.1380    0.7570   -3.0930 hc        1 LFA      0.039700
     31 H52        -6.1110   -0.8360   -3.1180 hc        1 LFA      0.039700
     32 H61        -3.9750    0.8100   -4.0090 hc        1 LFA      0.039700
     33 H62        -3.9480   -0.7840   -4.0430 hc        1 LFA      0.039700
     34 H71        -4.0910   -0.8380   -1.6980 hc        1 LFA      0.039700
     35 H72        -4.1240    0.7550   -1.6620 hc        1 LFA      0.039700
     36 H81        -1.9610    0.8220   -2.5790 hc        1 LFA      0.039700
     37 H82        -1.9280   -0.7710   -2.6190 hc        1 LFA      0.039700
     38 H91        -2.1080    0.7590   -0.2330 hc        1 LFA      0.039700
     39 H92        -2.0730   -0.8340   -0.2740 hc        1 LFA      0.039700
     40 H101        0.0550    0.8310   -1.1520 hc        1 LFA      0.039700
     41 H102        0.0900   -0.7620   -1.1940 hc        1 LFA      0.039700
     42 H111       -0.0560   -0.8270    1.1520 hc        1 LFA      0.039700
     43 H112       -0.0900    0.7670    1.1940 hc        1 LFA      0.039700
     44 H121        2.0730    0.8370    0.2740 hc        1 LFA      0.039700
     45 H122        2.1070   -0.7560    0.2330 hc        1 LFA      0.039700
     46 H131        1.9610   -0.8200    2.5790 hc        1 LFA      0.039700
     47 H132        1.9270    0.7730    2.6200 hc        1 LFA      0.039700
     48 H141        4.1240   -0.7500    1.6580 hc        1 LFA      0.039700
     49 H142        4.0900    0.8440    1.7010 hc        1 LFA      0.039700
     50 H151        3.9790   -0.8170    4.0040 hc        1 LFA      0.039700
     51 H152        3.9440    0.7760    4.0480 hc        1 LFA      0.039700
     52 H161        6.1060    0.8520    3.1320 hc        1 LFA      0.039700
     53 H162        6.1420   -0.7410    3.0810 hc        1 LFA      0.039700
     54 H171        6.0000   -0.8210    5.4250 hc        1 LFA      0.039700
     55 H172        5.9580    0.7710    5.4780 hc        1 LFA      0.039700
     56 H181        8.1200    0.8630    4.5660 hc        1 LFA      0.039700
     57 H182        8.1620   -0.7290    4.5000 hc        1 LFA      0.039700
     58 H191        7.9710    0.7580    6.9120 hc        1 LFA      0.038700
     59 H192        8.0220   -0.8340    6.8420 hc        1 LFA      0.038700
     60 H201       10.1330    0.8690    5.9970 hc        1 LFA      0.032700
     61 H202       10.1840   -0.7220    5.9220 hc        1 LFA      0.032700
     62 H203       10.1600    0.0090    7.3380 hc        1 LFA      0.032700
@<TRIPOS>BOND
     1    1    2 1   
     2    1   21 1   
     3    1   22 1   
     4    1   23 1   
     5    2    3 1   
     6    2   24 1   
     7    2   25 1   
     8    3    4 1   
     9    3   26 1   
    10    3   27 1   
    11    4    5 1   
    12    4   28 1   
    13    4   29 1   
    14    5    6 1   
    15    5   30 1   
    16    5   31 1   
    17    6    7 1   
    18    6   32 1   
    19    6   33 1   
    20    7    8 1   
    21    7   34 1   
    22    7   35 1   
    23    8    9 1   
    24    8   36 1   
    25    8   37 1   
    26    9   10 1   
    27    9   38 1   
    28    9   39 1   
    29   10   11 1   
    30   10   40 1   
    31   10   41 1   
    32   11   12 1   
    33   11   42 1   
    34   11   43 1   
    35   12   13 1   
    36   12   44 1   
    37   12   45 1   
    38   13   14 1   
    39   13   46 1   
    40   13   47 1   
    41   14   15 1   
    42   14   48 1   
    43   14   49 1   
    44   15   16 1   
    45   15   50 1   
    46   15   51 1   
    47   16   17 1   
    48   16   52 1   
    49   16   53 1   
    50   17   18 1   
    51   17   54 1   
    52   17   55 1   
    53   18   19 1   
    54   18   56 1   
    55   18   57 1   
    56   19   20 1   
    57   19   58 1   
    58   19   59 1   
    59   20   60 1   
    60   20   61 1   
    61   20   62 1   
@<TRIPOS>SUBSTRUCTURE
     1 LFA         1 TEMP              0 ****  ****    0 ROOT
