@<TRIPOS>MOLECULE
LFC
   23    22     1     0     0
SMALL
bcc


@<TRIPOS>ATOM
      1 O1A        -4.6700   -0.9970    1.8960 o         1 LFC     -0.831800
      2 C1         -3.6780   -0.2770    2.2260 c         1 LFC      0.891600
      3 O1B        -3.5300    0.3020    3.3300 o         1 LFC     -0.831800
      4 C2         -2.5940   -0.1100    1.1270 c3        1 LFC     -0.018900
      5 O2         -2.3790   -1.3370    0.4510 oh        1 LFC     -0.625800
      6 C3         -3.0720    0.9560    0.1270 c3        1 LFC      0.106100
      7 O3         -4.2170    0.5210   -0.5940 oh        1 LFC     -0.647800
      8 C4         -1.9760    1.2720   -0.9060 c3        1 LFC      0.147100
      9 O4         -0.8370    1.8370   -0.2840 oh        1 LFC     -0.598800
     10 C5         -2.5080    2.2090   -2.0060 c3        1 LFC      0.102100
     11 C6         -1.6070    2.1920   -3.2280 c3        1 LFC     -0.120100
     12 O5         -2.5400    3.5200   -1.4440 oh        1 LFC     -0.608800
     13 H2         -1.6030    0.1870    1.5560 h1        1 LFC      0.074700
     14 HO2        -3.2290   -1.8040    0.4580 ho        1 LFC      0.415000
     15 H3         -3.3380    1.8970    0.6870 h1        1 LFC      0.045700
     16 HO3        -4.7230   -0.0580    0.0030 ho        1 LFC      0.448000
     17 H4         -1.6110    0.3130   -1.3670 h1        1 LFC      0.090700
     18 HO4        -1.1370    2.6230    0.1910 ho        1 LFC      0.408000
     19 H5         -3.5500    1.8870   -2.2860 h1        1 LFC      0.064700
     20 H61        -1.6250    1.1800   -3.6970 hc        1 LFC      0.034367
     21 H62        -0.5600    2.4340   -2.9270 hc        1 LFC      0.034367
     22 H63        -1.9500    2.9450   -3.9760 hc        1 LFC      0.034367
     23 HO5        -3.0840    4.0540   -2.0320 ho        1 LFC      0.389000
@<TRIPOS>BOND
     1    1    2 1   
     2    2    3 1   
     3    2    4 1   
     4    4    5 1   
     5    4    6 1   
     6    4   13 1   
     7    5   14 1   
     8    6    7 1   
     9    6    8 1   
    10    6   15 1   
    11    7   16 1   
    12    8    9 1   
    13    8   10 1   
    14    8   17 1   
    15    9   18 1   
    16   10   11 1   
    17   10   12 1   
    18   10   19 1   
    19   11   20 1   
    20   11   21 1   
    21   11   22 1   
    22   12   23 1   
@<TRIPOS>SUBSTRUCTURE
     1 LFC         1 TEMP              0 ****  ****    0 ROOT
