@<TRIPOS>MOLECULE
LFC
   23    22     1     0     0
SMALL
bcc


@<TRIPOS>ATOM
      1 O1A         0.0610   -0.6020    0.6770 o         1 LFC     -0.824300
      2 C1          1.1700   -0.3100    0.1340 c         1 LFC      0.897600
      3 O1B         1.3840   -0.2100   -1.0970 o         1 LFC     -0.824300
      4 C2          2.3400   -0.0590    1.1270 c3        1 LFC     -0.032900
      5 O2          1.8760    0.6350    2.2750 oh        1 LFC     -0.647800
      6 C3          2.9900   -1.3830    1.5510 c3        1 LFC      0.110100
      7 O3          2.0550   -2.3640    1.9810 oh        1 LFC     -0.643800
      8 C4          3.9590   -1.1960    2.7390 c3        1 LFC      0.110100
      9 O4          4.7600   -0.0300    2.6070 oh        1 LFC     -0.637800
     10 C5          4.9310   -2.3840    2.8410 c3        1 LFC      0.146100
     11 C6          5.6110   -2.4030    4.2000 c3        1 LFC     -0.121100
     12 O5          5.9040   -2.3670    1.8100 oh        1 LFC     -0.609800
     13 H2          3.1120    0.6040    0.6540 h1        1 LFC      0.063700
     14 HO2         0.9450    0.3870    2.3890 ho        1 LFC      0.427000
     15 H3          3.5500   -1.8090    0.6720 h1        1 LFC      0.061700
     16 HO3         1.1680   -2.0730    1.7120 ho        1 LFC      0.447000
     17 H4          3.3520   -1.1270    3.6850 h1        1 LFC      0.049700
     18 HO4         4.1520    0.7180    2.5500 ho        1 LFC      0.431000
     19 H5          4.3510   -3.3350    2.6700 h1        1 LFC      0.085700
     20 H61         4.8570   -2.5850    5.0010 hc        1 LFC      0.033700
     21 H62         6.3800   -3.2110    4.2300 hc        1 LFC      0.033700
     22 H63         6.1110   -1.4230    4.3890 hc        1 LFC      0.033700
     23 HO5         6.2210   -1.4580    1.7300 ho        1 LFC      0.412000
@<TRIPOS>BOND
     1    1    2 1   
     2    2    3 1   
     3    2    4 1   
     4    4    5 1   
     5    4    6 1   
     6    4   13 1   
     7    5   14 1   
     8    6    7 1   
     9    6    8 1   
    10    6   15 1   
    11    7   16 1   
    12    8    9 1   
    13    8   10 1   
    14    8   17 1   
    15    9   18 1   
    16   10   11 1   
    17   10   12 1   
    18   10   19 1   
    19   11   20 1   
    20   11   21 1   
    21   11   22 1   
    22   12   23 1   
@<TRIPOS>SUBSTRUCTURE
     1 LFC         1 TEMP              0 ****  ****    0 ROOT
