@<TRIPOS>MOLECULE
LFC
   23    21     1     0     0
SMALL
bcc


@<TRIPOS>ATOM
      1 O1A        -2.4010   -1.5670   -2.5140 o         1 LFC     -0.529000
      2 C1         -1.1420   -1.5670   -2.5140 c1        1 LFC      0.313000
      3 O1B        -0.5130   -1.5670   -3.6040 os        1 LFC     -0.595000
      4 C2         -0.3860   -1.5670   -1.2040 c3        1 LFC     -0.085000
      5 O2          0.7780   -2.3490   -1.3340 oh        1 LFC     -0.358000
      6 C3         -0.0040   -0.1500   -0.8430 c3        1 LFC     -0.011000
      7 O3          1.2860    0.1280   -1.3360 oh        1 LFC     -0.388000
      8 C4         -0.0140    0.0070    0.6600 c3        1 LFC      0.003000
      9 O4         -1.2870   -0.3290    1.1590 oh        1 LFC     -0.340000
     10 C5          0.3060    1.4400    1.0190 c3        1 LFC      0.002000
     11 C6          0.9960    1.4810    2.3640 c3        1 LFC     -0.206000
     12 O5         -0.8860    2.1860    1.0800 oh        1 LFC     -0.358000
     13 H2         -0.9520   -1.9400   -0.5020 h1        1 LFC      0.103000
     14 HO2         0.5750   -3.2040   -1.2090 ho        1 LFC      0.219000
     15 H3         -0.6440    0.4710   -1.2400 h1        1 LFC      0.095000
     16 HO3         1.2210    0.6080   -2.0800 ho        1 LFC      0.251000
     17 H4          0.6560   -0.5840    1.0530 h1        1 LFC      0.109000
     18 HO4        -1.1970   -0.8150    1.8960 ho        1 LFC      0.210000
     19 H5          0.8940    1.8220    0.3400 h1        1 LFC      0.116000
     20 H61         1.0810    0.5730    2.7130 hc        1 LFC      0.074000
     21 H62         1.8830    1.8750    2.2630 hc        1 LFC      0.074000
     22 H63         0.4690    2.0200    2.9840 hc        1 LFC      0.074000
     23 HO5        -0.7220    3.0270    0.8490 ho        1 LFC      0.225000
@<TRIPOS>BOND
     1    1    2 1   
     2    2    4 1   
     3    4    5 1   
     4    4    6 1   
     5    4   13 1   
     6    5   14 1   
     7    6    7 1   
     8    6    8 1   
     9    6   15 1   
    10    7   16 1   
    11    8    9 1   
    12    8   10 1   
    13    8   17 1   
    14    9   18 1   
    15   10   11 1   
    16   10   12 1   
    17   10   19 1   
    18   11   20 1   
    19   11   21 1   
    20   11   22 1   
    21   12   23 1   
@<TRIPOS>SUBSTRUCTURE
     1 LFC         1 TEMP              0 ****  ****    0 ROOT
