@<TRIPOS>MOLECULE
LFC
   23    22     1     0     0
SMALL
bcc


@<TRIPOS>ATOM
      1 O1A         0.9880    0.2380   -0.5920 o         1 LFC     -0.824300
      2 C1          2.0770    0.1870    0.0400 c         1 LFC      0.899600
      3 O1B         3.2260    0.3530   -0.4580 o         1 LFC     -0.824300
      4 C2          1.9880   -0.1080    1.5600 c3        1 LFC     -0.028900
      5 O2          0.6470   -0.1840    2.0050 oh        1 LFC     -0.639800
      6 C3          2.7140   -1.4260    1.8890 c3        1 LFC      0.102100
      7 O3          1.9390   -2.2970    2.6950 oh        1 LFC     -0.617800
      8 C4          4.0520   -1.1500    2.6020 c3        1 LFC      0.101100
      9 O4          4.8810   -0.2370    1.9070 oh        1 LFC     -0.649800
     10 C5          4.8450   -2.4600    2.7920 c3        1 LFC      0.124100
     11 C6          5.8210   -2.3270    3.9500 c3        1 LFC     -0.118100
     12 O5          5.5420   -2.8260    1.6130 oh        1 LFC     -0.613800
     13 H2          2.4540    0.7410    2.1320 h1        1 LFC      0.056700
     14 HO2         0.0950   -0.3130    1.2150 ho        1 LFC      0.435000
     15 H3          2.9220   -2.0020    0.9430 h1        1 LFC      0.088700
     16 HO3         1.3100   -1.7600    3.1940 ho        1 LFC      0.412000
     17 H4          3.8500   -0.6950    3.6120 h1        1 LFC      0.040700
     18 HO4         4.4790   -0.0420    1.0380 ho        1 LFC      0.467000
     19 H5          4.1260   -3.3080    2.9750 h1        1 LFC      0.079700
     20 H61         5.2640   -2.2100    4.9090 hc        1 LFC      0.032033
     21 H62         6.4670   -3.2340    4.0110 hc        1 LFC      0.032033
     22 H63         6.4710   -1.4320    3.7970 hc        1 LFC      0.032033
     23 HO5         5.9230   -2.0170    1.2440 ho        1 LFC      0.414000
@<TRIPOS>BOND
     1    1    2 1   
     2    2    3 1   
     3    2    4 1   
     4    4    5 1   
     5    4    6 1   
     6    4   13 1   
     7    5   14 1   
     8    6    7 1   
     9    6    8 1   
    10    6   15 1   
    11    7   16 1   
    12    8    9 1   
    13    8   10 1   
    14    8   17 1   
    15    9   18 1   
    16   10   11 1   
    17   10   12 1   
    18   10   19 1   
    19   11   20 1   
    20   11   21 1   
    21   11   22 1   
    22   12   23 1   
@<TRIPOS>SUBSTRUCTURE
     1 LFC         1 TEMP              0 ****  ****    0 ROOT
