@<TRIPOS>MOLECULE
LFD
   64    59     1     0     0
SMALL
bcc


@<TRIPOS>ATOM
      1 OAA        -0.1640    0.2340    1.3530 o         1 LFD     -0.477000
      2 ClB         4.8650   -2.4690   -1.7670 cl        1 LFD      0.015000
      3 ClD        -4.0510    3.1400    9.8420 cl        1 LFD      0.005000
      4 ClE         4.1720   -0.1530   -6.5120 cl        1 LFD      0.021000
      5 CAF        -0.0180    3.8700    3.7480 c1        1 LFD     -0.230000
      6 CAG         2.8570   -0.7660   -2.2170 c1        1 LFD     -0.113000
      7 CAH        -3.0260   -1.1970    1.8330 c1        1 LFD     -0.230000
      8 CAI         1.6800   -1.7520    2.5350 c1        1 LFD     -0.131000
      9 CAJ        -2.3050   -0.2290   11.2410 c2        1 LFD     -0.455000
     10 CAK        -4.2050   -1.3790    1.7460 c1        1 LFD     -0.230000
     11 CAL         1.2450   -1.9220    3.6980 c1        1 LFD     -0.184000
     12 CAM        -2.2040   -1.3520   10.5610 c1        1 LFD      0.239000
     13 CAN         2.0830    0.1350   -3.0410 c3        1 LFD     -0.195000
     14 CAO         0.1460    2.7650    3.3210 c1        1 LFD     -0.230000
     15 CAP        -3.3950    2.8580    1.3490 c1        1 LFD     -0.077000
     16 CAQ         4.3650   -1.2210   -4.0690 c2        1 LFD      0.019000
     17 CAR        -1.7540    1.9600    9.2490 c2        1 LFD     -0.185000
     18 CAS        -1.1210   -0.6340    4.7030 c3        1 LFD     -0.101000
     19 CAT        -0.7780   -1.9620    6.7240 c2        1 LFD     -0.036000
     20 CAU         0.8380    1.5790    7.7580 c2        1 LFD     -0.083000
     21 CAV        -1.9900   -1.7000    7.2410 c2        1 LFD     -0.307000
     22 CAW         1.1040    1.9610   -5.9040 c1        1 LFD     -0.107000
     23 NAX        -4.3000    3.5740    1.5420 n1        1 LFD     -0.085000
     24 NAY         1.6980   -0.8180    0.2860 ns        1 LFD     -0.315000
     25 OAZ         0.3050    0.6710   -0.7770 oh        1 LFD     -0.348000
     26 CBA         0.6050   -0.0060    0.3930 c2        1 LFD      0.397000
     27 CBB         3.9790   -1.4170   -2.7640 c2        1 LFD     -0.158000
     28 CBC         2.1820   -1.6110    1.3220 c2        1 LFD      0.014000
     29 CBD        -3.1850    0.8970   10.9870 c2        1 LFD     -0.031000
     30 CBE        -2.9340    1.8750   10.0890 c2        1 LFD     -0.033000
     31 CBF         3.6210   -0.3340   -4.9160 c2        1 LFD     -0.120000
     32 CBG         0.8150   -2.1130    4.9350 c2        1 LFD      0.044000
     33 CBH        -0.5040    1.7040    9.6940 c2        1 LFD     -0.053000
     34 CBI         2.5170    0.3340   -4.4480 c2        1 LFD      0.089000
     35 CBJ         1.7580    1.2100   -5.2360 c1        1 LFD     -0.179000
     36 NBK        -0.2680   -1.4560    5.5210 n3        1 LFD     -0.219000
     37 NBL         0.6950    1.8690    8.9970 n2        1 LFD     -0.168000
     38 NBM        -2.3390    2.0660    1.0140 n8        1 LFD     -0.267000
     39 HAF        -0.1670    4.8510    4.1250 ha        1 LFD      0.230250
     40 HAG         2.0390    1.1350   -2.4970 hc        1 LFD      0.206000
     41 HAH        -1.9730   -1.0440    1.9090 ha        1 LFD      0.230250
     42 HAI         3.0970   -2.1660    1.0280 h4        1 LFD      0.162000
     43 HAJ        -1.6760   -0.1270   12.1560 ha        1 LFD      0.208000
     44 HAK        -5.2520   -1.5380    1.6720 ha        1 LFD      0.230250
     45 HAL         1.3590   -2.8110    5.6040 h4        1 LFD      0.153000
     46 HAM        -0.3230    1.3930   10.7440 h4        1 LFD      0.152000
     47 HAN         1.0030   -0.2210   -3.0080 hc        1 LFD      0.206000
     48 HAO         0.3000    1.7800    2.9440 ha        1 LFD      0.230250
     49 HAP        -1.5120    2.2810    1.5470 hn        1 LFD      0.210500
     50 HAQ         5.2470   -1.7330   -4.4970 ha        1 LFD      0.170000
     51 HAR        -1.9380    2.2990    8.2140 ha        1 LFD      0.149000
     52 HAS         1.8320    1.7560    7.3070 h4        1 LFD      0.125500
     53 HASA       -0.5570   -0.2600    3.8040 h1        1 LFD      0.091000
     54 HAT        -1.4650    0.2450    5.3130 h1        1 LFD      0.091000
     55 HATA       -0.0570   -2.5950    7.2800 h4        1 LFD      0.136000
     56 HAU        -2.0260   -1.2000    4.3480 h1        1 LFD      0.091000
     57 HAUA        0.0710    1.1460    7.0850 h4        1 LFD      0.125500
     58 HAV        -2.7580   -1.1020    6.7390 ha        1 LFD      0.130000
     59 HAVA       -2.2610   -2.0880    8.2330 ha        1 LFD      0.130000
     60 HAW        -2.5600    1.0860    1.0750 hn        1 LFD      0.210500
     61 HAWA        0.5230    2.6270   -6.4940 ha        1 LFD      0.237000
     62 HNAY        2.2010   -0.8550   -0.6430 hn        1 LFD      0.333000
     63 HBJ        -0.4770    1.2200   -0.6090 ho        1 LFD      0.260000
     64 ClC        -4.5930    0.8910   11.9450 cl        1 LFD      0.006000
@<TRIPOS>BOND
     1    1   26 1   
     2    2   27 1   
     3    3   30 1   
     4    4   31 1   
     5    5   14 1   
     6    5   39 1   
     7    6   13 1   
     8    6   27 1   
     9    7   10 1   
    10    7   41 1   
    11    8   11 1   
    12    8   28 1   
    13    9   12 1   
    14    9   29 1   
    15    9   43 1   
    16   10   44 1   
    17   11   32 1   
    18   13   34 1   
    19   13   40 1   
    20   13   47 1   
    21   14   48 1   
    22   15   23 1   
    23   15   38 1   
    24   16   27 1   
    25   16   31 1   
    26   16   50 1   
    27   17   30 1   
    28   17   33 1   
    29   17   51 1   
    30   18   36 1   
    31   18   53 1   
    32   18   54 1   
    33   18   56 1   
    34   19   21 1   
    35   19   36 1   
    36   19   55 1   
    37   20   37 1   
    38   20   52 1   
    39   20   57 1   
    40   21   58 1   
    41   21   59 1   
    42   22   35 1   
    43   22   61 1   
    44   24   26 1   
    45   24   28 1   
    46   24   62 1   
    47   25   26 1   
    48   25   63 1   
    49   28   42 1   
    50   29   30 1   
    51   29   64 1   
    52   31   34 1   
    53   32   36 1   
    54   32   45 1   
    55   33   37 1   
    56   33   46 1   
    57   34   35 1   
    58   38   49 1   
    59   38   60 1   
@<TRIPOS>SUBSTRUCTURE
     1 LFD         1 TEMP              0 ****  ****    0 ROOT
