@<TRIPOS>MOLECULE
LFD
   65    64     1     0     0
SMALL
bcc


@<TRIPOS>ATOM
      1 OAA         2.3910    1.1170   -1.0020 o         1 LFD     -0.475500
      2 CLB         3.0950   -5.4040   -6.8000 cl        1 LFD      0.059000
      3 CLD        -5.4310   -2.1280   13.7010 cl        1 LFD      0.013000
      4 CLE        -0.4450   -1.8540   -5.0650 cl        1 LFD      0.010000
      5 CAF        -0.0420    4.0380   -4.0780 c2        1 LFD      0.117000
      6 CAG         3.8750   -3.2280   -5.4670 c1        1 LFD     -0.014000
      7 CAH        -0.6960    0.6890    2.0090 c2        1 LFD     -0.229000
      8 CAI         1.1450   -0.1870    3.1270 c1        1 LFD     -0.304000
      9 CAJ        -1.7960   -2.0160   11.9350 c2        1 LFD     -0.441000
     10 CAK        -1.3840    0.5950    3.1590 c2        1 LFD     -0.104000
     11 CAL         0.5100   -0.2840    4.1620 c1        1 LFD     -0.077000
     12 CAM        -1.4870   -1.2950   10.8800 c1        1 LFD      0.219000
     13 CAN         3.6090   -2.0010   -4.7410 c3        1 LFD     -0.201000
     14 CAO         0.8970    3.0730   -4.2340 c2        1 LFD     -0.245000
     15 CAP        -1.9070    4.1800   -2.3420 c1        1 LFD      0.281000
     16 CAQ         1.4780   -3.5050   -5.8850 c2        1 LFD     -0.058000
     17 CAR        -3.4860   -0.3360   13.7690 c2        1 LFD     -0.186000
     18 CAS        -0.5750    2.1450    5.6280 c3        1 LFD     -0.112000
     19 CAT        -1.2570    0.1730    6.8860 c2        1 LFD     -0.082000
     20 CAU        -2.4240    1.9460   15.4590 c2        1 LFD     -0.083000
     21 CAV        -0.7810    0.6150    8.0580 c2        1 LFD     -0.253000
     22 CAW         1.1750    0.6780   -4.2020 c2        1 LFD     -0.202000
     23 NAX        -1.0270    4.0770   -3.1400 n2        1 LFD     -0.376000
     24 NAY         1.6280    1.3040    1.2240 n4        1 LFD     -0.117000
     25 OAZ         0.3290    1.9500   -0.6660 o         1 LFD     -0.475500
     26 CBA         1.4210    1.4700   -0.2960 c2        1 LFD      0.373000
     27 CBB         2.7620   -3.9550   -6.0000 c2        1 LFD     -0.126000
     28 CBC         0.7610    0.2230    1.7920 c3        1 LFD      0.130000
     29 CBD        -3.1190   -2.3870   12.4060 c2        1 LFD     -0.040000
     30 CBE        -3.8740   -1.6240   13.2260 c2        1 LFD     -0.032000
     31 CBF         1.1980   -2.2730   -5.1790 c2        1 LFD     -0.044000
     32 CBG        -0.8930   -0.0040    4.5140 c3        1 LFD      0.146000
     33 CBH        -2.2510   -0.0750   14.2500 c2        1 LFD     -0.054000
     34 CBI         2.1960   -1.5320   -4.6210 c2        1 LFD     -0.107000
     35 CBJ         2.0250   -0.3090   -3.8610 c2        1 LFD     -0.038000
     36 NBK        -1.1950    0.8430    5.6390 n3        1 LFD     -0.231000
     37 NBL        -1.7620    1.1520   14.7050 n2        1 LFD     -0.163000
     38 NBM         1.0410    1.8930   -3.4010 n4        1 LFD      0.048000
     39 HAF        -0.0270    4.9060   -4.7790 h4        1 LFD      0.195000
     40 HAG         4.2350   -1.1960   -5.2380 hc        1 LFD      0.180000
     41 HAH        -1.1600    1.0920    1.0910 ha        1 LFD      0.178000
     42 HAI         0.7790   -0.6360    1.0540 hx        1 LFD      0.158000
     43 HAJ        -0.9550   -2.4360   12.5350 ha        1 LFD      0.211000
     44 HAK        -2.4350    0.9300    3.2100 ha        1 LFD      0.176000
     45 HAL        -1.4370   -0.9920    4.6540 h1        1 LFD      0.152000
     46 HAM        -1.4590   -0.8520   14.2520 h4        1 LFD      0.154000
     47 HAN         4.0550   -2.1420   -3.7080 hc        1 LFD      0.180000
     48 HAO         1.6500    3.1380   -5.0420 hx        1 LFD      0.204000
     49 HAP         0.2340    1.7760   -2.7570 hn        1 LFD      0.277000
     50 HAQ         0.6220   -4.0560   -6.3140 ha        1 LFD      0.177000
     51 HAR        -4.2820    0.4300   13.7770 ha        1 LFD      0.150000
     52 HAS        -1.9340    2.8930   15.7550 h4        1 LFD      0.123000
     53 HASA       -0.7520    2.6230    4.6280 h1        1 LFD      0.084333
     54 HAT         0.5320    2.1020    5.8210 h1        1 LFD      0.084333
     55 HATA       -1.8260   -0.7760    6.8280 h4        1 LFD      0.142000
     56 HAU        -1.0570    2.7760    6.4210 h1        1 LFD      0.084333
     57 HAUA       -3.4390    1.7760   15.8660 h4        1 LFD      0.123000
     58 HAV        -0.2050    1.5400    8.1810 ha        1 LFD      0.141500
     59 HAVA       -0.9700    0.0490    8.9850 ha        1 LFD      0.141500
     60 HAW         1.8770    2.0100   -2.7920 hn        1 LFD      0.277000
     61 HAWA        0.5110    0.6620   -5.0860 hx        1 LFD      0.198000
     62 HNAY        1.4110    2.1880    1.6870 hn        1 LFD      0.245500
     63 HBJ         2.6810   -0.2230   -2.9660 ha        1 LFD      0.180000
     64 HAY2        2.6090    1.0620    1.3950 hn        1 LFD      0.245500
     65 CLC        -3.6480   -3.9010   11.8370 cl        1 LFD      0.011000
@<TRIPOS>BOND
     1    1   26 1   
     2    2   27 1   
     3    3   30 1   
     4    4   31 1   
     5    5   14 1   
     6    5   23 1   
     7    5   39 1   
     8    6   13 1   
     9    6   27 1   
    10    7   10 1   
    11    7   28 1   
    12    7   41 1   
    13    8   11 1   
    14    8   28 1   
    15    9   12 1   
    16    9   29 1   
    17    9   43 1   
    18   10   32 1   
    19   10   44 1   
    20   11   32 1   
    21   13   34 1   
    22   13   40 1   
    23   13   47 1   
    24   14   38 1   
    25   14   48 1   
    26   15   23 1   
    27   16   27 1   
    28   16   31 1   
    29   16   50 1   
    30   17   30 1   
    31   17   33 1   
    32   17   51 1   
    33   18   36 1   
    34   18   53 1   
    35   18   54 1   
    36   18   56 1   
    37   19   21 1   
    38   19   36 1   
    39   19   55 1   
    40   20   37 1   
    41   20   52 1   
    42   20   57 1   
    43   21   58 1   
    44   21   59 1   
    45   22   35 1   
    46   22   38 1   
    47   22   61 1   
    48   24   26 1   
    49   24   28 1   
    50   24   62 1   
    51   24   64 1   
    52   25   26 1   
    53   28   42 1   
    54   29   30 1   
    55   29   65 1   
    56   31   34 1   
    57   32   36 1   
    58   32   45 1   
    59   33   37 1   
    60   33   46 1   
    61   34   35 1   
    62   35   63 1   
    63   38   49 1   
    64   38   60 1   
@<TRIPOS>SUBSTRUCTURE
     1 LFD         1 TEMP              0 ****  ****    0 ROOT
