@<TRIPOS>MOLECULE
LFD
   64    62     1     0     0
SMALL
bcc


@<TRIPOS>ATOM
      1 OAA         1.3550    1.0090    0.7010 o         1 LFD     -0.832300
      2 CLB        -0.4530   -3.7140   -5.6070 cl        1 LFD     -0.072400
      3 CLD        -4.7500    1.2770   12.3870 cl        1 LFD     -0.099400
      4 CLE         0.0750    1.5660   -5.1840 cl        1 LFD     -0.082400
      5 CAF         0.7330    4.5600   -1.6070 ce        1 LFD      0.571700
      6 CAG         1.1990   -2.6090   -3.8320 c2        1 LFD     -0.123200
      7 CAH         0.3430   -0.7660    2.6490 c3        1 LFD     -0.116500
      8 CAI         2.0530   -1.1290    4.3800 cg        1 LFD     -0.716200
      9 CAJ        -1.5880   -1.1430   12.7550 cg        1 LFD     -0.159300
     10 CAK        -0.5950    0.3400    2.9620 c2        1 LFD     -0.186200
     11 CAL         2.3200   -1.7300    5.4430 c1        1 LFD      0.054000
     12 CAM        -0.6980   -1.9360   12.6290 c1        1 LFD     -0.124500
     13 CAN         1.8600   -1.4900   -3.1280 c3        1 LFD     -0.029000
     14 CAO         1.9670    4.0030   -1.5730 c2        1 LFD     -0.119000
     15 CAP        -1.5240    3.4000   -1.3400 c1        1 LFD      0.567800
     16 CAQ        -0.0680   -1.0810   -5.2460 ce        1 LFD     -0.057000
     17 CAR        -3.4200   -0.1200   10.5820 cf        1 LFD     -0.293000
     18 CAS        -2.3630    2.4430    4.1520 c2        1 LFD      0.440100
     19 CAT        -0.7140   -1.8440    6.9640 c2        1 LFD     -0.283000
     20 CAU        -3.3060   -0.7210    7.7320 c3        1 LFD      0.188100
     21 CAV        -0.9060   -1.1250    8.0800 c2        1 LFD      0.041000
     22 CAW         2.7260    1.9450   -2.5630 c2        1 LFD     -0.064100
     23 NAX        -0.4600    3.9170   -1.4640 n1        1 LFD     -1.170500
     24 NAY         2.5740    0.3770    2.6320 n         1 LFD     -0.440500
     25 OAZ         3.4070    1.8000    1.0340 o         1 LFD     -0.832300
     26 CBA         2.4140    1.0880    1.3960 c         1 LFD      1.014600
     27 CBB         0.2990   -2.4140   -4.8170 ce        1 LFD     -0.004600
     28 CBC         1.7130   -0.4810    3.2270 ce        1 LFD      0.471500
     29 CBD        -2.6280   -0.2240   12.9530 ce        1 LFD      0.079700
     30 CBE        -3.4660    0.2210   11.9810 cf        1 LFD      0.115400
     31 CBF         0.5080    0.0020   -4.6740 cf        1 LFD     -0.004600
     32 CBG        -1.5090    0.2560    3.9490 ce        1 LFD      0.039600
     33 CBH        -2.2610   -0.3920    9.9210 c2        1 LFD      0.138000
     34 CBI         1.5080   -0.1180   -3.6190 cf        1 LFD      0.013700
     35 CBJ         2.1040    0.9290   -3.0920 c1        1 LFD     -0.046800
     36 NBK        -2.5130    1.1780    4.2680 ne        1 LFD     -0.584300
     37 NBL        -2.1420   -0.6690    8.5750 nh        1 LFD     -0.551200
     38 NBM         2.2620    2.6060   -1.3440 n4        1 LFD     -0.568600
     39 HAF         0.6500    5.6590   -1.7620 h4        1 LFD      0.178000
     40 HAG         2.9780   -1.6290   -3.2010 hc        1 LFD      0.100700
     41 HAH         0.4110   -0.8860    1.5320 hc        1 LFD      0.083700
     42 HAI        -0.0170   -1.7360    3.0870 hc        1 LFD      0.083700
     43 HAJ        -1.2940   -0.3780   10.4700 h4        1 LFD      0.152000
     44 HAK        -0.5040    1.2200    2.3030 ha        1 LFD      0.143000
     45 HAL        -1.5700   -0.6420    4.6010 h4        1 LFD      0.157000
     46 HAM         0.0860   -2.6390   12.5120 ha        1 LFD      0.171500
     47 HAN         1.5950   -1.5540   -2.0310 hc        1 LFD      0.100700
     48 HAO         2.8690    4.6290   -1.7110 hx        1 LFD      0.187000
     49 HAP         1.4490    2.0920   -0.9310 hn        1 LFD      0.510800
     50 HAQ        -0.8240   -0.9810   -6.0440 ha        1 LFD      0.172000
     51 HAR        -4.3930   -0.1200   10.0650 ha        1 LFD      0.147000
     52 HAS        -3.2170    3.0860    4.4320 h4        1 LFD     -0.016700
     53 HASA       -1.4530    2.9730    3.8100 h4        1 LFD     -0.016700
     54 HAT        -1.5200   -2.1990    6.3110 ha        1 LFD      0.139000
     55 HATA        0.3080   -2.1020    6.6440 ha        1 LFD      0.139000
     56 HAU        -3.0000   -0.6150    6.6570 h1        1 LFD      0.048700
     57 HAUA       -3.9970    0.1260    7.9890 h1        1 LFD      0.048700
     58 HAV        -3.8580   -1.6910    7.8630 h1        1 LFD      0.048700
     59 HAVA       -0.0440   -0.8190    8.7070 h4        1 LFD      0.143000
     60 HAW         3.0200    2.5240   -0.6040 hn        1 LFD      0.510800
     61 HAWA        3.6600    2.3780   -2.9690 hx        1 LFD      0.185000
     62 HNAY        3.4580    0.5270    3.0820 hn        1 LFD      0.340500
     63 HBJ         1.4860   -3.6180   -3.4930 ha        1 LFD      0.161000
     64 CLC        -2.7810    0.2980   14.5740 cl        1 LFD     -0.089400
@<TRIPOS>BOND
     1    1   26 1   
     2    2   27 1   
     3    3   30 1   
     4    4   31 1   
     5    5   14 2   
     6    5   23 1   
     7    5   39 1   
     8    6   13 1   
     9    6   27 2   
    10    6   63 1   
    11    7   10 1   
    12    7   28 1   
    13    7   41 1   
    14    7   42 1   
    15    8   11 3   
    16    8   28 1   
    17    9   12 3   
    18    9   29 1   
    19   10   32 2   
    20   10   44 1   
    21   12   46 1   
    22   13   34 1   
    23   13   40 1   
    24   13   47 1   
    25   14   38 1   
    26   14   48 1   
    27   15   23 3   
    28   16   27 1   
    29   16   31 2   
    30   16   50 1   
    31   17   30 1   
    32   17   33 2   
    33   17   51 1   
    34   18   36 2   
    35   18   52 1   
    36   18   53 1   
    37   19   21 2   
    38   19   54 1   
    39   19   55 1   
    40   20   37 1   
    41   20   56 1   
    42   20   57 1   
    43   20   58 1   
    44   21   37 1   
    45   21   59 1   
    46   22   35 2   
    47   22   38 1   
    48   22   61 1   
    49   24   26 1   
    50   24   28 2   
    51   24   62 1   
    52   25   26 1   
    53   29   30 2   
    54   29   64 1   
    55   31   34 1   
    56   32   36 1   
    57   32   45 1   
    58   33   37 1   
    59   33   43 1   
    60   34   35 2   
    61   38   49 1   
    62   38   60 1   
@<TRIPOS>SUBSTRUCTURE
     1 LFD         1 TEMP              0 ****  ****    0 ROOT
