@<TRIPOS>MOLECULE
LFN
   31    33     1     0     0
SMALL
bcc


@<TRIPOS>ATOM
      1 N1         -2.4800    1.3570   -0.0050 nc        1 LFN     -0.419400
      2 C2         -3.7050    0.6500   -0.0060 c         1 LFN      0.851900
      3 C10        -1.3390    0.6870   -0.0030 cd        1 LFN      0.087400
      4 O2         -4.7980    1.2440   -0.0070 o         1 LFN     -0.582500
      5 N3         -3.7220   -0.7680   -0.0050 n         1 LFN     -0.615500
      6 C4         -2.5740   -1.5500   -0.0030 c         1 LFN      0.610000
      7 O4         -2.6620   -2.7860   -0.0030 o         1 LFN     -0.570500
      8 C4A        -1.2570   -0.8150   -0.0020 cd        1 LFN      0.303800
      9 N5         -0.1410   -1.4910   -0.0010 nc        1 LFN     -0.516000
     10 C5A         1.0590   -0.7820    0.0010 ca        1 LFN      0.288600
     11 C6          2.2810   -1.4990    0.0020 ca        1 LFN     -0.100300
     12 C9A         1.0870    0.6510   -0.0000 ca        1 LFN     -0.007600
     13 C7          3.4980   -0.8370    0.0030 ca        1 LFN     -0.110300
     14 C7M         4.7660   -1.6040    0.0050 c3        1 LFN     -0.052800
     15 C8          3.5260    0.5770    0.0030 ca        1 LFN     -0.006300
     16 C8M         4.8270    1.2860    0.0040 c3        1 LFN     -0.065800
     17 C9          2.3430    1.3040    0.0010 ca        1 LFN     -0.181000
     18 N10        -0.1150    1.3710   -0.0020 na        1 LFN     -0.107100
     19 C1'        -0.0580    2.8160   -0.0030 c3        1 LFN      0.006600
     20 H3         -4.6100   -1.2260   -0.0060 hn        1 LFN      0.349500
     21 H6          2.2510   -2.6020    0.0030 ha        1 LFN      0.164000
     22 H7M1        5.3710   -1.3490    0.9120 hc        1 LFN      0.050033
     23 H7M2        4.5760   -2.7050    0.0060 hc        1 LFN      0.050033
     24 H7M3        5.3730   -1.3510   -0.9000 hc        1 LFN      0.050033
     25 H8M1        5.4180    1.0000    0.9110 hc        1 LFN      0.055367
     26 H8M2        5.4200    0.9990   -0.9020 hc        1 LFN      0.055367
     27 H8M3        4.6930    2.3950    0.0030 hc        1 LFN      0.055367
     28 H9          2.4000    2.4040    0.0000 ha        1 LFN      0.148000
     29 H1'1        0.4900    3.1650   -0.9200 h1        1 LFN      0.069033
     30 H1'2       -1.0830    3.2730   -0.0050 h1        1 LFN      0.069033
     31 H1'3        0.4870    3.1660    0.9150 h1        1 LFN      0.069033
@<TRIPOS>BOND
     1    1    2 1   
     2    1    3 2   
     3    2    4 2   
     4    2    5 1   
     5    3    8 1   
     6    3   18 1   
     7    5    6 1   
     8    5   20 1   
     9    6    7 2   
    10    6    8 1   
    11    8    9 2   
    12    9   10 1   
    13   10   11 ar  
    14   10   12 ar  
    15   11   13 ar  
    16   11   21 1   
    17   12   17 ar  
    18   12   18 1   
    19   13   14 1   
    20   13   15 ar  
    21   14   22 1   
    22   14   23 1   
    23   14   24 1   
    24   15   16 1   
    25   15   17 ar  
    26   16   25 1   
    27   16   26 1   
    28   16   27 1   
    29   17   28 1   
    30   18   19 1   
    31   19   29 1   
    32   19   30 1   
    33   19   31 1   
@<TRIPOS>SUBSTRUCTURE
     1 LFN         1 TEMP              0 ****  ****    0 ROOT
