@<TRIPOS>MOLECULE
LFN
   31    28     1     0     0
SMALL
bcc


@<TRIPOS>ATOM
      1 N1          2.4450   -0.0120   -2.6390 n1        1 LFN     -0.280000
      2 C2          3.8120   -0.0120   -2.6390 c1        1 LFN      0.370000
      3 C10         1.7620   -0.0120   -1.4580 c1        1 LFN      0.177000
      4 O2          4.4190   -0.0140   -3.6910 o         1 LFN     -0.307000
      5 N3          4.5010   -0.0120   -1.4500 n2        1 LFN     -0.395000
      6 C4          3.8300   -0.0120   -0.2820 c1        1 LFN      0.357000
      7 O4          4.4390   -0.0010    0.7690 o         1 LFN     -0.295000
      8 C4A         2.4440   -0.0120   -0.2790 c1        1 LFN     -0.114000
      9 N5          1.7580   -0.0120    0.9100 n2        1 LFN      0.010000
     10 C5A         0.3950   -0.0120    0.9110 c1        1 LFN     -0.105000
     11 C6         -0.3100   -0.0120    2.1310 c1        1 LFN     -0.035000
     12 C9A        -0.2920   -0.0120   -0.2780 c2        1 LFN      0.082000
     13 C7         -1.6990   -0.0120    2.1310 c1        1 LFN     -0.103000
     14 C7M        -2.2560    0.0690    3.5360 c2        1 LFN     -0.178000
     15 C8         -2.3950   -0.0120    0.9270 c2        1 LFN      0.001000
     16 C8M        -3.9000   -0.0820    0.7960 c3        1 LFN     -0.191000
     17 C9         -1.7010   -0.0120   -0.2760 c2        1 LFN     -0.181000
     18 N10         0.3900   -0.0120   -1.4580 n3        1 LFN     -0.175000
     19 C1'        -0.2080    0.0560   -2.7490 c3        1 LFN     -0.092000
     20 H3          5.4130   -0.0120   -1.4520 hn        1 LFN      0.263000
     21 H6          0.1780   -0.0170    2.9770 ha        1 LFN      0.164000
     22 H7M1       -1.6270    0.5470    4.1080 ha        1 LFN      0.089333
     23 H7M2       -2.3930   -0.8330    3.8840 ha        1 LFN      0.089333
     24 H7M3       -3.1080    0.5450    3.5200 ha        1 LFN      0.089333
     25 H8M1       -4.2810    0.8060    0.9370 hc        1 LFN      0.094667
     26 H8M2       -4.1350   -0.3980   -0.0970 hc        1 LFN      0.094667
     27 H8M3       -4.2570   -0.6990    1.4630 hc        1 LFN      0.094667
     28 H9         -2.1900   -0.0120   -1.1210 ha        1 LFN      0.148000
     29 H1'1        0.4900    0.1390   -3.4260 h1        1 LFN      0.108333
     30 H1'2       -0.7250   -0.7560   -2.9110 h1        1 LFN      0.108333
     31 H1'3       -0.7980    0.8320   -2.7930 h1        1 LFN      0.108333
@<TRIPOS>BOND
     1    1    3 1   
     2    2    4 1   
     3    2    5 1   
     4    3   18 1   
     5    5   20 1   
     6    6    7 1   
     7    6    8 1   
     8    8    9 1   
     9    9   10 1   
    10   10   12 1   
    11   11   13 1   
    12   11   21 1   
    13   12   17 1   
    14   12   18 1   
    15   13   15 1   
    16   14   22 1   
    17   14   23 1   
    18   14   24 1   
    19   15   16 1   
    20   15   17 1   
    21   16   25 1   
    22   16   26 1   
    23   16   27 1   
    24   17   28 1   
    25   18   19 1   
    26   19   29 1   
    27   19   30 1   
    28   19   31 1   
@<TRIPOS>SUBSTRUCTURE
     1 LFN         1 TEMP              0 ****  ****    0 ROOT
