@<TRIPOS>MOLECULE
LFR
   24    24     1     0     0
SMALL
bcc


@<TRIPOS>ATOM
      1 C1          2.3510   -0.4300   -0.0540 c3        1 LFR      0.117400
      2 C2          0.8370   -0.4310   -0.0570 c3        1 LFR      0.259600
      3 C3          0.3800   -0.4300    1.1850 c3        1 LFR      0.149100
      4 C4         -0.9230    0.4010    1.1310 c3        1 LFR      0.085100
      5 C5         -0.9200    1.1080   -0.2850 c3        1 LFR      0.068100
      6 C6         -1.9400    0.4540   -1.2020 c3        1 LFR      0.115400
      7 O1          2.8240   -0.0810   -1.3380 oh        1 LFR     -0.596800
      8 O2          0.3660   -1.5330   -0.7350 oh        1 LFR     -0.617800
      9 O3          0.0890   -1.8070    1.6220 oh        1 LFR     -0.571800
     10 O4         -0.9300    1.3090    2.0990 oh        1 LFR     -0.583800
     11 O5          0.2780    0.9350   -0.7500 os        1 LFR     -0.454600
     12 O6         -2.0250    1.1830   -2.4060 oh        1 LFR     -0.592800
     13 H1C1        2.6780   -1.3230    0.1820 h1        1 LFR      0.072700
     14 H1C2        2.6760    0.2210    0.6010 h1        1 LFR      0.072700
     15 H3          1.0270   -0.0110    1.7860 h1        1 LFR      0.113700
     16 H4         -1.7010   -0.1870    1.2130 h1        1 LFR      0.064700
     17 H5         -1.1120    2.0610   -0.1890 h1        1 LFR      0.089700
     18 H6C1       -1.6630   -0.4650   -1.3960 h1        1 LFR      0.055200
     19 H6C2       -2.8160    0.4450   -0.7630 h1        1 LFR      0.055200
     20 H1          3.7110   -0.1340   -1.3510 ho        1 LFR      0.416000
     21 H2          0.9770   -1.8050   -1.3210 ho        1 LFR      0.438000
     22 HA          0.4030   -1.9290    2.4450 ho        1 LFR      0.423000
     23 HB         -1.7660    1.4350    2.3830 ho        1 LFR      0.409000
     24 H6         -2.8030    1.0130   -2.8020 ho        1 LFR      0.412000
@<TRIPOS>BOND
     1    1    2 1   
     2    1    7 1   
     3    1   13 1   
     4    1   14 1   
     5    2    3 1   
     6    2    8 1   
     7    2   11 1   
     8    3    4 1   
     9    3    9 1   
    10    3   15 1   
    11    4    5 1   
    12    4   10 1   
    13    4   16 1   
    14    5    6 1   
    15    5   11 1   
    16    5   17 1   
    17    6   12 1   
    18    6   18 1   
    19    6   19 1   
    20    7   20 1   
    21    8   21 1   
    22    9   22 1   
    23   10   23 1   
    24   12   24 1   
@<TRIPOS>SUBSTRUCTURE
     1 LFR         1 TEMP              0 ****  ****    0 ROOT
