@<TRIPOS>MOLECULE
LFR
   24    24     1     0     0
SMALL
bcc


@<TRIPOS>ATOM
      1 C1          1.5440   -0.0690    0.1640 c3        1 LFR      0.117400
      2 C2          0.0270    0.1650    0.1670 c3        1 LFR      0.264600
      3 C3         -0.6400    0.0300    1.5560 c3        1 LFR      0.109100
      4 C4         -1.6160    1.2320    1.6290 c3        1 LFR      0.089100
      5 C5         -1.3060    2.0990    0.3950 c3        1 LFR      0.105100
      6 C6         -2.5070    2.1950   -0.5460 c3        1 LFR      0.118400
      7 O1          2.0450    0.0380   -1.1510 oh        1 LFR     -0.596800
      8 O2         -0.6540   -0.6660   -0.7410 oh        1 LFR     -0.618800
      9 O3         -1.2880   -1.1980    1.7580 oh        1 LFR     -0.581800
     10 O4         -1.3700    2.0230    2.7740 oh        1 LFR     -0.586800
     11 O5         -0.2160    1.4870   -0.3170 os        1 LFR     -0.458600
     12 O6         -2.2210    3.0220   -1.6530 oh        1 LFR     -0.592800
     13 H1C1        1.7600   -1.1240    0.4800 h1        1 LFR      0.071200
     14 H1C2        2.0410    0.6630    0.8500 h1        1 LFR      0.071200
     15 H3          0.1320    0.0950    2.3710 h1        1 LFR      0.098700
     16 H4         -2.6790    0.8710    1.6250 h1        1 LFR      0.062700
     17 H5         -0.9420    3.1210    0.6870 h1        1 LFR      0.103700
     18 H6C1       -2.7990    1.1670   -0.8950 h1        1 LFR      0.056200
     19 H6C2       -3.3690    2.6890   -0.0250 h1        1 LFR      0.056200
     20 H1          1.9330    0.9590   -1.4230 ho        1 LFR      0.417000
     21 H2         -0.1290   -0.7010   -1.5530 ho        1 LFR      0.439000
     22 HA         -1.8060   -1.4030    0.9660 ho        1 LFR      0.428000
     23 HB         -1.6150    1.4870    3.5390 ho        1 LFR      0.413000
     24 H6         -1.4310    2.6620   -2.0770 ho        1 LFR      0.410000
@<TRIPOS>BOND
     1    1    2 1   
     2    1    7 1   
     3    1   13 1   
     4    1   14 1   
     5    2    3 1   
     6    2    8 1   
     7    2   11 1   
     8    3    4 1   
     9    3    9 1   
    10    3   15 1   
    11    4    5 1   
    12    4   10 1   
    13    4   16 1   
    14    5    6 1   
    15    5   11 1   
    16    5   17 1   
    17    6   12 1   
    18    6   18 1   
    19    6   19 1   
    20    7   20 1   
    21    8   21 1   
    22    9   22 1   
    23   10   23 1   
    24   12   24 1   
@<TRIPOS>SUBSTRUCTURE
     1 LFR         1 TEMP              0 ****  ****    0 ROOT
