@<TRIPOS>MOLECULE
LFR
   24    24     1     0     0
SMALL
bcc


@<TRIPOS>ATOM
      1 C1          1.5320   -0.0770    0.1170 c3        1 LFR      0.117400
      2 C2          0.0170    0.1660    0.1450 c3        1 LFR      0.264600
      3 C3         -0.6330    0.0090    1.5400 c3        1 LFR      0.109100
      4 C4         -1.6000    1.2160    1.6470 c3        1 LFR      0.089100
      5 C5         -1.3020    2.1030    0.4250 c3        1 LFR      0.105100
      6 C6         -2.5150    2.2220   -0.4970 c3        1 LFR      0.118400
      7 O1          2.0160    0.0510   -1.2010 oh        1 LFR     -0.596800
      8 O2         -0.6810   -0.6440   -0.7690 oh        1 LFR     -0.618800
      9 O3         -1.2860   -1.2180    1.7280 oh        1 LFR     -0.581800
     10 O4         -1.3350    1.9850    2.8040 oh        1 LFR     -0.586800
     11 O5         -0.2250    1.4980   -0.3120 os        1 LFR     -0.458600
     12 O6         -2.2380    3.0680   -1.5930 oh        1 LFR     -0.592800
     13 H1C1        2.0430    0.6390    0.8110 h1        1 LFR      0.071200
     14 H1C2        1.7460   -1.1390    0.4110 h1        1 LFR      0.071200
     15 H3          0.1500    0.0550    2.3450 h1        1 LFR      0.098700
     16 H4         -2.6660    0.8610    1.6510 h1        1 LFR      0.062700
     17 H5         -0.9270    3.1180    0.7310 h1        1 LFR      0.103700
     18 H6C1       -3.3660    2.7130    0.0440 h1        1 LFR      0.056200
     19 H6C2       -2.8170    1.2030   -0.8610 h1        1 LFR      0.056200
     20 H1          1.9070    0.9780   -1.4560 ho        1 LFR      0.417000
     21 H2         -0.1670   -0.6680   -1.5890 ho        1 LFR      0.439000
     22 HA         -1.8160   -1.4060    0.9390 ho        1 LFR      0.428000
     23 HB         -1.5730    1.4360    3.5620 ho        1 LFR      0.413000
     24 H6         -1.4560    2.7110   -2.0340 ho        1 LFR      0.410000
@<TRIPOS>BOND
     1    1    2 1   
     2    1    7 1   
     3    1   13 1   
     4    1   14 1   
     5    2    3 1   
     6    2    8 1   
     7    2   11 1   
     8    3    4 1   
     9    3    9 1   
    10    3   15 1   
    11    4    5 1   
    12    4   10 1   
    13    4   16 1   
    14    5    6 1   
    15    5   11 1   
    16    5   17 1   
    17    6   12 1   
    18    6   18 1   
    19    6   19 1   
    20    7   20 1   
    21    8   21 1   
    22    9   22 1   
    23   10   23 1   
    24   12   24 1   
@<TRIPOS>SUBSTRUCTURE
     1 LFR         1 TEMP              0 ****  ****    0 ROOT
