@<TRIPOS>MOLECULE
LFR
   24    24     1     0     0
SMALL
bcc


@<TRIPOS>ATOM
      1 C1         -2.1530    0.5850   -0.8590 c3        1 LFR      0.114400
      2 C2         -0.9430    0.1430   -0.0230 c3        1 LFR      0.300600
      3 C3         -0.5520   -1.3400   -0.2310 c3        1 LFR      0.142100
      4 C4          0.9960   -1.3240   -0.2630 c3        1 LFR      0.080100
      5 C5          1.3890    0.1610   -0.3790 c3        1 LFR      0.077100
      6 C6          2.2150    0.6260    0.8210 c3        1 LFR      0.114400
      7 O1         -2.4350    1.9460   -0.6190 oh        1 LFR     -0.595800
      8 O2         -1.0820    0.4220    1.3420 oh        1 LFR     -0.578800
      9 O3         -1.0560   -2.1110    0.8340 oh        1 LFR     -0.560800
     10 O4          1.3920   -2.0770   -1.3940 oh        1 LFR     -0.595800
     11 O5          0.1820    0.9360   -0.4290 os        1 LFR     -0.462600
     12 O6          2.6580    1.9540    0.6440 oh        1 LFR     -0.594800
     13 H1C1       -1.9550    0.3980   -1.9460 h1        1 LFR      0.070700
     14 H1C2       -3.0640    0.0270   -0.5160 h1        1 LFR      0.070700
     15 H3         -0.9550   -1.7060   -1.2150 h1        1 LFR      0.071700
     16 H4          1.4150   -1.7840    0.6730 h1        1 LFR      0.068700
     17 H5          1.9250    0.3800   -1.3410 h1        1 LFR      0.084700
     18 H6C1        3.1520    0.0150    0.9110 h1        1 LFR      0.059700
     19 H6C2        1.6000    0.5390    1.7570 h1        1 LFR      0.059700
     20 H1         -1.6830    2.4560   -0.9500 ho        1 LFR      0.416000
     21 H2         -1.5100    1.2890    1.4130 ho        1 LFR      0.425000
     22 HA         -0.8110   -3.0260    0.6420 ho        1 LFR      0.410000
     23 HB          2.3530   -2.0170   -1.4520 ho        1 LFR      0.412000
     24 H6          1.8690    2.4990    0.5270 ho        1 LFR      0.412000
@<TRIPOS>BOND
     1    1    2 1   
     2    1    7 1   
     3    1   13 1   
     4    1   14 1   
     5    2    3 1   
     6    2    8 1   
     7    2   11 1   
     8    3    4 1   
     9    3    9 1   
    10    3   15 1   
    11    4    5 1   
    12    4   10 1   
    13    4   16 1   
    14    5    6 1   
    15    5   11 1   
    16    5   17 1   
    17    6   12 1   
    18    6   18 1   
    19    6   19 1   
    20    7   20 1   
    21    8   21 1   
    22    9   22 1   
    23   10   23 1   
    24   12   24 1   
@<TRIPOS>SUBSTRUCTURE
     1 LFR         1 TEMP              0 ****  ****    0 ROOT
