@<TRIPOS>MOLECULE
LFS
   49    52     1     0     0
SMALL
bcc


@<TRIPOS>ATOM
      1 CAA         0.2520    0.2890   -0.8810 c3        1 LFS     -0.178500
      2 CAB        -1.2010   -0.9210    0.7660 c3        1 LFS     -0.178500
      3 OAC         3.6610   -5.8210   -0.8210 o         1 LFS     -0.417000
      4 CAE         8.7400   -5.6960   -0.5320 c2        1 LFS     -0.178000
      5 CAF         3.3230  -10.8220   -2.3060 cu        1 LFS     -0.148000
      6 CAG         2.6860  -10.0310   -3.4100 cu        1 LFS     -0.176000
      7 CAH         3.8920   -2.0670   -2.8700 c2        1 LFS     -0.253000
      8 CAI         2.6950   -3.2340   -1.0180 c3        1 LFS     -0.170000
      9 CAJ         3.8900  -10.0550   -1.3850 c2        1 LFS     -0.181000
     10 CAK         2.8630   -8.6050   -3.1660 c3        1 LFS     -0.056000
     11 CAL         1.2950   -0.6160    1.2780 c1        1 LFS      0.284000
     12 CAM         2.1330   -1.9290   -0.7030 c1        1 LFS     -0.047000
     13 CAN         7.3870   -5.8990   -0.2040 c2        1 LFS     -0.161000
     14 CAO         8.1990   -7.6530   -1.3510 c2        1 LFS     -0.104000
     15 CAP         5.7680   -7.7870   -0.6460 c3        1 LFS     -0.054000
     16 NAQ         9.2300   -6.7910   -1.2440 n2        1 LFS     -0.139000
     17 OAS         4.8390   -6.5880   -2.6060 os        1 LFS     -0.280000
     18 CAT         4.1390   -5.5940   -1.9460 c2        1 LFS      0.401000
     19 CAU         2.6240  -11.3600   -3.4360 cu        1 LFS      0.178000
     20 CAV         3.5770   -3.2140   -2.2380 c2        1 LFS      0.026000
     21 CAW         1.1880   -1.8130    0.3590 c3        1 LFS     -0.399000
     22 CAX         3.6730   -8.5940   -1.8050 c3        1 LFS     -0.108000
     23 CAY         0.1890   -0.6370    0.2930 c3        1 LFS     -0.194000
     24 CAZ         5.0030   -7.8690   -1.9830 c3        1 LFS      0.051000
     25 NBA         7.0460   -7.1530   -0.7220 na        1 LFS     -0.162000
     26 HAA         1.2920    0.3390   -1.2930 hc        1 LFS      0.092500
     27 HAAA       -0.4300   -0.0730   -1.6880 hc        1 LFS      0.092500
     28 HAAB       -0.0710    1.3120   -0.5670 hc        1 LFS      0.092500
     29 HAB        -1.7720   -1.4580   -0.0310 hc        1 LFS      0.092500
     30 HABA       -1.7240    0.0410    0.9930 hc        1 LFS      0.092500
     31 HABB       -1.1980   -1.5530    1.6870 hc        1 LFS      0.092500
     32 HAE         9.3710   -4.8410   -0.2960 h4        1 LFS      0.179000
     33 HAG         1.8850   -8.0780   -3.0380 hc        1 LFS      0.121500
     34 HAH         4.5410   -2.0150   -3.7520 ha        1 LFS      0.139000
     35 HAI         1.8810   -4.0070   -1.1530 hc        1 LFS      0.138000
     36 HAJ         3.0630   -8.0690   -1.0230 hc        1 LFS      0.135000
     37 HAK         3.4410   -8.1010   -3.9800 hc        1 LFS      0.121500
     38 HAL         3.4830   -1.1110   -2.5110 ha        1 LFS      0.139000
     39 HAM         3.3050   -3.5910   -0.1310 hc        1 LFS      0.138000
     40 HAN         6.6760   -5.2820    0.3410 h4        1 LFS      0.180000
     41 HAO         8.2240   -8.6280   -1.8480 h5        1 LFS      0.195000
     42 HAP         5.1330   -7.2350    0.1060 h1        1 LFS      0.126000
     43 HAPA        5.9180   -8.8460   -0.2850 h1        1 LFS      0.126000
     44 HAY         0.8050   -2.7440    0.8400 hc        1 LFS      0.132000
     45 HAZ         5.6330   -8.3990   -2.7600 h1        1 LFS      0.131000
     46 NAR         4.0410   -4.4600   -2.7250 n         1 LFS     -0.299000
     47 HAF         4.3970  -10.3190   -0.4610 ha        1 LFS      0.160000
     48 FAD         2.2310  -12.4600   -4.0220 f         1 LFS     -0.022000
     49 HNAR        4.5850   -4.4410   -3.5620 hn        1 LFS      0.248000
@<TRIPOS>BOND
     1    1   23 1   
     2    1   26 1   
     3    1   27 1   
     4    1   28 1   
     5    2   23 1   
     6    2   29 1   
     7    2   30 1   
     8    2   31 1   
     9    3   18 1   
    10    4   13 1   
    11    4   16 1   
    12    4   32 1   
    13    5    6 1   
    14    5    9 1   
    15    5   19 1   
    16    6   10 1   
    17    6   19 1   
    18    7   20 1   
    19    7   34 1   
    20    7   38 1   
    21    8   12 1   
    22    8   20 1   
    23    8   35 1   
    24    8   39 1   
    25    9   22 1   
    26    9   47 1   
    27   10   22 1   
    28   10   33 1   
    29   10   37 1   
    30   11   21 1   
    31   11   23 1   
    32   12   21 1   
    33   13   25 1   
    34   13   40 1   
    35   14   16 1   
    36   14   25 1   
    37   14   41 1   
    38   15   24 1   
    39   15   25 1   
    40   15   42 1   
    41   15   43 1   
    42   17   18 1   
    43   17   24 1   
    44   18   46 1   
    45   19   48 1   
    46   20   46 1   
    47   21   23 1   
    48   21   44 1   
    49   22   24 1   
    50   22   36 1   
    51   24   45 1   
    52   46   49 1   
@<TRIPOS>SUBSTRUCTURE
     1 LFS         1 TEMP              0 ****  ****    0 ROOT
