@<TRIPOS>MOLECULE
LFS
   49    49     1     0     0
SMALL
bcc


@<TRIPOS>ATOM
      1 CAA        -1.1010   -1.0570   -0.6670 c3        1 LFS     -0.266000
      2 CAB         1.8120    0.3270    1.5820 c3        1 LFS     -0.285000
      3 OAC         4.3220   -4.5500   -0.8800 o         1 LFS     -0.326000
      4 CAE         7.1070   -9.6510    1.2060 c2        1 LFS     -0.159000
      5 CAF         3.9960   -8.8640   -4.2500 c1        1 LFS     -0.205000
      6 CAG         2.0060   -8.0870   -3.3030 c2        1 LFS     -0.149000
      7 CAH         2.2880   -2.3300   -4.1480 c3        1 LFS     -0.185000
      8 CAI         3.0570   -2.0090   -1.7620 c3        1 LFS     -0.185000
      9 CAJ         4.6420   -9.1120   -3.1280 c2        1 LFS     -0.086000
     10 CAK         2.6710   -7.9980   -2.1310 c2        1 LFS     -0.131000
     11 CAL         0.9480   -2.1690   -3.5860 c1        1 LFS     -0.050500
     12 CAM         1.7080   -1.5570   -1.4080 c1        1 LFS     -0.050500
     13 CAN         6.5320   -9.1840    0.0170 c2        1 LFS     -0.166000
     14 CAO         6.8950   -7.4840    1.4600 c2        1 LFS     -0.072000
     15 CAP         5.8910   -6.8590   -0.7240 c2        1 LFS     -0.008000
     16 NAQ         7.3220   -8.5870    2.0910 n2        1 LFS     -0.126000
     17 OAS         4.6820   -6.0200   -2.5790 os        1 LFS     -0.214000
     18 CAT         4.2390   -4.8030   -2.0830 c2        1 LFS      0.387000
     19 CAU         2.8350   -8.2470   -4.5210 c2        1 LFS      0.137000
     20 CAV         3.1660   -2.7940   -3.0350 c2        1 LFS      0.053000
     21 CAW         0.6350   -1.8560   -2.2920 c2        1 LFS     -0.309000
     22 CAX         4.1490   -8.2860   -1.9560 c3        1 LFS     -0.026000
     23 CAY        -0.7270   -1.7620   -1.8800 c1        1 LFS     -0.009000
     24 CAZ         4.9300   -7.0510   -1.6630 c2        1 LFS     -0.008000
     25 NBA         6.3890   -7.7920    0.1710 na        1 LFS     -0.137000
     26 HAA        -1.7060   -1.7560   -0.0320 hc        1 LFS      0.101333
     27 HAAA       -0.2620   -0.6400   -0.0510 hc        1 LFS      0.101333
     28 HAAB       -1.7770   -0.2140   -0.9750 hc        1 LFS      0.101333
     29 HAB         0.7560    0.5480    1.8500 hc        1 LFS      0.070250
     30 HABA        2.3610    1.2810    1.4270 hc        1 LFS      0.070250
     31 HABB        2.2900   -0.2440    2.4070 hc        1 LFS      0.070250
     32 HAE         7.3770  -10.6740    1.4750 h4        1 LFS      0.190000
     33 HAG         0.9250   -7.9340   -3.4080 ha        1 LFS      0.164000
     34 HAH         2.2790   -3.0220   -5.0330 hc        1 LFS      0.164000
     35 HAI         3.4600   -2.5660   -0.8660 hc        1 LFS      0.164000
     36 HAJ         4.2280   -8.9730   -1.0560 hc        1 LFS      0.146000
     37 HAK         2.1500   -7.7090   -1.2050 ha        1 LFS      0.153000
     38 HAL         2.6130   -1.3140   -4.5200 hc        1 LFS      0.164000
     39 HAM         3.6910   -1.0780   -1.8800 hc        1 LFS      0.164000
     40 HAN         6.2630   -9.7000   -0.9020 h4        1 LFS      0.182000
     41 HAO         6.9050   -6.4610    1.8530 h5        1 LFS      0.209000
     42 HAP         8.0690  -12.7140    2.3420 ha        1 LFS      0.001000
     43 HAPA        6.3230   -5.8430   -0.5900 h4        1 LFS      0.175000
     44 HAY         1.8360   -0.2770    0.6430 hc        1 LFS      0.070250
     45 HAZ         7.8200  -12.9130    1.7460 ha        1 LFS      0.001000
     46 NAR         3.8040   -3.9890   -3.1430 ns        1 LFS     -0.237000
     47 HAF         5.3610   -9.9170   -2.9510 ha        1 LFS      0.157000
     48 FAD         2.4460   -7.6920   -5.6750 f         1 LFS     -0.072000
     49 HNAR        3.8720   -4.4070   -4.0540 hn        1 LFS      0.267000
@<TRIPOS>BOND
     1    1   23 1   
     2    1   26 1   
     3    1   27 1   
     4    1   28 1   
     5    2   29 1   
     6    2   30 1   
     7    2   31 1   
     8    2   44 1   
     9    3   18 1   
    10    4   13 1   
    11    4   16 1   
    12    4   32 1   
    13    5    9 1   
    14    5   19 1   
    15    6   10 1   
    16    6   19 1   
    17    6   33 1   
    18    7   11 1   
    19    7   20 1   
    20    7   34 1   
    21    7   38 1   
    22    8   12 1   
    23    8   20 1   
    24    8   35 1   
    25    8   39 1   
    26    9   22 1   
    27    9   47 1   
    28   10   22 1   
    29   10   37 1   
    30   11   21 1   
    31   12   21 1   
    32   13   25 1   
    33   13   40 1   
    34   14   16 1   
    35   14   25 1   
    36   14   41 1   
    37   15   24 1   
    38   15   25 1   
    39   15   43 1   
    40   17   18 1   
    41   17   24 1   
    42   18   46 1   
    43   19   48 1   
    44   20   46 1   
    45   21   23 1   
    46   22   24 1   
    47   22   36 1   
    48   42   45 1   
    49   46   49 1   
@<TRIPOS>SUBSTRUCTURE
     1 LFS         1 TEMP              0 ****  ****    0 ROOT
