@<TRIPOS>MOLECULE
LFS
   50    49     1     0     0
SMALL
bcc


@<TRIPOS>ATOM
      1 CAA         1.5100    1.8670    0.2130 c3        1 LFS     -0.192000
      2 CAB         2.5240    2.0030   -2.0840 c3        1 LFS     -0.192000
      3 OAC         2.7000   -5.2040    0.0330 o         1 LFS     -0.430000
      4 CAE         5.0250   -5.2200    1.6930 c3        1 LFS     -0.161000
      5 CAF         4.7860  -11.4210   -3.3680 ca        1 LFS     -0.174500
      6 CAG         4.7110   -9.8500   -5.2390 ca        1 LFS     -0.174500
      7 CAH         2.2200   -2.3330   -2.1910 c1        1 LFS     -0.019000
      8 CAI         1.7380   -8.5880    0.8390 c1        1 LFS     -0.237000
      9 CAJ         4.6830  -10.3580   -2.4810 ca        1 LFS     -0.047500
     10 CAK         4.6010   -8.8000   -4.3370 ca        1 LFS     -0.047500
     11 CAL         2.5230   -0.9320   -2.2350 c3        1 LFS     -0.032000
     12 CAM         2.0430   -9.5430    1.4930 c1        1 LFS     -0.237000
     13 CAN         4.3630   -6.5000    1.1900 c2        1 LFS      0.140000
     14 CAO         6.2770   -6.0870    0.0500 c2        1 LFS     -0.018000
     15 CAP         4.8970   -8.1590   -0.6040 c3        1 LFS     -0.121000
     16 NAQ         6.2460   -5.0890    0.8880 n2        1 LFS     -0.070000
     17 OAS         4.0680   -6.7790   -2.4070 o         1 LFS     -0.298000
     18 CAT         1.9120   -5.6580   -0.7840 c1        1 LFS      0.053000
     19 CAU         4.8050  -11.1710   -4.7560 ca        1 LFS      0.159000
     20 CAV         1.9630   -3.5030   -2.1760 c1        1 LFS     -0.265000
     21 CAW         2.0130   -0.1910   -1.0510 c2        1 LFS     -0.205000
     22 CAX         4.5930   -9.0400   -2.9520 ca        1 LFS     -0.204000
     23 CAY         2.0190    1.1510   -0.9810 c2        1 LFS     -0.073000
     24 CAZ         4.4760   -7.8900   -2.0510 c2        1 LFS      0.288000
     25 NBA         5.1260   -6.9900    0.2100 n3        1 LFS     -0.118000
     26 HAA         1.1090    1.1630    0.9820 hc        1 LFS      0.089500
     27 HAAA        1.6270   -0.7990   -0.2200 ha        1 LFS      0.132000
     28 HAAB        0.6930    2.5710   -0.0850 hc        1 LFS      0.089500
     29 HAB         1.8280    1.9510   -2.9600 hc        1 LFS      0.089500
     30 HABA        2.3330    2.4670    0.6780 hc        1 LFS      0.089500
     31 HABB        2.6080    3.0710   -1.7660 hc        1 LFS      0.089500
     32 HAE         5.2650   -5.2530    2.7920 h1        1 LFS      0.219000
     33 HAH         2.0850   -0.4920   -3.1790 hc        1 LFS      0.121000
     34 HAI         1.4250   -7.7490    0.2550 ha        1 LFS      0.239000
     35 HAJ         4.6570  -10.5750   -1.4010 ha        1 LFS      0.147000
     36 HAK         4.5180   -7.7640   -4.7070 ha        1 LFS      0.147000
     37 HAL         3.6440   -0.8030   -2.3040 hc        1 LFS      0.121000
     38 HAM         2.2890  -10.3950    2.0800 ha        1 LFS      0.239000
     39 HAN         4.3300   -4.3430    1.4940 h1        1 LFS      0.219000
     40 HAO         7.0350   -6.3040   -0.7210 h5        1 LFS      0.246000
     41 HAP         3.4110   -6.9360    1.5470 h4        1 LFS      0.252000
     42 HAPA        5.8540   -8.7610   -0.6120 h1        1 LFS      0.160500
     43 HAY         3.5330    1.6560   -2.4220 hc        1 LFS      0.089500
     44 HAZ         4.0710   -8.7730   -0.1260 h1        1 LFS      0.160500
     45 HAF         4.8510  -12.4580   -3.0020 ha        1 LFS      0.172500
     46 FAD         4.9100  -12.1990   -5.6210 f         1 LFS     -0.073000
     47 NAR         1.6760   -4.8560   -2.1020 n4        1 LFS      0.004000
     48 HAG         4.7220   -9.6630   -6.3240 ha        1 LFS      0.172500
     49 HNAR        2.2230   -5.3450   -2.8240 hn        1 LFS      0.231000
     50 HAR2        0.6800   -4.9870   -2.3100 hn        1 LFS      0.231000
@<TRIPOS>BOND
     1    1   23 1   
     2    1   26 1   
     3    1   28 1   
     4    1   30 1   
     5    2   23 1   
     6    2   29 1   
     7    2   31 1   
     8    2   43 1   
     9    3   18 1   
    10    4   13 1   
    11    4   16 1   
    12    4   32 1   
    13    4   39 1   
    14    5    9 1   
    15    5   19 1   
    16    5   45 1   
    17    6   10 1   
    18    6   19 1   
    19    6   48 1   
    20    7   11 1   
    21    7   20 1   
    22    8   12 1   
    23    8   34 1   
    24    9   22 1   
    25    9   35 1   
    26   10   22 1   
    27   10   36 1   
    28   11   21 1   
    29   11   33 1   
    30   11   37 1   
    31   12   38 1   
    32   13   25 1   
    33   13   41 1   
    34   14   16 1   
    35   14   25 1   
    36   14   40 1   
    37   15   24 1   
    38   15   25 1   
    39   15   42 1   
    40   15   44 1   
    41   17   24 1   
    42   18   47 1   
    43   19   46 1   
    44   20   47 1   
    45   21   23 1   
    46   21   27 1   
    47   22   24 1   
    48   47   49 1   
    49   47   50 1   
@<TRIPOS>SUBSTRUCTURE
     1 LFS         1 TEMP              0 ****  ****    0 ROOT
