@<TRIPOS>MOLECULE
LFT
   49    48     1     0     0
SMALL
bcc


@<TRIPOS>ATOM
      1 CAA        -1.5520   -1.1520    0.1760 c3        1 LFT     -0.192000
      2 CAB         0.6140   -0.5570    1.2330 c2        1 LFT     -0.235000
      3 OAC         3.3560   -5.4460   -0.8630 o         1 LFT     -0.347000
      4 CAE         7.9790   -7.3640    1.7360 c3        1 LFT     -0.235000
      5 CAF         2.7450  -11.1330   -2.1630 c1        1 LFT      0.203000
      6 CAG         2.9870   -9.6040   -4.0820 c2        1 LFT     -0.073000
      7 CAH         4.5450   -2.2630   -3.5600 c2        1 LFT     -0.268000
      8 CAI         3.0870   -2.8100   -1.6030 c3        1 LFT     -0.155000
      9 CAJ         2.3110   -9.0760   -1.1240 c2        1 LFT     -0.166000
     10 CAK         3.1110   -8.4730   -3.3660 c2        1 LFT     -0.152000
     11 CAL         4.0820   -0.9290   -3.5840 c1        1 LFT     -0.077000
     12 CAM         2.6480   -1.4000   -1.6690 c2        1 LFT     -0.106000
     13 CAN         6.7100   -8.2060    1.5220 c1        1 LFT      0.007000
     14 CAO         7.1480   -6.8170   -0.2670 c2        1 LFT     -0.060000
     15 CAP         5.1080   -8.3340   -0.3070 c2        1 LFT      0.014000
     16 NAQ         8.1430   -6.5330    0.5260 n2        1 LFT     -0.153000
     17 OAS         4.8660   -6.6860   -2.0360 os        1 LFT     -0.238000
     18 CAT         4.1780   -5.4980   -1.7840 c2        1 LFT      0.392000
     19 CAU         2.9850  -10.9170   -3.4630 c2        1 LFT     -0.352000
     20 CAV         4.1000   -3.1930   -2.6410 c2        1 LFT      0.121000
     21 CAW         3.1220   -0.5380   -2.5950 c2        1 LFT     -0.195000
     22 CAX         3.2270   -8.4780   -1.9120 c2        1 LFT     -0.044000
     23 CAY        -0.3280   -0.3400    0.3180 c2        1 LFT     -0.162000
     24 CAZ         4.4100   -7.8190   -1.3510 c2        1 LFT      0.014000
     25 NBA         6.2500   -7.8230    0.3010 n3        1 LFT     -0.184000
     26 HAA        -1.6110   -1.5850   -0.8540 hc        1 LFT      0.082333
     27 HAAA       -1.5840   -1.9910    0.9140 hc        1 LFT      0.082333
     28 HAAB       -2.4560   -0.5110    0.3340 hc        1 LFT      0.082333
     29 HAB         1.5090    0.0740    1.3160 ha        1 LFT      0.112500
     30 HABA        0.5540   -1.3720    1.9670 ha        1 LFT      0.112500
     31 HABB        1.9040   -1.1070   -0.9050 ha        1 LFT      0.143000
     32 HAE         8.8730   -8.0270    1.8730 h1        1 LFT      0.158500
     33 HAG         2.8960   -9.5760   -5.1810 ha        1 LFT      0.153000
     34 HAH         5.2910   -2.5360   -4.3250 ha        1 LFT      0.143000
     35 HAI         2.1820   -3.4820   -1.6980 hc        1 LFT      0.155500
     36 HAJ         2.4130   -9.1170   -0.0300 ha        1 LFT      0.144500
     37 HAK         3.1690   -7.4870   -3.8560 ha        1 LFT      0.150000
     38 HAL         2.7800    0.5100   -2.6240 ha        1 LFT      0.147000
     39 HAM         3.5120   -3.0150   -0.5750 hc        1 LFT      0.155500
     40 HAN         7.8700   -6.7120    2.6430 h1        1 LFT      0.158500
     41 HAO         6.9570   -6.4010   -1.2680 h5        1 LFT      0.213000
     42 HAP         4.7610   -9.2850    0.1550 h4        1 LFT      0.191000
     43 HAPA        6.9590   -6.1520   -3.4940 ha        1 LFT      0.003000
     44 HAY        -0.2370    0.4930   -0.4010 ha        1 LFT      0.119000
     45 HAZ         6.5470   -6.6340   -3.7330 ha        1 LFT      0.003000
     46 NAR         4.5780   -4.5030   -2.6620 ns        1 LFT     -0.305000
     47 HAF         1.3600   -9.4740   -1.5180 ha        1 LFT      0.144500
     48 ClD         3.3270  -12.2510   -4.4690 cl        1 LFT      0.027000
     49 HNAR        5.2670   -4.7410   -3.3470 hn        1 LFT      0.265000
@<TRIPOS>BOND
     1    1   23 1   
     2    1   26 1   
     3    1   27 1   
     4    1   28 1   
     5    2   23 1   
     6    2   29 1   
     7    2   30 1   
     8    3   18 1   
     9    4   13 1   
    10    4   16 1   
    11    4   32 1   
    12    4   40 1   
    13    5   19 1   
    14    6   10 1   
    15    6   19 1   
    16    6   33 1   
    17    7   11 1   
    18    7   20 1   
    19    7   34 1   
    20    8   12 1   
    21    8   20 1   
    22    8   35 1   
    23    8   39 1   
    24    9   22 1   
    25    9   36 1   
    26    9   47 1   
    27   10   22 1   
    28   10   37 1   
    29   11   21 1   
    30   12   21 1   
    31   12   31 1   
    32   13   25 1   
    33   14   16 1   
    34   14   25 1   
    35   14   41 1   
    36   15   24 1   
    37   15   25 1   
    38   15   42 1   
    39   17   18 1   
    40   17   24 1   
    41   18   46 1   
    42   19   48 1   
    43   20   46 1   
    44   21   38 1   
    45   22   24 1   
    46   23   44 1   
    47   43   45 1   
    48   46   49 1   
@<TRIPOS>SUBSTRUCTURE
     1 LFT         1 TEMP              0 ****  ****    0 ROOT
