@<TRIPOS>MOLECULE
LFT
   50    49     1     0     0
SMALL
bcc


@<TRIPOS>ATOM
      1 CAA         1.9440    0.9270   -1.2800 c3        1 LFT     -0.068400
      2 CAB         3.4410    0.5370   -3.2620 c3        1 LFT     -0.068400
      3 OAC         1.5370   -8.0460   -1.8520 o         1 LFT     -0.506000
      4 CAE         4.2480   -7.3870    3.1650 cc        1 LFT     -0.113300
      5 CAF         5.7440   -9.3180   -4.2860 ca        1 LFT     -0.125500
      6 CAG         4.9970   -7.1970   -5.2060 ca        1 LFT     -0.125500
      7 CAH         1.9950   -3.5590   -3.2360 c1        1 LFT     -0.063100
      8 CAI         0.9800   -4.8880    4.4150 c1        1 LFT     -0.169000
      9 CAJ         5.2660   -8.9420   -3.0350 ca        1 LFT     -0.078500
     10 CAK         4.5140   -6.8270   -3.9560 ca        1 LFT     -0.078500
     11 CAL         2.4030   -2.2080   -3.4770 c3        1 LFT      0.035900
     12 CAM         1.8500   -4.0720    4.5160 c1        1 LFT     -0.169000
     13 CAN         4.8890   -7.9690    2.0650 cd        1 LFT     -0.126300
     14 CAO         3.5100   -6.3490    1.3040 cc        1 LFT     -0.020600
     15 CAP         4.8180   -7.6220   -0.3960 c2        1 LFT     -0.186100
     16 NAQ         3.3990   -6.3880    2.6730 na        1 LFT     -0.150100
     17 OAS         3.0690   -6.4410   -1.4690 os        1 LFT     -0.406200
     18 CAT         1.8890   -6.8920   -2.1080 c         1 LFT      0.755100
     19 CAU         5.6130   -8.4440   -5.3730 ca        1 LFT      0.055400
     20 CAV         1.6490   -4.6920   -3.0500 c1        1 LFT     -0.120800
     21 CAW         1.9600   -1.2610   -2.4200 c2        1 LFT     -0.206200
     22 CAX         4.6490   -7.6940   -2.8600 ca        1 LFT     -0.137800
     23 CAY         2.4250   -0.0050   -2.3280 c2        1 LFT     -0.089400
     24 CAZ         4.1660   -7.2890   -1.5450 ce        1 LFT      0.247900
     25 NBA         4.4160   -7.3090    0.9110 na        1 LFT      0.065700
     26 HAA         1.2240    0.4330   -0.5830 hc        1 LFT      0.048867
     27 HAAA        1.2000   -1.6360   -1.7180 ha        1 LFT      0.129000
     28 HAAB        1.4330    1.8020   -1.7550 hc        1 LFT      0.048867
     29 HAB         2.8090    1.3120   -0.6830 hc        1 LFT      0.048867
     30 HABA        4.4270    0.0330   -3.0970 hc        1 LFT      0.048867
     31 HABB        3.5800    1.6370   -3.1160 hc        1 LFT      0.048867
     32 HAE         4.3370   -7.6120    4.2330 h4        1 LFT      0.232000
     33 HAH         1.9820   -1.8750   -4.4730 hc        1 LFT      0.079700
     34 HAI         2.8040   -5.7980    3.2250 hn        1 LFT      0.365700
     35 HAJ         5.3600   -9.6390   -2.1860 ha        1 LFT      0.148500
     36 HAK         4.0260   -5.8470   -3.8210 ha        1 LFT      0.148500
     37 HAL         3.5290   -2.1760   -3.5740 hc        1 LFT      0.079700
     38 HAM         0.1830   -5.5900    4.3500 ha        1 LFT      0.176000
     39 HAN         5.6190   -8.7830    2.0120 h4        1 LFT      0.232000
     40 HAO         2.9670   -5.6680    0.6190 h5        1 LFT      0.273000
     41 HAP         6.2690  -10.1860    0.2420 ha        1 LFT      0.001500
     42 HAPA        5.7670   -8.1940   -0.4370 h4        1 LFT      0.203000
     43 HAY         3.1340    0.3590   -4.3230 hc        1 LFT      0.048867
     44 HAZ         6.4910  -10.6190   -0.2300 ha        1 LFT      0.001500
     45 HAF         6.2220  -10.3030   -4.4200 ha        1 LFT      0.167000
     46 CLD         6.1990   -8.8970   -6.8920 cl        1 LFT     -0.041400
     47 NAR         1.2340   -5.9620   -2.8810 n         1 LFT     -0.358700
     48 HAG         4.8930   -6.5100   -6.0620 ha        1 LFT      0.167000
     49 HNAR        0.3320   -6.2170   -3.2370 hn        1 LFT      0.377500
     50 HAR2        2.5980   -3.3250    4.6310 ha        1 LFT      0.176000
@<TRIPOS>BOND
     1    1   23 1   
     2    1   26 1   
     3    1   28 1   
     4    1   29 1   
     5    2   23 1   
     6    2   30 1   
     7    2   31 1   
     8    2   43 1   
     9    3   18 2   
    10    4   13 2   
    11    4   16 1   
    12    4   32 1   
    13    5    9 ar  
    14    5   19 ar  
    15    5   45 1   
    16    6   10 ar  
    17    6   19 ar  
    18    6   48 1   
    19    7   11 1   
    20    7   20 3   
    21    8   12 3   
    22    8   38 1   
    23    9   22 ar  
    24    9   35 1   
    25   10   22 ar  
    26   10   36 1   
    27   11   21 1   
    28   11   33 1   
    29   11   37 1   
    30   12   50 1   
    31   13   25 1   
    32   13   39 1   
    33   14   16 2   
    34   14   25 1   
    35   14   40 1   
    36   15   24 2   
    37   15   25 1   
    38   15   42 1   
    39   16   34 1   
    40   17   18 1   
    41   17   24 1   
    42   18   47 1   
    43   19   46 1   
    44   20   47 1   
    45   21   23 2   
    46   21   27 1   
    47   22   24 1   
    48   41   44 1   
    49   47   49 1   
@<TRIPOS>SUBSTRUCTURE
     1 LFT         1 TEMP              0 ****  ****    0 ROOT
