@<TRIPOS>MOLECULE
LFT
   49    48     1     0     0
SMALL
bcc


@<TRIPOS>ATOM
      1 CAA        -1.5590   -0.9460    0.0070 c3        1 LFT     -0.192000
      2 CAB         0.5790   -0.6250    1.2280 c2        1 LFT     -0.235000
      3 OAC         3.3460   -5.4650   -0.8590 o         1 LFT     -0.347000
      4 CAE         7.8890   -7.4660    1.8170 c3        1 LFT     -0.235000
      5 CAF         2.7040  -11.1280   -2.2430 c1        1 LFT      0.203000
      6 CAG         3.0030   -9.5780   -4.1370 c2        1 LFT     -0.073000
      7 CAH         4.6310   -2.2620   -3.4870 c2        1 LFT     -0.268000
      8 CAI         3.1230   -2.8160   -1.5710 c3        1 LFT     -0.155000
      9 CAJ         2.2680   -9.0800   -1.1870 c2        1 LFT     -0.166000
     10 CAK         3.1230   -8.4570   -3.4040 c2        1 LFT     -0.152000
     11 CAL         4.1840   -0.9220   -3.5040 c1        1 LFT     -0.077000
     12 CAM         2.7020   -1.4010   -1.6290 c2        1 LFT     -0.106000
     13 CAN         6.6170   -8.2910    1.5650 c1        1 LFT      0.007000
     14 CAO         7.1090   -6.8850   -0.1960 c2        1 LFT     -0.060000
     15 CAP         5.0540   -8.3790   -0.3000 c2        1 LFT      0.014000
     16 NAQ         8.0890   -6.6220    0.6210 n2        1 LFT     -0.153000
     17 OAS         4.8680   -6.7070   -2.0140 os        1 LFT     -0.238000
     18 CAT         4.1880   -5.5140   -1.7620 c2        1 LFT      0.392000
     19 CAU         2.9740  -10.8990   -3.5350 c2        1 LFT     -0.352000
     20 CAV         4.1550   -3.1980   -2.5900 c2        1 LFT      0.121000
     21 CAW         3.2060   -0.5320   -2.5320 c2        1 LFT     -0.195000
     22 CAX         3.2070   -8.4820   -1.9480 c2        1 LFT     -0.044000
     23 CAY        -0.2860   -0.2520    0.2870 c2        1 LFT     -0.162000
     24 CAZ         4.3850   -7.8440   -1.3530 c2        1 LFT      0.014000
     25 NBA         6.1880   -7.8880    0.3390 n3        1 LFT     -0.184000
     26 HAA        -1.5870   -1.2830   -1.0600 hc        1 LFT      0.082333
     27 HAAA       -1.7000   -1.8390    0.6630 hc        1 LFT      0.082333
     28 HAAB       -2.4180   -0.2480    0.1720 hc        1 LFT      0.082333
     29 HAB         1.5130   -0.0790    1.4160 ha        1 LFT      0.112500
     30 HABA        0.4110   -1.4920    1.8810 ha        1 LFT      0.112500
     31 HABB        1.9440   -1.1090   -0.8780 ha        1 LFT      0.144000
     32 HAE         8.7730   -8.1410    1.9640 h1        1 LFT      0.158500
     33 HAG         2.9360   -9.5350   -5.2370 ha        1 LFT      0.153000
     34 HAH         5.3920   -2.5340   -4.2390 ha        1 LFT      0.143000
     35 HAI         2.2130   -3.4760   -1.6960 hc        1 LFT      0.155500
     36 HAJ         2.3450   -9.1360   -0.0930 ha        1 LFT      0.144500
     37 HAK         3.2010   -7.4660   -3.8800 ha        1 LFT      0.150000
     38 HAL         2.8770    0.5190   -2.5550 ha        1 LFT      0.147000
     39 HAM         3.5220   -3.0400   -0.5360 hc        1 LFT      0.155500
     40 HAN         7.7690   -6.8240    2.7290 h1        1 LFT      0.158500
     41 HAO         6.9450   -6.4550   -1.1960 h5        1 LFT      0.213000
     42 HAP         4.6870   -9.3310    0.1420 h4        1 LFT      0.191000
     43 HAPA        6.9990   -6.1780   -3.4190 ha        1 LFT      0.003000
     44 HAY        -0.0870    0.6280   -0.3470 ha        1 LFT      0.120000
     45 HAZ         6.5880   -6.6530   -3.6730 ha        1 LFT      0.003000
     46 NAR         4.6190   -4.5130   -2.6180 n         1 LFT     -0.305000
     47 HAF         1.3220   -9.4620   -1.6070 ha        1 LFT      0.144500
     48 CLD         3.3240  -12.2230   -4.5500 cl        1 LFT      0.027000
     49 HNAR        5.3210   -4.7500   -3.2900 hn        1 LFT      0.265000
@<TRIPOS>BOND
     1    1   23 1   
     2    1   26 1   
     3    1   27 1   
     4    1   28 1   
     5    2   23 1   
     6    2   29 1   
     7    2   30 1   
     8    3   18 1   
     9    4   13 1   
    10    4   16 1   
    11    4   32 1   
    12    4   40 1   
    13    5   19 1   
    14    6   10 1   
    15    6   19 1   
    16    6   33 1   
    17    7   11 1   
    18    7   20 1   
    19    7   34 1   
    20    8   12 1   
    21    8   20 1   
    22    8   35 1   
    23    8   39 1   
    24    9   22 1   
    25    9   36 1   
    26    9   47 1   
    27   10   22 1   
    28   10   37 1   
    29   11   21 1   
    30   12   21 1   
    31   12   31 1   
    32   13   25 1   
    33   14   16 1   
    34   14   25 1   
    35   14   41 1   
    36   15   24 1   
    37   15   25 1   
    38   15   42 1   
    39   17   18 1   
    40   17   24 1   
    41   18   46 1   
    42   19   48 1   
    43   20   46 1   
    44   21   38 1   
    45   22   24 1   
    46   23   44 1   
    47   43   45 1   
    48   46   49 1   
@<TRIPOS>SUBSTRUCTURE
     1 LFT         1 TEMP              0 ****  ****    0 ROOT
