@<TRIPOS>MOLECULE
LFX
   45    42     1     0     0
SMALL
bcc


@<TRIPOS>ATOM
      1 C           0.3050    0.4240   -0.0870 c2        1 LFX      0.411000
      2 N          -7.1870   -1.8890   -9.8270 n2        1 LFX     -0.397000
      3 O          -0.0060    1.4930    0.5030 o         1 LFX     -0.555500
      4 C01        -5.1850   -0.1410   -7.0250 c3        1 LFX     -0.169000
      5 N01        -4.5240    0.9730   -6.3550 nh        1 LFX     -0.283000
      6 O01        -1.6680    0.8320   -6.2420 oh        1 LFX     -0.269000
      7 C02        -7.4450    2.7720   -5.6800 c1        1 LFX     -0.224000
      8 N02        -0.2510    0.1720   -3.9110 n4        1 LFX      0.133000
      9 C03         0.2730   -1.0800   -4.5060 c2        1 LFX     -0.022000
     10 O03         1.0950   -0.4520    0.3510 o         1 LFX     -0.555500
     11 C04        -3.8470    0.5990   -5.1560 ca        1 LFX     -0.141000
     12 C05        -1.7290    0.1910   -3.9600 ca        1 LFX     -0.141000
     13 C06        -2.4350    0.5470   -5.1350 ca        1 LFX      0.116000
     14 C07        -5.8430    0.1290   -8.2880 c1        1 LFX     -0.092000
     15 C08        -7.5380    3.7260   -6.3940 c1        1 LFX     -0.224000
     16 C09         0.5720   -1.1570   -5.8120 c2        1 LFX     -0.251000
     17 C10        -2.4420   -0.0610   -2.7750 ca        1 LFX     -0.049000
     18 C11        -4.5330    0.3100   -3.9430 ca        1 LFX      0.079000
     19 C12         0.3420    0.4000   -2.5860 c1        1 LFX     -0.224000
     20 C13        -3.8370   -0.0040   -2.7730 ca        1 LFX     -0.146000
     21 C14         0.4990   -2.2110   -3.5620 c3        1 LFX     -0.197000
     22 C15        -1.7100   -0.3360   -1.4760 c2        1 LFX      0.318000
     23 C17        -0.3440    0.1670   -1.4560 c2        1 LFX     -0.317000
     24 H01        -4.3960   -0.9280   -7.2640 h1        1 LFX      0.154000
     25 H01A       -5.9420   -0.6640   -6.3540 h1        1 LFX      0.154000
     26 H02        -7.3670    1.9330   -5.0270 ha        1 LFX      0.224500
     27 H02A       -5.1890    1.7020   -6.1500 hn        1 LFX      0.175000
     28 H03         0.9910   -2.0760   -6.2400 ha        1 LFX      0.126000
     29 H07        -5.8070    1.1420   -8.7130 ha        1 LFX      0.071000
     30 H07A       -8.0120    0.3350   -7.7470 ha        1 LFX      0.006000
     31 H08        -7.6180    4.5740   -7.0270 ha        1 LFX      0.224500
     32 H08A       -6.7110   -1.2160   -9.2660 hn        1 LFX      0.318000
     33 H09        -2.2290    1.2490   -6.9130 ho        1 LFX      0.242000
     34 H09A        0.4170   -0.3320   -6.5200 ha        1 LFX      0.126000
     35 H12         0.0810    0.9590   -4.4850 hn        1 LFX      0.239000
     36 H13        -4.3790   -0.2120   -1.8340 ha        1 LFX      0.182000
     37 H14         0.8560   -3.1100   -4.1190 hc        1 LFX      0.112000
     38 H14A        1.2630   -1.9190   -2.7900 hc        1 LFX      0.112000
     39 H14B       -0.4450   -2.4690   -3.0190 hc        1 LFX      0.112000
     40 H16        -7.9870   -0.6290   -4.7900 ha        1 LFX      0.006000
     41 H16A       -7.8180    0.8710   -7.3720 ha        1 LFX      0.006000
     42 H16B       -7.9710   -0.2660   -5.3620 ha        1 LFX      0.006000
     43 O02        -2.3210   -0.9450   -0.5910 o         1 LFX     -0.302000
     44 F          -5.8920    0.3510   -3.9280 f         1 LFX     -0.125000
     45 C16        -7.7460   -2.6820  -10.4940 c1        1 LFX      0.032000
@<TRIPOS>BOND
     1    1    3 1   
     2    1   10 1   
     3    1   23 1   
     4    2   32 1   
     5    2   45 1   
     6    4    5 1   
     7    4   14 1   
     8    4   24 1   
     9    4   25 1   
    10    5   11 1   
    11    5   27 1   
    12    6   13 1   
    13    6   33 1   
    14    7   15 1   
    15    7   26 1   
    16    8    9 1   
    17    8   12 1   
    18    8   19 1   
    19    8   35 1   
    20    9   16 1   
    21    9   21 1   
    22   11   13 1   
    23   11   18 1   
    24   12   13 1   
    25   12   17 1   
    26   14   29 1   
    27   15   31 1   
    28   16   28 1   
    29   16   34 1   
    30   17   20 1   
    31   17   22 1   
    32   18   20 1   
    33   18   44 1   
    34   19   23 1   
    35   20   36 1   
    36   21   37 1   
    37   21   38 1   
    38   21   39 1   
    39   22   23 1   
    40   22   43 1   
    41   30   41 1   
    42   40   42 1   
@<TRIPOS>SUBSTRUCTURE
     1 LFX         1 TEMP              0 ****  ****    0 ROOT
