@<TRIPOS>MOLECULE
LFX
   45    47     1     0     0
SMALL
bcc


@<TRIPOS>ATOM
      1 C           1.3250   -4.2510    2.5130 c1        1 LFX      0.848000
      2 F          -2.9880   -0.0450    1.2490 f         1 LFX     -0.158900
      3 N          -1.0440    4.5550    0.0180 n3        1 LFX     -0.721600
      4 O           2.4250   -4.8390    2.7380 o         1 LFX     -0.783000
      5 C01        -1.3890    2.3340   -0.9870 c3        1 LFX      0.142800
      6 N01        -0.3430    1.7940   -0.1780 nh        1 LFX     -0.605000
      7 O01         1.5010    0.0060   -1.2750 os        1 LFX     -0.303900
      8 C02        -0.1600    2.5220    1.0520 c3        1 LFX      0.142800
      9 N02         1.6790   -2.7440   -0.2200 nh        1 LFX     -0.530800
     10 O02        -1.2130   -3.8560    0.0380 o         1 LFX     -0.571300
     11 C03         2.2450   -2.3460   -1.3930 c3        1 LFX      0.201500
     12 O03         0.8040   -3.5120    3.4100 o         1 LFX     -0.783000
     13 C04        -0.6280    0.4060    0.1220 ca        1 LFX      0.075600
     14 C05         0.6620   -1.7050    0.4870 ca        1 LFX      0.144600
     15 C06         0.5260   -0.3590   -0.1240 ca        1 LFX      0.075100
     16 C07        -1.2290    3.8270   -1.2160 c3        1 LFX      0.160300
     17 C08        -0.0020    4.0130    0.8240 c3        1 LFX      0.160300
     18 C09         2.5460   -0.8770   -1.5310 c3        1 LFX      0.112400
     19 C10        -0.4420   -2.2810    1.1950 ca        1 LFX     -0.176600
     20 C11        -1.7090   -0.1500    0.9050 ca        1 LFX      0.039900
     21 C12         1.5170   -4.1960    0.1580 c2        1 LFX      0.005900
     22 C13        -1.6040   -1.5080    1.4420 ca        1 LFX     -0.098000
     23 C14         1.2430   -2.7640   -2.6000 c3        1 LFX     -0.117100
     24 C15        -0.6110   -3.6250    1.0400 ce        1 LFX      0.605900
     25 C16        -2.2940    4.5660    0.7800 c3        1 LFX      0.146100
     26 C17         0.6420   -4.4180    1.1860 c1        1 LFX     -0.161900
     27 H01        -1.3880    1.8630   -1.8810 h1        1 LFX      0.043700
     28 H01A       -2.2500    2.1710   -0.5420 h1        1 LFX      0.043700
     29 H02        -0.9430    2.3680    1.6350 h1        1 LFX      0.043700
     30 H02A        0.6430    2.1850    1.5020 h1        1 LFX      0.043700
     31 H03         3.0780   -2.8350   -1.5080 h1        1 LFX      0.065700
     32 H07        -2.0340    4.1670   -1.6700 h1        1 LFX      0.052950
     33 H07A       -0.4570    3.9770   -1.7890 h1        1 LFX      0.052950
     34 H08        -0.0040    4.4710    1.6990 h1        1 LFX      0.052950
     35 H08A        0.8510    4.1730    0.3860 h1        1 LFX      0.052950
     36 H09         2.8590   -0.7160   -2.4570 h1        1 LFX      0.058700
     37 H09A        3.2810   -0.6620   -0.9200 h1        1 LFX      0.058700
     38 H12         1.6810   -4.8950   -0.5060 h4        1 LFX      0.170000
     39 H13        -2.2170   -1.9590    2.0640 ha        1 LFX      0.171000
     40 H14         1.6580   -2.5540   -3.4540 hc        1 LFX      0.048700
     41 H14A        0.4270   -2.2800   -2.5170 hc        1 LFX      0.048700
     42 H14B        1.0620   -3.7150   -2.5560 hc        1 LFX      0.048700
     43 H16        -2.1550    5.0630    1.6350 h1        1 LFX      0.030367
     44 H16A       -2.9840    5.0010    0.2640 h1        1 LFX      0.030367
     45 H16B       -2.5690    3.6290    0.9820 h1        1 LFX      0.030367
@<TRIPOS>BOND
     1    1    4 2   
     2    1   12 2   
     3    2   20 1   
     4    3   16 1   
     5    3   17 1   
     6    3   25 1   
     7    5    6 1   
     8    5   16 1   
     9    5   27 1   
    10    5   28 1   
    11    6    8 1   
    12    6   13 1   
    13    7   15 1   
    14    7   18 1   
    15    8   17 1   
    16    8   29 1   
    17    8   30 1   
    18    9   11 1   
    19    9   14 1   
    20    9   21 1   
    21   10   24 1   
    22   11   18 1   
    23   11   23 1   
    24   11   31 1   
    25   13   15 ar  
    26   13   20 ar  
    27   14   15 ar  
    28   14   19 ar  
    29   16   32 1   
    30   16   33 1   
    31   17   34 1   
    32   17   35 1   
    33   18   36 1   
    34   18   37 1   
    35   19   22 ar  
    36   19   24 1   
    37   20   22 ar  
    38   21   26 2   
    39   21   38 1   
    40   22   39 1   
    41   23   40 1   
    42   23   41 1   
    43   23   42 1   
    44   24   26 2   
    45   25   43 1   
    46   25   44 1   
    47   25   45 1   
@<TRIPOS>SUBSTRUCTURE
     1 LFX         1 TEMP              0 ****  ****    0 ROOT
