@<TRIPOS>MOLECULE
LFX
   45    43     1     0     0
SMALL
bcc


@<TRIPOS>ATOM
      1 C          -1.8820    2.7010   -2.2040 c2        1 LFX      0.413000
      2 N          -4.6890    2.3310   -7.0270 n3        1 LFX     -0.190000
      3 O          -2.8410    3.5210   -2.3310 o         1 LFX     -0.566000
      4 C01        -5.2340   -3.7840   -6.8300 c3        1 LFX     -0.116000
      5 N01        -5.8190   -2.8170   -5.9390 nh        1 LFX     -0.254000
      6 O01        -3.4250   -1.4650   -6.7340 oh        1 LFX     -0.303000
      7 C02        -4.1790    5.3940   -5.9490 c1        1 LFX     -0.253000
      8 N02        -1.7870   -0.0770   -4.8750 n4        1 LFX      0.119000
      9 C03        -0.6100   -0.9720   -4.8110 c2        1 LFX     -0.034000
     10 O03        -0.8330    2.9280   -1.5520 o         1 LFX     -0.566000
     11 C04        -4.9650   -2.1900   -5.0040 ca        1 LFX     -0.010000
     12 C05        -3.0080   -0.7970   -4.4620 ca        1 LFX     -0.112000
     13 C06        -3.8060   -1.4800   -5.4030 ca        1 LFX      0.048000
     14 C07        -3.6090    1.6510   -6.6260 c1        1 LFX     -0.101500
     15 C08        -3.7210    4.8790   -4.9670 c1        1 LFX     -0.253000
     16 C09        -0.3890   -1.8910   -5.7640 c2        1 LFX     -0.251000
     17 C10        -3.4310   -0.6810   -3.1250 ca        1 LFX     -0.100000
     18 C11        -5.3010   -2.1460   -3.6160 ca        1 LFX      0.033000
     19 C12        -1.5740    1.1890   -4.1550 c1        1 LFX     -0.262000
     20 C13        -4.5640   -1.3730   -2.7080 ca        1 LFX     -0.110000
     21 C14         0.3160   -0.7580   -3.6640 c3        1 LFX     -0.193000
     22 C15        -2.7260    0.2740   -2.1940 c2        1 LFX      0.317000
     23 C17        -2.0350    1.3520   -2.9020 c2        1 LFX     -0.318000
     24 H01        -4.3830   -3.3170   -7.3930 h1        1 LFX      0.078667
     25 H01A       -4.8520   -4.7010   -6.3040 h1        1 LFX      0.078667
     26 H02        -4.5790    5.8720   -6.8030 ha        1 LFX      0.249500
     27 H02A       -6.6310   -3.1920   -5.4800 hn        1 LFX      0.178000
     28 H03         0.4980   -2.5340   -5.7310 ha        1 LFX      0.129500
     29 H07        -2.8970    2.2030   -5.9700 ha        1 LFX      0.081000
     30 H07A       -6.0250   -4.0970   -7.5620 h1        1 LFX      0.078667
     31 H08        -3.3130    4.4160   -4.0770 ha        1 LFX      0.249500
     32 H08A       -4.8460    3.2870   -6.7290 hn        1 LFX      0.224000
     33 H09        -3.6580   -0.5690   -7.0640 ho        1 LFX      0.254000
     34 H09A       -1.0700   -2.0590   -6.6110 ha        1 LFX      0.129500
     35 H12        -1.9110    0.2060   -5.8600 hn        1 LFX      0.251000
     36 H13        -4.8800   -1.3060   -1.6540 ha        1 LFX      0.174000
     37 H14         1.1360   -1.5160   -3.6870 hc        1 LFX      0.111000
     38 H14A        0.7550    0.2740   -3.7120 hc        1 LFX      0.111000
     39 H14B       -0.2330   -0.8400   -2.6910 hc        1 LFX      0.111000
     40 H16        -7.2720    0.7850   -6.4130 ha        1 LFX      0.006000
     41 H16A       -7.5130    1.4170   -6.4780 ha        1 LFX      0.006000
     42 H16B       -5.4720    0.7650   -8.1350 ha        1 LFX      0.081000
     43 O02        -2.7930    0.0800   -0.9760 o         1 LFX     -0.302000
     44 F          -6.3830   -2.8370   -3.1690 f         1 LFX     -0.119000
     45 C16        -5.6430    1.8280   -7.8400 c1        1 LFX     -0.101500
@<TRIPOS>BOND
     1    1    3 1   
     2    1   10 1   
     3    1   23 1   
     4    2   14 1   
     5    2   32 1   
     6    2   45 1   
     7    4    5 1   
     8    4   24 1   
     9    4   25 1   
    10    4   30 1   
    11    5   11 1   
    12    5   27 1   
    13    6   13 1   
    14    6   33 1   
    15    7   15 1   
    16    7   26 1   
    17    8    9 1   
    18    8   12 1   
    19    8   19 1   
    20    8   35 1   
    21    9   16 1   
    22    9   21 1   
    23   11   13 1   
    24   11   18 1   
    25   12   13 1   
    26   12   17 1   
    27   14   29 1   
    28   15   31 1   
    29   16   28 1   
    30   16   34 1   
    31   17   20 1   
    32   17   22 1   
    33   18   20 1   
    34   18   44 1   
    35   19   23 1   
    36   20   36 1   
    37   21   37 1   
    38   21   38 1   
    39   21   39 1   
    40   22   23 1   
    41   22   43 1   
    42   40   41 1   
    43   42   45 1   
@<TRIPOS>SUBSTRUCTURE
     1 LFX         1 TEMP              0 ****  ****    0 ROOT
