@<TRIPOS>MOLECULE
LFX
   45    48     1     0     0
SMALL
bcc


@<TRIPOS>ATOM
      1 C           5.2670   -0.6180    0.1270 c         1 LFX      0.930800
      2 N          -5.6840   -0.0300    0.0700 n3        1 LFX     -0.721600
      3 O           6.0080    0.1330   -0.5680 o         1 LFX     -0.814800
      4 C01        -3.4750    0.0020   -1.1720 c3        1 LFX      0.142800
      5 N01        -2.7540    0.2450    0.0710 nh        1 LFX     -0.605000
      6 O01        -0.7070    2.1140    0.0680 os        1 LFX     -0.303900
      7 C02        -3.4530   -0.2350    1.2560 c3        1 LFX      0.142800
      8 N02         2.0260    1.3450    0.1790 na        1 LFX     -0.530800
      9 C03         1.6740    2.7510    0.1450 c3        1 LFX      0.201500
     10 O03         5.6680   -1.5090    0.9170 o         1 LFX     -0.814800
     11 C04        -1.3870   -0.1820    0.0160 ca        1 LFX      0.075600
     12 C05         1.0240    0.3890    0.0450 ca        1 LFX      0.144600
     13 C06        -0.3540    0.7690    0.0650 ca        1 LFX      0.075100
     14 C07        -4.9490    0.4510   -1.0910 c3        1 LFX      0.160300
     15 C08        -4.9270    0.2210    1.2890 c3        1 LFX      0.160300
     16 C09         0.2520    2.9600    0.7020 c3        1 LFX      0.112400
     17 C10         1.3600   -0.9800   -0.0700 ca        1 LFX     -0.176600
     18 C11        -1.0030   -1.5560   -0.1000 ca        1 LFX      0.039900
     19 C12         3.3630    0.9460    0.1440 cc        1 LFX      0.069000
     20 C13         0.3400   -1.9320   -0.1410 ca        1 LFX     -0.098000
     21 C14         1.7780    3.3850   -1.2420 c3        1 LFX     -0.117100
     22 C15         2.7850   -1.4190   -0.1350 c         1 LFX      0.598900
     23 C17         3.7610   -0.3480    0.0420 cd        1 LFX     -0.263400
     24 H01        -2.9650    0.5980   -1.9790 h1        1 LFX      0.043700
     25 H01A       -3.4430   -1.0870   -1.4690 h1        1 LFX      0.043700
     26 H02        -3.4190   -1.3610    1.3370 h1        1 LFX      0.043700
     27 H02A       -2.9270    0.1930    2.1530 h1        1 LFX      0.043700
     28 H03         2.3960    3.2900    0.8310 h1        1 LFX      0.065700
     29 H07        -5.4670    0.1110   -2.0290 h1        1 LFX      0.052950
     30 H07A       -4.9870    1.5760   -1.0550 h1        1 LFX      0.052950
     31 H08        -4.9630    1.3320    1.4690 h1        1 LFX      0.052950
     32 H08A       -5.4290   -0.2940    2.1540 h1        1 LFX      0.052950
     33 H09        -0.1120    3.9950    0.4690 h1        1 LFX      0.058700
     34 H09A        0.2330    2.7800    1.8090 h1        1 LFX      0.058700
     35 H12         4.1050    1.7640    0.2170 h4        1 LFX      0.170000
     36 H13         0.6170   -2.9960   -0.2360 ha        1 LFX      0.171000
     37 H14         2.7830    3.1920   -1.6890 hc        1 LFX      0.048700
     38 H14A        0.9950    2.9700   -1.9210 hc        1 LFX      0.048700
     39 H14B        1.6280    4.4870   -1.1510 hc        1 LFX      0.048700
     40 H16        -5.2710   -2.1400   -0.1380 h1        1 LFX      0.030367
     41 H16A       -6.7390   -1.6730    0.8360 h1        1 LFX      0.030367
     42 H16B       -6.7560   -1.4970   -0.9760 h1        1 LFX      0.030367
     43 O02         3.0460   -2.6090   -0.3590 o         1 LFX     -0.545100
     44 F          -1.9580   -2.5220   -0.1710 f         1 LFX     -0.158900
     45 C16        -6.1180   -1.4050   -0.0590 c3        1 LFX      0.146100
@<TRIPOS>BOND
     1    1    3 1   
     2    1   10 1   
     3    1   23 1   
     4    2   14 1   
     5    2   15 1   
     6    2   45 1   
     7    4    5 1   
     8    4   14 1   
     9    4   24 1   
    10    4   25 1   
    11    5    7 1   
    12    5   11 1   
    13    6   13 1   
    14    6   16 1   
    15    7   15 1   
    16    7   26 1   
    17    7   27 1   
    18    8    9 1   
    19    8   12 1   
    20    8   19 1   
    21    9   16 1   
    22    9   21 1   
    23    9   28 1   
    24   11   13 ar  
    25   11   18 ar  
    26   12   13 ar  
    27   12   17 ar  
    28   14   29 1   
    29   14   30 1   
    30   15   31 1   
    31   15   32 1   
    32   16   33 1   
    33   16   34 1   
    34   17   20 ar  
    35   17   22 1   
    36   18   20 ar  
    37   18   44 1   
    38   19   23 2   
    39   19   35 1   
    40   20   36 1   
    41   21   37 1   
    42   21   38 1   
    43   21   39 1   
    44   22   23 1   
    45   22   43 2   
    46   40   45 1   
    47   41   45 1   
    48   42   45 1   
@<TRIPOS>SUBSTRUCTURE
     1 LFX         1 TEMP              0 ****  ****    0 ROOT
