@<TRIPOS>MOLECULE
LFX
   45    43     1     0     0
SMALL
bcc


@<TRIPOS>ATOM
      1 C           0.4020    1.8380   -0.7030 c2        1 LFX      0.411000
      2 N          -8.6060    3.1990   -8.2380 n2        1 LFX     -0.304000
      3 O           0.1080    3.0570   -0.5800 o         1 LFX     -0.556500
      4 C01        -4.6030   -1.3340   -7.1770 c3        1 LFX     -0.172000
      5 N01        -4.5900   -0.0110   -6.5610 nu        1 LFX     -0.288000
      6 O01        -1.7420   -0.1930   -6.4760 oh        1 LFX     -0.279000
      7 C02        -7.8060    1.6420   -6.5770 c2        1 LFX     -0.235000
      8 N02        -0.2590    0.0880   -4.0920 nx        1 LFX      0.132000
      9 C03         0.2270   -1.3120   -4.1390 c2        1 LFX     -0.023000
     10 O03         1.2020    1.2010    0.0310 o         1 LFX     -0.556500
     11 C04        -3.8820    0.0680   -5.3320 ca        1 LFX     -0.085000
     12 C05        -1.7370    0.1240   -4.1150 ca        1 LFX     -0.117000
     13 C06        -2.4680    0.0150   -5.3170 ca        1 LFX      0.065000
     14 C07        -5.0850   -1.4390   -8.5440 c1        1 LFX     -0.066000
     15 C08        -8.0270    2.8840   -7.0320 c2        1 LFX     -0.005000
     16 C09         0.4560   -1.9290   -5.3080 c2        1 LFX     -0.251000
     17 C10        -2.4200    0.3690   -2.9080 ca        1 LFX     -0.073000
     18 C11        -4.5380    0.2880   -4.0880 ca        1 LFX      0.056000
     19 C12         0.3720    0.8200   -2.9840 c1        1 LFX     -0.227000
     20 C13        -3.8110    0.4500   -2.9030 ca        1 LFX     -0.126000
     21 C14         0.4940   -1.9560   -2.8220 c3        1 LFX     -0.196000
     22 C15        -1.6530    0.6150   -1.6260 c2        1 LFX      0.320000
     23 C17        -0.2840    1.0650   -1.8390 c2        1 LFX     -0.317000
     24 H01        -3.5300   -1.7160   -7.2230 h1        1 LFX      0.147500
     25 H01A       -5.1740   -2.0940   -6.5550 h1        1 LFX      0.147500
     26 H02        -8.0670    0.7280   -7.1260 ha        1 LFX      0.136500
     27 H02A       -5.5270    0.3390   -6.4500 hn        1 LFX      0.175000
     28 H03         0.8460   -2.9540   -5.3350 ha        1 LFX      0.126500
     29 H07        -7.3170   -1.8480   -8.3450 ha        1 LFX      0.004750
     30 H07A       -5.3330   -0.5150   -9.0870 ha        1 LFX      0.050000
     31 H08        -7.3410    1.4860   -5.5920 ha        1 LFX      0.136500
     32 H08A       -7.7420    3.7800   -6.4390 h4        1 LFX      0.152000
     33 H09        -2.1630    0.3250   -7.1800 ho        1 LFX      0.233000
     34 H09A        0.2670   -1.4670   -6.2870 ha        1 LFX      0.126500
     35 H12         0.0680    0.5640   -4.9440 hn        1 LFX      0.237000
     36 H13        -4.3330    0.6390   -1.9500 ha        1 LFX      0.180000
     37 H14         0.8090   -3.0170   -2.9720 hc        1 LFX      0.112000
     38 H14A        1.3040   -1.3970   -2.2790 hc        1 LFX      0.112000
     39 H14B       -0.4200   -1.9340   -2.1760 hc        1 LFX      0.112000
     40 H16        -7.5250   -0.8690   -5.5160 ha        1 LFX      0.004750
     41 H16A       -7.3090   -1.3310   -7.9010 ha        1 LFX      0.004750
     42 H16B       -7.1500   -1.4330   -5.5450 ha        1 LFX      0.004750
     43 O02        -2.2400    0.4160   -0.5560 o         1 LFX     -0.305000
     44 F          -5.8960    0.3560   -4.0550 f         1 LFX     -0.124000
     45 C16        -9.1030    3.4880   -9.2720 c1        1 LFX      0.120000
@<TRIPOS>BOND
     1    1    3 1   
     2    1   10 1   
     3    1   23 1   
     4    2   15 1   
     5    2   45 1   
     6    4    5 1   
     7    4   14 1   
     8    4   24 1   
     9    4   25 1   
    10    5   11 1   
    11    5   27 1   
    12    6   13 1   
    13    6   33 1   
    14    7   15 1   
    15    7   26 1   
    16    7   31 1   
    17    8    9 1   
    18    8   12 1   
    19    8   19 1   
    20    8   35 1   
    21    9   16 1   
    22    9   21 1   
    23   11   13 1   
    24   11   18 1   
    25   12   13 1   
    26   12   17 1   
    27   14   30 1   
    28   15   32 1   
    29   16   28 1   
    30   16   34 1   
    31   17   20 1   
    32   17   22 1   
    33   18   20 1   
    34   18   44 1   
    35   19   23 1   
    36   20   36 1   
    37   21   37 1   
    38   21   38 1   
    39   21   39 1   
    40   22   23 1   
    41   22   43 1   
    42   29   41 1   
    43   40   42 1   
@<TRIPOS>SUBSTRUCTURE
     1 LFX         1 TEMP              0 ****  ****    0 ROOT
