@<TRIPOS>MOLECULE
LG
   36    38     1     0     0
SMALL
bcc


@<TRIPOS>ATOM
      1 OP3         3.9580    2.1090    0.6240 o         1 LG      -0.843500
      2 P           4.4150    2.8260   -0.5900 p5        1 LG       1.430800
      3 OP1         5.8090    3.0400   -1.0200 o         1 LG      -0.843500
      4 OP2         3.6280    4.2540   -0.4700 oh        1 LG      -0.785400
      5 O5'         3.5780    2.1730   -1.8540 os        1 LG      -0.581200
      6 C5'         2.2570    1.7900   -1.6200 c3        1 LG       0.185400
      7 C4'         2.1330    0.2600   -1.6930 c3        1 LG       0.087100
      8 O4'         0.9610   -0.1250   -2.4240 os        1 LG      -0.442600
      9 C3'         2.0410   -0.4100   -0.3120 c3        1 LG       0.067100
     10 O3'         2.6940   -1.6730   -0.3010 oh        1 LG      -0.608800
     11 C2'         0.5240   -0.6020   -0.0890 c3        1 LG       0.083100
     12 O2'         0.2030   -1.7820    0.6110 oh        1 LG      -0.589800
     13 C1'        -0.0700   -0.6320   -1.5370 c3        1 LG       0.237800
     14 N9         -1.3020    0.0770   -1.6840 nh        1 LG      -0.125600
     15 C8         -1.8280    1.0980   -0.8520 c1        1 LG       0.056400
     16 N7         -3.0450    1.5070   -1.3100 ne        1 LG      -0.614000
     17 C6         -4.4600    0.7600   -3.3360 c         1 LG       0.725700
     18 O6         -5.5020    1.4540   -3.2860 o         1 LG      -0.702500
     19 C5         -3.3200    0.7640   -2.4440 cc        1 LG      -0.025600
     20 N1         -4.3740   -0.1580   -4.4060 n         1 LG      -0.473400
     21 C2         -3.2670   -1.0160   -4.5800 cc        1 LG       0.476800
     22 N2         -3.3480   -1.9060   -5.7260 nh        1 LG      -0.853800
     23 N3         -2.1960   -1.0430   -3.7730 nd        1 LG      -0.585300
     24 C4         -2.2320   -0.1590   -2.7190 cd        1 LG       0.001500
     25 H5'         1.9110    2.1640   -0.6180 h1        1 LG       0.044200
     26 H5''        1.6130    2.2310   -2.4320 h1        1 LG       0.044200
     27 H4'         2.9970   -0.1490   -2.2870 h1        1 LG       0.069700
     28 H3'         2.5390    0.1900    0.5010 h1        1 LG       0.160700
     29 HO3'        2.5180   -2.0880   -1.1540 ho        1 LG       0.384000
     30 H2'         0.0790    0.2390    0.5140 h1        1 LG       0.145700
     31 HO2'        0.7970   -2.4780    0.3030 ho        1 LG       0.388000
     32 H1'        -0.2230   -1.7040   -1.8680 h2        1 LG       0.044700
     33 H8          2.9140    4.2150    0.1550 ho        1 LG       0.426000
     34 H1         -5.1330   -0.2090   -5.0440 hn        1 LG       0.308500
     35 H21        -3.0140   -2.8150   -5.4610 hn        1 LG       0.354300
     36 H22        -2.7490   -1.5470   -6.4470 hn        1 LG       0.354300
@<TRIPOS>BOND
     1    1    2 1   
     2    2    3 1   
     3    2    4 1   
     4    2    5 1   
     5    4   33 1   
     6    5    6 1   
     7    6    7 1   
     8    6   25 1   
     9    6   26 1   
    10    7    8 1   
    11    7    9 1   
    12    7   27 1   
    13    8   13 1   
    14    9   10 1   
    15    9   11 1   
    16    9   28 1   
    17   10   29 1   
    18   11   12 1   
    19   11   13 1   
    20   11   30 1   
    21   12   31 1   
    22   13   14 1   
    23   13   32 1   
    24   14   15 2   
    25   14   24 1   
    26   15   16 2   
    27   16   19 1   
    28   17   18 2   
    29   17   19 1   
    30   17   20 1   
    31   19   24 2   
    32   20   21 1   
    33   20   34 1   
    34   21   22 1   
    35   21   23 2   
    36   22   35 1   
    37   22   36 1   
    38   23   24 1   
@<TRIPOS>SUBSTRUCTURE
     1 LG          1 TEMP              0 ****  ****    0 ROOT
