@<TRIPOS>MOLECULE
LG
   36    35     1     0     0
SMALL
bcc


@<TRIPOS>ATOM
      1 OP3        -0.6630   -4.4490    3.4490 o         1 LG      -0.929500
      2 P          -0.1390   -4.1480    2.0370 p5        1 LG       1.564500
      3 OP1         1.3780   -4.2690    2.0220 o         1 LG      -0.929500
      4 OP2        -0.7270   -5.1240    1.0700 o         1 LG      -0.929500
      5 O5'        -0.5550   -2.6830    1.6190 os        1 LG      -0.714000
      6 C5'         0.2930   -1.6200    1.9570 c3        1 LG       0.078000
      7 C4'        -0.5510   -0.3950    2.3050 c3        1 LG      -0.058000
      8 O4'        -1.2540   -0.0030    1.2550 os        1 LG      -0.283000
      9 C3'         0.3460    0.7860    2.6490 c3        1 LG       0.055000
     10 O3'        -0.0780    1.3730    3.7460 oh        1 LG      -0.370000
     11 C2'         0.2370    1.7760    1.4190 c3        1 LG      -0.017000
     12 O2'        -0.5640    2.9530    1.7800 oh        1 LG      -0.281000
     13 C1'        -0.3510    1.1020    0.4990 c3        1 LG       0.120000
     14 N9          0.5950    0.4760   -0.3130 n3        1 LG      -0.139000
     15 C8          1.8550   -0.0180   -0.3410 c1        1 LG      -0.035000
     16 N7          2.2040   -0.2110   -1.6380 n2        1 LG      -0.104000
     17 C6          0.9610    0.1740   -3.9000 c1        1 LG       0.393000
     18 O6          1.8700   -0.2520   -4.6610 o         1 LG      -0.365000
     19 C5          1.1590    0.1630   -2.4130 c1        1 LG      -0.220000
     20 N1         -0.2370    0.6150   -4.4330 n3        1 LG      -0.339000
     21 C2         -1.2780    1.0640   -3.5720 c2        1 LG       0.154000
     22 N2         -2.4770    1.5830   -4.1230 n3        1 LG      -0.306000
     23 N3         -1.0880    1.0550   -2.1510 n1        1 LG      -0.202000
     24 C4          0.1610    0.5890   -1.5910 c1        1 LG      -0.001000
     25 H5'         0.8800   -1.4130    1.1930 h1        1 LG       0.034000
     26 H5''        0.8510   -1.8760    2.7450 h1        1 LG       0.034000
     27 H4'        -1.1350   -0.5930    3.0410 h1        1 LG       0.126000
     28 H3'         1.2770    0.4860    2.7620 h1        1 LG       0.159000
     29 HO3'        0.5500    1.3060    4.3780 ho        1 LG       0.293000
     30 H2'         1.1410    2.0490    1.1200 h1        1 LG       0.081000
     31 HO2'       -0.0580    3.7000    1.7010 ho        1 LG       0.167000
     32 H1'        -0.9510    1.7200   -0.0650 h2        1 LG       0.113000
     33 H8          2.4070   -0.1760    0.4120 DU        1 LG       0.255000
     34 H1         -0.3250    0.7080   -5.3430 hn        1 LG       0.236000
     35 H21        -2.5760    1.6490   -5.0620 hn        1 LG       0.179500
     36 H22        -3.1580    1.9010   -3.5540 hn        1 LG       0.179500
@<TRIPOS>BOND
     1    1    2 1   
     2    2    3 1   
     3    2    4 1   
     4    2    5 1   
     5    5    6 1   
     6    6    7 1   
     7    6   25 1   
     8    6   26 1   
     9    7    8 1   
    10    7    9 1   
    11    7   27 1   
    12    8   13 1   
    13    9   10 1   
    14    9   11 1   
    15    9   28 1   
    16   10   29 1   
    17   11   12 1   
    18   11   13 1   
    19   11   30 1   
    20   12   31 1   
    21   13   14 1   
    22   13   32 1   
    23   14   15 1   
    24   14   24 1   
    25   15   16 1   
    26   16   19 1   
    27   17   18 1   
    28   17   20 1   
    29   19   24 1   
    30   20   21 1   
    31   20   34 1   
    32   21   22 1   
    33   21   23 1   
    34   22   35 1   
    35   22   36 1   
@<TRIPOS>SUBSTRUCTURE
     1 LG          1 TEMP              0 ****  ****    0 ROOT
