@<TRIPOS>MOLECULE
LG0
   66    71     1     0     0
SMALL
bcc


@<TRIPOS>ATOM
      1 C13         2.1440    0.7270   -0.5180 cc        1 LG0     -0.171900
      2 C18        -3.6160   -0.1340   -2.3180 ca        1 LG0     -0.098500
      3 C17        -5.5610   -1.2400   -1.2120 cx        1 LG0     -0.069700
      4 C16        -4.1720   -0.7420   -1.1870 ca        1 LG0     -0.047300
      5 C15         5.6160   -5.0260    2.7810 c3        1 LG0      0.111700
      6 C19         1.1600    2.8680   -1.3830 c3        1 LG0     -0.028100
      7 C20         0.0510    1.9430   -1.9030 c3        1 LG0      0.099000
      8 C21        -6.0060   -2.0840   -2.3880 cx        1 LG0     -0.122900
      9 C22        -2.3110    0.3450   -2.3030 ca        1 LG0     -0.144500
     10 C23        -6.5830   -0.2620   -0.6600 c3        1 LG0      0.210800
     11 C12         2.2990    2.0740   -0.9190 cd        1 LG0     -0.155600
     12 C27        -7.0250    1.3250    1.1410 c3        1 LG0      0.163300
     13 C1          4.4680   -3.5680    1.2900 ca        1 LG0      0.143100
     14 C2          4.9730   -2.4300    1.9300 ca        1 LG0     -0.178500
     15 C3          4.6170   -1.1640    1.4710 ca        1 LG0     -0.060000
     16 C4          3.7540   -1.0330    0.3680 ca        1 LG0     -0.048200
     17 C5          3.2500   -2.1840   -0.2740 ca        1 LG0     -0.060000
     18 C6          3.6020   -3.4430    0.1860 ca        1 LG0     -0.178500
     19 N1          3.4130    0.2730   -0.1170 na        1 LG0      0.243300
     20 N6          4.3270    1.2340   -0.2430 nc        1 LG0     -0.435800
     21 N5         -0.2050    0.7600   -1.1020 n         1 LG0     -0.379000
     22 C7         -1.5260    0.2350   -1.1350 ca        1 LG0      0.050600
     23 C44        -2.0870   -0.3800    0.0030 ca        1 LG0     -0.144500
     24 C14        -3.3920   -0.8610   -0.0310 ca        1 LG0     -0.098500
     25 C8          0.8360    0.0400   -0.5070 c         1 LG0      0.748100
     26 C10         3.6920    2.3510   -0.7270 cd        1 LG0      0.206600
     27 O3          0.6620   -1.0710    0.0250 o         1 LG0     -0.613500
     28 F1          5.4960    3.5150   -1.8550 f         1 LG0     -0.230633
     29 F2          3.6620    4.6290   -1.5490 f         1 LG0     -0.230633
     30 F3          4.9710    4.2200    0.1310 f         1 LG0     -0.230633
     31 C9         -5.8060   -2.7230   -1.0490 cx        1 LG0     -0.122900
     32 N2         -6.3860    0.0690    0.7400 n3        1 LG0     -0.727600
     33 C25        -6.7770   -0.9770    1.6840 c3        1 LG0      0.163300
     34 C29        -7.6250   -0.3610    2.8080 c3        1 LG0     -0.092400
     35 C30        -7.7770    1.1140    2.4640 c3        1 LG0     -0.092400
     36 H18        -4.2180   -0.0390   -3.2350 ha        1 LG0      0.139000
     37 H15         5.1590   -4.5720    3.6940 h1        1 LG0      0.048033
     38 H15A        5.6940   -6.1380    2.8890 h1        1 LG0      0.048033
     39 H15B        6.6180   -4.5780    2.5780 h1        1 LG0      0.048033
     40 H19         1.4630    3.5640   -2.2100 hc        1 LG0      0.078700
     41 H19A        0.7740    3.4990   -0.5350 hc        1 LG0      0.078700
     42 H20        -0.9030    2.5420   -1.9600 h1        1 LG0      0.055700
     43 H20A        0.3240    1.6190   -2.9500 h1        1 LG0      0.055700
     44 H21        -7.0320   -1.9560   -2.7760 hc        1 LG0      0.073200
     45 H21A       -5.2800   -2.2880   -3.1950 hc        1 LG0      0.073200
     46 H22        -1.9020    0.8060   -3.2150 ha        1 LG0      0.143000
     47 H23        -6.4890    0.6900   -1.2590 h1        1 LG0      0.034700
     48 H23A       -7.6150   -0.6850   -0.8520 h1        1 LG0      0.034700
     49 H27        -6.2050    2.0820    1.2700 h1        1 LG0      0.040450
     50 H27A       -7.7320    1.7170    0.3580 h1        1 LG0      0.040450
     51 H2          5.6470   -2.5170    2.7930 ha        1 LG0      0.153000
     52 H3          5.0240   -0.2760    1.9810 ha        1 LG0      0.157000
     53 H5          2.5510   -2.0930   -1.1220 ha        1 LG0      0.157000
     54 H6          3.2090   -4.3490   -0.2990 ha        1 LG0      0.153000
     55 H44        -1.4880   -0.5030    0.9190 ha        1 LG0      0.143000
     56 H14        -3.8230   -1.3280    0.8680 ha        1 LG0      0.139000
     57 H9         -4.9380   -3.3880   -0.8950 hc        1 LG0      0.073200
     58 H9A        -6.6900   -3.0560   -0.4760 hc        1 LG0      0.073200
     59 H25        -7.3470   -1.8100    1.1860 h1        1 LG0      0.040450
     60 H25A       -5.8300   -1.4160    2.1030 h1        1 LG0      0.040450
     61 H29        -8.6200   -0.8650    2.8680 hc        1 LG0      0.046950
     62 H29A       -7.1170   -0.4920    3.7950 hc        1 LG0      0.046950
     63 H30        -7.3400    1.7600    3.2650 hc        1 LG0      0.046950
     64 H30A       -8.8530    1.3930    2.3510 hc        1 LG0      0.046950
     65 C11         4.4360    3.6410   -0.9920 c3        1 LG0      0.635600
     66 O1          4.7570   -4.8650    1.6570 os        1 LG0     -0.320900
@<TRIPOS>BOND
     1    1   11 2   
     2    1   19 1   
     3    1   25 1   
     4    2    4 ar  
     5    2    9 ar  
     6    2   36 1   
     7    3    4 1   
     8    3    8 1   
     9    3   10 1   
    10    3   31 1   
    11    4   24 ar  
    12    5   37 1   
    13    5   38 1   
    14    5   39 1   
    15    5   66 1   
    16    6    7 1   
    17    6   11 1   
    18    6   40 1   
    19    6   41 1   
    20    7   21 1   
    21    7   42 1   
    22    7   43 1   
    23    8   31 1   
    24    8   44 1   
    25    8   45 1   
    26    9   22 ar  
    27    9   46 1   
    28   10   32 1   
    29   10   47 1   
    30   10   48 1   
    31   11   26 1   
    32   12   32 1   
    33   12   35 1   
    34   12   49 1   
    35   12   50 1   
    36   13   14 ar  
    37   13   18 ar  
    38   13   66 1   
    39   14   15 ar  
    40   14   51 1   
    41   15   16 ar  
    42   15   52 1   
    43   16   17 ar  
    44   16   19 1   
    45   17   18 ar  
    46   17   53 1   
    47   18   54 1   
    48   19   20 1   
    49   20   26 2   
    50   21   22 1   
    51   21   25 1   
    52   22   23 ar  
    53   23   24 ar  
    54   23   55 1   
    55   24   56 1   
    56   25   27 2   
    57   26   65 1   
    58   28   65 1   
    59   29   65 1   
    60   30   65 1   
    61   31   57 1   
    62   31   58 1   
    63   32   33 1   
    64   33   34 1   
    65   33   59 1   
    66   33   60 1   
    67   34   35 1   
    68   34   61 1   
    69   34   62 1   
    70   35   63 1   
    71   35   64 1   
@<TRIPOS>SUBSTRUCTURE
     1 LG0         1 TEMP              0 ****  ****    0 ROOT
