@<TRIPOS>MOLECULE
LG1
   43    47     1     0     0
SMALL
bcc


@<TRIPOS>ATOM
      1 C05        -0.0080    0.1460   -0.0280 ca        1 LG1     -0.070000
      2 C06         1.3640    0.0720   -0.0500 ca        1 LG1     -0.155000
      3 C01         2.1160   -0.0410    1.1590 ca        1 LG1      0.098700
      4 N14         3.5070   -0.0220    1.1330 na        1 LG1     -0.100100
      5 C13         4.2150    0.2170    2.3090 ca        1 LG1      0.120700
      6 C18         5.5790    0.5920    2.2850 ca        1 LG1     -0.196000
      7 C17         6.2900    0.7530    3.4690 ca        1 LG1      0.043700
      8 C16         5.6620    0.5400    4.7090 ca        1 LG1     -0.160000
      9 C15         4.3180    0.2000    4.7760 ca        1 LG1      0.058000
     10 C19         3.6280   -0.0320    6.0320 ca        1 LG1     -0.028000
     11 C20         4.2400    0.2420    7.2640 ca        1 LG1     -0.133000
     12 C21         3.5720   -0.0190    8.4650 ca        1 LG1      0.153900
     13 F30         4.1730    0.2440    9.6450 f         1 LG1     -0.106900
     14 C22         2.2650   -0.5560    8.4460 ca        1 LG1     -0.116000
     15 C23         1.6440   -0.8150    7.2400 ca        1 LG1     -0.116000
     16 C24         2.3070   -0.5550    6.0140 ca        1 LG1     -0.009300
     17 NP5         1.6430   -0.7840    4.7820 na        1 LG1     -0.050100
     18 C11         2.1770   -0.3110    3.6210 ca        1 LG1      0.213700
     19 C02         1.4140   -0.1470    2.3960 ca        1 LG1     -0.137000
     20 C03         0.0090   -0.0000    2.4030 ca        1 LG1     -0.123000
     21 C04        -0.6990    0.1340    1.2130 ca        1 LG1      0.119900
     22 F08        -2.0430    0.2680    1.2300 f         1 LG1     -0.108900
     23 C12         3.5660    0.0530    3.5730 ca        1 LG1     -0.148000
     24 C34         0.4590   -1.6210    4.8040 c3        1 LG1     -0.013400
     25 C27         7.7170    1.1510    3.4400 c3        1 LG1     -0.082800
     26 C33         4.2170   -0.2080   -0.1130 c3        1 LG1     -0.000400
     27 H09        -0.5860    0.2400   -0.9630 ha        1 LG1      0.182000
     28 H10         1.8800    0.1330   -1.0220 ha        1 LG1      0.168000
     29 H26         6.0910    0.7790    1.3270 ha        1 LG1      0.164000
     30 H28         6.2690    0.6470    5.6220 ha        1 LG1      0.163000
     31 H29         5.2530    0.6740    7.3070 ha        1 LG1      0.171000
     32 H31         1.7470   -0.7560    9.3990 ha        1 LG1      0.179000
     33 H32         0.6160   -1.2130    7.2580 ha        1 LG1      0.160000
     34 H07        -0.5500    0.0620    3.3500 ha        1 LG1      0.165000
     35 H35         0.6490   -2.5010    5.4790 h1        1 LG1      0.084033
     36 H36         0.2360   -2.0120    3.7760 h1        1 LG1      0.084033
     37 H37        -0.4220   -1.0410    5.1930 h1        1 LG1      0.084033
     38 H38         8.3400    0.3830    3.9660 hc        1 LG1      0.072033
     39 H39         8.0960    1.2590    2.3940 hc        1 LG1      0.072033
     40 H40         7.8510    2.1300    3.9680 hc        1 LG1      0.072033
     41 H41         3.6480   -0.9170   -0.7730 h1        1 LG1      0.075367
     42 H42         5.2250   -0.6620    0.0860 h1        1 LG1      0.075367
     43 H43         4.3450    0.7770   -0.6370 h1        1 LG1      0.075367
@<TRIPOS>BOND
     1    1    2 ar  
     2    1   21 ar  
     3    1   27 1   
     4    2    3 ar  
     5    2   28 1   
     6    3    4 1   
     7    3   19 ar  
     8    4    5 2   
     9    4   26 1   
    10    5    6 ar  
    11    5   23 ar  
    12    6    7 ar  
    13    6   29 1   
    14    7    8 ar  
    15    7   25 1   
    16    8    9 ar  
    17    8   30 1   
    18    9   10 ar  
    19    9   23 ar  
    20   10   11 ar  
    21   10   16 ar  
    22   11   12 ar  
    23   11   31 1   
    24   12   13 1   
    25   12   14 ar  
    26   14   15 ar  
    27   14   32 1   
    28   15   16 ar  
    29   15   33 1   
    30   16   17 1   
    31   17   18 1   
    32   17   24 1   
    33   18   19 ar  
    34   18   23 ar  
    35   19   20 ar  
    36   20   21 ar  
    37   20   34 1   
    38   21   22 1   
    39   24   35 1   
    40   24   36 1   
    41   24   37 1   
    42   25   38 1   
    43   25   39 1   
    44   25   40 1   
    45   26   41 1   
    46   26   42 1   
    47   26   43 1   
@<TRIPOS>SUBSTRUCTURE
     1 LG1         1 TEMP              0 ****  ****    0 ROOT
