@<TRIPOS>MOLECULE
LG1
   43    47     1     0     0
SMALL
bcc


@<TRIPOS>ATOM
      1 C05        -0.0070    0.1420   -0.0290 ca        1 LG1     -0.070000
      2 C06         1.3650    0.0680   -0.0500 ca        1 LG1     -0.155000
      3 C01         2.1170   -0.0440    1.1590 ca        1 LG1      0.098700
      4 N14         3.5080   -0.0240    1.1340 na        1 LG1     -0.100100
      5 C13         4.2150    0.2160    2.3090 ca        1 LG1      0.120700
      6 C18         5.5790    0.5910    2.2850 ca        1 LG1     -0.196000
      7 C17         6.2900    0.7540    3.4690 ca        1 LG1      0.043700
      8 C16         5.6620    0.5420    4.7090 ca        1 LG1     -0.160000
      9 C15         4.3180    0.2010    4.7760 ca        1 LG1      0.058000
     10 C19         3.6270   -0.0300    6.0320 ca        1 LG1     -0.028000
     11 C20         4.2390    0.2450    7.2640 ca        1 LG1     -0.133000
     12 C21         3.5710   -0.0160    8.4650 ca        1 LG1      0.153900
     13 F30         4.1710    0.2480    9.6450 f         1 LG1     -0.106900
     14 C22         2.2630   -0.5530    8.4470 ca        1 LG1     -0.116000
     15 C23         1.6430   -0.8130    7.2400 ca        1 LG1     -0.116000
     16 C24         2.3060   -0.5530    6.0140 ca        1 LG1     -0.009300
     17 NP5         1.6420   -0.7830    4.7820 na        1 LG1     -0.050100
     18 C11         2.1770   -0.3120    3.6200 ca        1 LG1      0.213700
     19 C02         1.4140   -0.1480    2.3950 ca        1 LG1     -0.137000
     20 C03         0.0100   -0.0020    2.4010 ca        1 LG1     -0.123000
     21 C04        -0.6980    0.1320    1.2120 ca        1 LG1      0.119900
     22 F08        -2.0430    0.2650    1.2280 f         1 LG1     -0.108900
     23 C12         3.5660    0.0530    3.5730 ca        1 LG1     -0.148000
     24 C34         0.4590   -1.6200    4.8050 c3        1 LG1     -0.013400
     25 C27         7.7160    1.1520    3.4410 c3        1 LG1     -0.082800
     26 C33         4.2180   -0.2110   -0.1120 c3        1 LG1     -0.000400
     27 H09        -0.5850    0.2360   -0.9650 ha        1 LG1      0.182000
     28 H10         1.8820    0.1290   -1.0230 ha        1 LG1      0.168000
     29 H26         6.0920    0.7780    1.3270 ha        1 LG1      0.164000
     30 H28         6.2680    0.6490    5.6230 ha        1 LG1      0.163000
     31 H29         5.2510    0.6760    7.3070 ha        1 LG1      0.171000
     32 H31         1.7450   -0.7530    9.3990 ha        1 LG1      0.179000
     33 H32         0.6150   -1.2100    7.2580 ha        1 LG1      0.160000
     34 H07        -0.5500    0.0610    3.3480 ha        1 LG1      0.165000
     35 H35         0.6490   -2.5000    5.4800 h1        1 LG1      0.084033
     36 H36         0.2360   -2.0130    3.7760 h1        1 LG1      0.084033
     37 H37        -0.4220   -1.0400    5.1930 h1        1 LG1      0.084033
     38 H38         8.3390    0.3890    3.9730 hc        1 LG1      0.072033
     39 H39         8.0980    1.2540    2.3950 hc        1 LG1      0.072033
     40 H40         7.8490    2.1350    3.9630 hc        1 LG1      0.072033
     41 H41         3.6500   -0.9210   -0.7720 h1        1 LG1      0.075367
     42 H42         5.2260   -0.6650    0.0870 h1        1 LG1      0.075367
     43 H43         4.3460    0.7740   -0.6380 h1        1 LG1      0.075367
@<TRIPOS>BOND
     1    1    2 ar  
     2    1   21 ar  
     3    1   27 1   
     4    2    3 ar  
     5    2   28 1   
     6    3    4 1   
     7    3   19 ar  
     8    4    5 2   
     9    4   26 1   
    10    5    6 ar  
    11    5   23 ar  
    12    6    7 ar  
    13    6   29 1   
    14    7    8 ar  
    15    7   25 1   
    16    8    9 ar  
    17    8   30 1   
    18    9   10 ar  
    19    9   23 ar  
    20   10   11 ar  
    21   10   16 ar  
    22   11   12 ar  
    23   11   31 1   
    24   12   13 1   
    25   12   14 ar  
    26   14   15 ar  
    27   14   32 1   
    28   15   16 ar  
    29   15   33 1   
    30   16   17 1   
    31   17   18 1   
    32   17   24 1   
    33   18   19 ar  
    34   18   23 ar  
    35   19   20 ar  
    36   20   21 ar  
    37   20   34 1   
    38   21   22 1   
    39   24   35 1   
    40   24   36 1   
    41   24   37 1   
    42   25   38 1   
    43   25   39 1   
    44   25   40 1   
    45   26   41 1   
    46   26   42 1   
    47   26   43 1   
@<TRIPOS>SUBSTRUCTURE
     1 LG1         1 TEMP              0 ****  ****    0 ROOT
