@<TRIPOS>MOLECULE
LG1
   43    47     1     0     0
SMALL
bcc


@<TRIPOS>ATOM
      1 C05         4.7520   -0.6460   -0.2860 ca        1 LG1     -0.070000
      2 C06         4.1440    0.5520    0.0030 ca        1 LG1     -0.155000
      3 C01         2.7250    0.6470    0.1330 ca        1 LG1      0.098700
      4 N14         2.1120    1.8800    0.3330 na        1 LG1     -0.100100
      5 C13         0.7430    2.0120    0.1120 ca        1 LG1      0.120700
      6 C18         0.1410    3.2840   -0.0420 ca        1 LG1     -0.196000
      7 C17        -1.2360    3.4020   -0.1860 ca        1 LG1      0.043700
      8 C16        -2.0530    2.2570   -0.1750 ca        1 LG1     -0.160000
      9 C15        -1.4980    0.9900   -0.0550 ca        1 LG1      0.058000
     10 C19        -2.2990   -0.2210   -0.0370 ca        1 LG1     -0.028000
     11 C20        -3.6750   -0.1910   -0.3110 ca        1 LG1     -0.133000
     12 C21        -4.4380   -1.3620   -0.2550 ca        1 LG1      0.153900
     13 F30        -5.7620   -1.3200   -0.5160 f         1 LG1     -0.106900
     14 C22        -3.8240   -2.5930    0.0710 ca        1 LG1     -0.116000
     15 C23        -2.4680   -2.6390    0.3270 ca        1 LG1     -0.116000
     16 C24        -1.6800   -1.4610    0.2740 ca        1 LG1     -0.009300
     17 NP5        -0.2810   -1.5280    0.4960 na        1 LG1     -0.050100
     18 C11         0.5080   -0.4550    0.2080 ca        1 LG1      0.213700
     19 C02         1.9460   -0.5430    0.0270 ca        1 LG1     -0.137000
     20 C03         2.5830   -1.7500   -0.3370 ca        1 LG1     -0.123000
     21 C04         3.9640   -1.8120   -0.4830 ca        1 LG1      0.119900
     22 F08         4.5640   -2.9730   -0.8260 f         1 LG1     -0.108900
     23 C12        -0.0840    0.8470    0.0700 ca        1 LG1     -0.148000
     24 C34         0.2390   -2.7220    1.1330 c3        1 LG1     -0.013400
     25 C27        -1.8630    4.7340   -0.3540 c3        1 LG1     -0.082800
     26 C33         2.8960    3.0290    0.7280 c3        1 LG1     -0.000400
     27 H09         5.8490   -0.7150   -0.3930 ha        1 LG1      0.182000
     28 H10         4.7730    1.4520    0.1020 ha        1 LG1      0.168000
     29 H26         0.7590    4.1960   -0.0680 ha        1 LG1      0.164000
     30 H28        -3.1420    2.3950   -0.2600 ha        1 LG1      0.163000
     31 H29        -4.1760    0.7520   -0.5810 ha        1 LG1      0.171000
     32 H31        -4.4350   -3.5100    0.1100 ha        1 LG1      0.179000
     33 H32        -2.0140   -3.6170    0.5570 ha        1 LG1      0.160000
     34 H07         1.9960   -2.6550   -0.5620 ha        1 LG1      0.165000
     35 H35         0.2970   -3.5660    0.3930 h1        1 LG1      0.084033
     36 H36         1.2560   -2.5230    1.5670 h1        1 LG1      0.084033
     37 H37        -0.4480   -3.0140    1.9750 h1        1 LG1      0.084033
     38 H38        -2.3890    4.7870   -1.3410 hc        1 LG1      0.072033
     39 H39        -2.6200    4.9070    0.4540 hc        1 LG1      0.072033
     40 H40        -1.1070    5.5560   -0.3120 hc        1 LG1      0.072033
     41 H41         3.3050    3.5510   -0.1790 h1        1 LG1      0.075367
     42 H42         2.2570    3.7430    1.3160 h1        1 LG1      0.075367
     43 H43         3.7420    2.7040    1.3910 h1        1 LG1      0.075367
@<TRIPOS>BOND
     1    1    2 ar  
     2    1   21 ar  
     3    1   27 1   
     4    2    3 ar  
     5    2   28 1   
     6    3    4 1   
     7    3   19 ar  
     8    4    5 2   
     9    4   26 1   
    10    5    6 ar  
    11    5   23 ar  
    12    6    7 ar  
    13    6   29 1   
    14    7    8 ar  
    15    7   25 1   
    16    8    9 ar  
    17    8   30 1   
    18    9   10 ar  
    19    9   23 ar  
    20   10   11 ar  
    21   10   16 ar  
    22   11   12 ar  
    23   11   31 1   
    24   12   13 1   
    25   12   14 ar  
    26   14   15 ar  
    27   14   32 1   
    28   15   16 ar  
    29   15   33 1   
    30   16   17 1   
    31   17   18 1   
    32   17   24 1   
    33   18   19 ar  
    34   18   23 ar  
    35   19   20 ar  
    36   20   21 ar  
    37   20   34 1   
    38   21   22 1   
    39   24   35 1   
    40   24   36 1   
    41   24   37 1   
    42   25   38 1   
    43   25   39 1   
    44   25   40 1   
    45   26   41 1   
    46   26   42 1   
    47   26   43 1   
@<TRIPOS>SUBSTRUCTURE
     1 LG1         1 TEMP              0 ****  ****    0 ROOT
