@<TRIPOS>MOLECULE
LG1
   43    37     1     0     0
SMALL
bcc


@<TRIPOS>ATOM
      1 C05        -3.0040    0.1750   -3.8040 c1        1 LG1     -0.070000
      2 C06        -1.6150    0.1750   -3.8040 c1        1 LG1     -0.139000
      3 C01        -0.9130    0.1750   -2.5880 c1        1 LG1     -0.007000
      4 N14         0.5240    0.1750   -2.5880 n2        1 LG1     -0.168000
      5 C13         1.2390    0.1750   -1.3480 c2        1 LG1      0.145000
      6 C18         2.6440    0.1750   -1.3490 c1        1 LG1     -0.196000
      7 C17         3.3440    0.1750   -0.1400 c1        1 LG1      0.051000
      8 C16         2.6450    0.1750    1.0750 c1        1 LG1     -0.160000
      9 C15         1.2290    0.1750    1.0770 c1        1 LG1      0.058000
     10 C19         0.5250    0.1750    2.3000 c1        1 LG1     -0.028000
     11 C20         1.2270    0.1750    3.5180 c1        1 LG1     -0.133000
     12 C21         0.5300    0.1750    4.7230 c1        1 LG1      0.119000
     13 F30         1.1020    0.1960    5.9330 f         1 LG1     -0.072000
     14 C22        -0.8670    0.1750    4.7220 c2        1 LG1     -0.116000
     15 C23        -1.5630    0.1750    3.5180 c1        1 LG1     -0.116000
     16 C24        -0.8600    0.1750    2.2990 c1        1 LG1      0.015000
     17 NP5        -1.5610    0.1750    1.0850 n2        1 LG1     -0.118000
     18 C11        -0.8680    0.1750   -0.1210 c1        1 LG1      0.238000
     19 C02        -1.6040    0.1750   -1.3910 c1        1 LG1     -0.007000
     20 C03        -3.0080    0.1750   -1.3930 c1        1 LG1     -0.139000
     21 C04        -3.7020    0.1750   -2.5970 c1        1 LG1      0.085000
     22 F08        -5.0210    0.0320   -2.7780 f         1 LG1     -0.074000
     23 C12         0.5310    0.1750   -0.1250 c2        1 LG1     -0.148000
     24 C34        -2.8100   -0.4450    1.3750 c3        1 LG1     -0.112000
     25 C27         4.8480    0.3360   -0.1560 c3        1 LG1     -0.208000
     26 C33         0.9990   -0.9500   -3.3170 c3        1 LG1     -0.099000
     27 H09        -3.4920    0.1750   -4.6500 ha        1 LG1      0.182000
     28 H10        -1.1270    0.1760   -4.6500 ha        1 LG1      0.166500
     29 H26         3.1310    0.1760   -2.1950 ha        1 LG1      0.164000
     30 H28         3.1340    0.1750    1.9200 ha        1 LG1      0.163000
     31 H29         2.2030    0.1890    3.5190 ha        1 LG1      0.171000
     32 H31        -1.3550    0.1750    5.5680 ha        1 LG1      0.179000
     33 H32        -2.5390    0.1760    3.5180 ha        1 LG1      0.160000
     34 H07        -3.4970    0.1760   -0.5480 ha        1 LG1      0.166500
     35 H35        -3.0580   -1.0360    0.6390 h1        1 LG1      0.123333
     36 H36        -3.4960    0.2410    1.4870 h1        1 LG1      0.123333
     37 H37        -2.7320   -0.9650    2.1970 h1        1 LG1      0.123333
     38 H38         5.1600    0.5620    0.7410 hc        1 LG1      0.111333
     39 H39         5.0920    1.0500   -0.7750 hc        1 LG1      0.111333
     40 H40         5.2610   -0.5000   -0.4440 hc        1 LG1      0.111333
     41 H41         0.2690   -1.3270   -3.8460 h1        1 LG1      0.114667
     42 H42         1.3310   -1.6250   -2.6940 h1        1 LG1      0.114667
     43 H43         1.7210   -0.6720   -3.9110 h1        1 LG1      0.114667
@<TRIPOS>BOND
     1    1   21 1   
     2    1   27 1   
     3    2    3 1   
     4    2   28 1   
     5    3   19 1   
     6    4    5 1   
     7    4   26 1   
     8    5    6 1   
     9    5   23 1   
    10    6   29 1   
    11    7    8 1   
    12    7   25 1   
    13    8   30 1   
    14    9   10 1   
    15    9   23 1   
    16   10   16 1   
    17   11   12 1   
    18   11   31 1   
    19   12   14 1   
    20   14   15 1   
    21   14   32 1   
    22   15   33 1   
    23   16   17 1   
    24   17   24 1   
    25   18   23 1   
    26   19   20 1   
    27   20   34 1   
    28   21   22 1   
    29   24   35 1   
    30   24   36 1   
    31   24   37 1   
    32   25   38 1   
    33   25   39 1   
    34   25   40 1   
    35   26   41 1   
    36   26   42 1   
    37   26   43 1   
@<TRIPOS>SUBSTRUCTURE
     1 LG1         1 TEMP              0 ****  ****    0 ROOT
