@<TRIPOS>MOLECULE
LG1
   43    47     1     0     0
SMALL
bcc


@<TRIPOS>ATOM
      1 C05        -0.0060    0.1360   -0.0300 ca        1 LG1     -0.070000
      2 C06         1.3660    0.0630   -0.0510 ca        1 LG1     -0.155000
      3 C01         2.1170   -0.0470    1.1590 ca        1 LG1      0.098700
      4 N14         3.5090   -0.0260    1.1340 na        1 LG1     -0.100100
      5 C13         4.2150    0.2160    2.3090 ca        1 LG1      0.120700
      6 C18         5.5790    0.5930    2.2850 ca        1 LG1     -0.196000
      7 C17         6.2890    0.7570    3.4690 ca        1 LG1      0.043700
      8 C16         5.6610    0.5450    4.7090 ca        1 LG1     -0.160000
      9 C15         4.3170    0.2030    4.7760 ca        1 LG1      0.058000
     10 C19         3.6260   -0.0270    6.0320 ca        1 LG1     -0.028000
     11 C20         4.2370    0.2500    7.2640 ca        1 LG1     -0.133000
     12 C21         3.5690   -0.0110    8.4660 ca        1 LG1      0.153900
     13 F30         4.1690    0.2550    9.6450 f         1 LG1     -0.106900
     14 C22         2.2620   -0.5490    8.4470 ca        1 LG1     -0.116000
     15 C23         1.6430   -0.8110    7.2400 ca        1 LG1     -0.116000
     16 C24         2.3060   -0.5520    6.0140 ca        1 LG1     -0.009300
     17 NP5         1.6430   -0.7830    4.7820 na        1 LG1     -0.050100
     18 C11         2.1780   -0.3130    3.6200 ca        1 LG1      0.213700
     19 C02         1.4150   -0.1510    2.3950 ca        1 LG1     -0.137000
     20 C03         0.0100   -0.0060    2.4010 ca        1 LG1     -0.123000
     21 C04        -0.6980    0.1250    1.2110 ca        1 LG1      0.119900
     22 F08        -2.0420    0.2570    1.2270 f         1 LG1     -0.108900
     23 C12         3.5660    0.0540    3.5730 ca        1 LG1     -0.148000
     24 C34         0.4600   -1.6220    4.8060 c3        1 LG1     -0.013400
     25 C27         7.7160    1.1560    3.4410 c3        1 LG1     -0.082800
     26 C33         4.2190   -0.2130   -0.1120 c3        1 LG1     -0.000400
     27 H09        -0.5840    0.2280   -0.9660 ha        1 LG1      0.182000
     28 H10         1.8830    0.1240   -1.0230 ha        1 LG1      0.168000
     29 H26         6.0920    0.7790    1.3270 ha        1 LG1      0.164000
     30 H28         6.2660    0.6540    5.6230 ha        1 LG1      0.163000
     31 H29         5.2500    0.6820    7.3070 ha        1 LG1      0.171000
     32 H31         1.7440   -0.7480    9.4000 ha        1 LG1      0.179000
     33 H32         0.6150   -1.2090    7.2580 ha        1 LG1      0.160000
     34 H07        -0.5500    0.0570    3.3470 ha        1 LG1      0.165000
     35 H35         0.6510   -2.5010    5.4820 h1        1 LG1      0.084033
     36 H36        -0.4220   -1.0420    5.1930 h1        1 LG1      0.084033
     37 H37         0.2390   -2.0160    3.7770 h1        1 LG1      0.084033
     38 H38         8.0910    1.2770    2.3960 hc        1 LG1      0.072033
     39 H39         7.8520    2.1280    3.9810 hc        1 LG1      0.072033
     40 H40         8.3410    0.3820    3.9550 hc        1 LG1      0.072033
     41 H41         5.2280   -0.6650    0.0880 h1        1 LG1      0.075367
     42 H42         3.6520   -0.9240   -0.7710 h1        1 LG1      0.075367
     43 H43         4.3460    0.7710   -0.6380 h1        1 LG1      0.075367
@<TRIPOS>BOND
     1    1    2 ar  
     2    1   21 ar  
     3    1   27 1   
     4    2    3 ar  
     5    2   28 1   
     6    3    4 1   
     7    3   19 ar  
     8    4    5 2   
     9    4   26 1   
    10    5    6 ar  
    11    5   23 ar  
    12    6    7 ar  
    13    6   29 1   
    14    7    8 ar  
    15    7   25 1   
    16    8    9 ar  
    17    8   30 1   
    18    9   10 ar  
    19    9   23 ar  
    20   10   11 ar  
    21   10   16 ar  
    22   11   12 ar  
    23   11   31 1   
    24   12   13 1   
    25   12   14 ar  
    26   14   15 ar  
    27   14   32 1   
    28   15   16 ar  
    29   15   33 1   
    30   16   17 1   
    31   17   18 1   
    32   17   24 1   
    33   18   19 ar  
    34   18   23 ar  
    35   19   20 ar  
    36   20   21 ar  
    37   20   34 1   
    38   21   22 1   
    39   24   35 1   
    40   24   36 1   
    41   24   37 1   
    42   25   38 1   
    43   25   39 1   
    44   25   40 1   
    45   26   41 1   
    46   26   42 1   
    47   26   43 1   
@<TRIPOS>SUBSTRUCTURE
     1 LG1         1 TEMP              0 ****  ****    0 ROOT
