@<TRIPOS>MOLECULE
LG2
   55    58     1     0     0
SMALL
bcc


@<TRIPOS>ATOM
      1 C1         -0.1790   -0.5290    2.4350 ca        1 LG2     -0.074300
      2 C2          0.3040   -1.0480    1.2260 ca        1 LG2     -0.121000
      3 C3          1.0930   -0.2930    0.3550 ca        1 LG2     -0.033300
      4 C4          1.4030    1.0360    0.6960 ca        1 LG2     -0.048300
      5 C5          0.9130    1.5560    1.8960 ca        1 LG2     -0.140000
      6 C6          0.1140    0.8030    2.7660 ca        1 LG2     -0.064300
      7 C7         -0.3920    1.4640    4.0200 c3        1 LG2     -0.001700
      8 C8         -1.5030    0.6390    4.6720 c3        1 LG2     -0.068400
      9 C9         -1.1770   -0.8320    4.7130 c3        1 LG2     -0.067400
     10 C10        -1.0060   -1.4280    3.3150 c3        1 LG2     -0.000700
     11 C11         1.5710   -0.9050   -0.9050 cx        1 LG2     -0.107000
     12 C12         0.7860   -0.4920   -2.1070 ca        1 LG2      0.393600
     13 N13         1.3900    0.2550   -3.0670 nb        1 LG2     -0.700000
     14 C14         0.6520    0.5940   -4.1380 ca        1 LG2      0.402200
     15 C15        -0.6980    0.2240   -4.3240 ca        1 LG2     -0.225900
     16 C16        -1.3020   -0.5400   -3.3240 ca        1 LG2     -0.084000
     17 C17        -0.5590   -0.9040   -2.2000 ca        1 LG2     -0.255300
     18 C18        -1.4530    0.6460   -5.5720 c         1 LG2      0.912200
     19 O19        -2.6530    0.2700   -5.6880 o         1 LG2     -0.827300
     20 O20        -0.8370    1.3470   -6.4230 o         1 LG2     -0.827300
     21 C21         3.0490   -1.2050   -1.0460 cx        1 LG2     -0.119400
     22 C22         2.0810   -2.3330   -0.8750 cx        1 LG2     -0.119400
     23 C23         0.7650    1.6410    4.9990 c3        1 LG2     -0.083600
     24 C24        -0.9740    2.8410    3.6990 c3        1 LG2     -0.083600
     25 C25        -2.3730   -1.6420    2.6710 c3        1 LG2     -0.084100
     26 C26        -0.3260   -2.7870    3.4780 c3        1 LG2     -0.084100
     27 C27         2.2090    1.8980   -0.1990 c3        1 LG2     -0.057800
     28 HC2         0.0480   -2.0800    0.9390 ha        1 LG2      0.132000
     29 HC5         1.1610    2.5970    2.1570 ha        1 LG2      0.124000
     30 HC81       -2.4570    0.7960    4.1010 hc        1 LG2      0.039200
     31 HC82       -1.6710    1.0150    5.7160 hc        1 LG2      0.039200
     32 HC91       -1.9960   -1.3820    5.2460 hc        1 LG2      0.036700
     33 HC92       -0.2320   -0.9910    5.2970 hc        1 LG2      0.036700
     34 HC41        1.1510    1.2030   -4.9160 h4        1 LG2      0.039100
     35 HC61       -2.3560   -0.8380   -3.4450 ha        1 LG2      0.155000
     36 HC71       -1.0060   -1.4980   -1.3920 ha        1 LG2      0.119000
     37 H211        3.5310   -1.0470   -2.0270 hc        1 LG2      0.070450
     38 H212        3.7170   -0.9440   -0.2070 hc        1 LG2      0.070450
     39 H221        2.0620   -2.8840    0.0820 hc        1 LG2      0.070450
     40 H222        1.8570   -2.9860   -1.7370 hc        1 LG2      0.070450
     41 H231        0.4160    2.1770    5.9140 hc        1 LG2      0.033867
     42 H232        1.1800    0.6490    5.3000 hc        1 LG2      0.033867
     43 H233        1.5810    2.2360    4.5240 hc        1 LG2      0.033867
     44 H241       -1.5310    3.2320    4.5850 hc        1 LG2      0.033867
     45 H242       -0.1660    3.5670    3.4470 hc        1 LG2      0.033867
     46 H243       -1.6750    2.7720    2.8340 hc        1 LG2      0.033867
     47 H251       -2.9800   -2.3480    3.2860 hc        1 LG2      0.034867
     48 H252       -2.9220   -0.6740    2.5860 hc        1 LG2      0.034867
     49 H253       -2.2520   -2.0690    1.6470 hc        1 LG2      0.034867
     50 H261       -0.8400   -3.3740    4.2760 hc        1 LG2      0.034867
     51 H262       -0.3730   -3.3720    2.5290 hc        1 LG2      0.034867
     52 H263        0.7450   -2.6540    3.7630 hc        1 LG2      0.034867
     53 H271        3.0320    1.3120   -0.6800 hc        1 LG2      0.051367
     54 H272        1.5590    2.3010   -1.0180 hc        1 LG2      0.051367
     55 H273        2.6540    2.7570    0.3590 hc        1 LG2      0.051367
@<TRIPOS>BOND
     1    1    2 ar  
     2    1    6 ar  
     3    1   10 1   
     4    2    3 ar  
     5    2   28 1   
     6    3    4 ar  
     7    3   11 1   
     8    4    5 ar  
     9    4   27 1   
    10    5    6 ar  
    11    5   29 1   
    12    6    7 1   
    13    7    8 1   
    14    7   23 1   
    15    7   24 1   
    16    8    9 1   
    17    8   30 1   
    18    8   31 1   
    19    9   10 1   
    20    9   32 1   
    21    9   33 1   
    22   10   25 1   
    23   10   26 1   
    24   11   12 1   
    25   11   21 1   
    26   11   22 1   
    27   12   13 ar  
    28   12   17 ar  
    29   13   14 ar  
    30   14   15 ar  
    31   14   34 1   
    32   15   16 ar  
    33   15   18 1   
    34   16   17 ar  
    35   16   35 1   
    36   17   36 1   
    37   18   19 1   
    38   18   20 1   
    39   21   22 1   
    40   21   37 1   
    41   21   38 1   
    42   22   39 1   
    43   22   40 1   
    44   23   41 1   
    45   23   42 1   
    46   23   43 1   
    47   24   44 1   
    48   24   45 1   
    49   24   46 1   
    50   25   47 1   
    51   25   48 1   
    52   25   49 1   
    53   26   50 1   
    54   26   51 1   
    55   26   52 1   
    56   27   53 1   
    57   27   54 1   
    58   27   55 1   
@<TRIPOS>SUBSTRUCTURE
     1 LG2         1 TEMP              0 ****  ****    0 ROOT
