@<TRIPOS>MOLECULE
LG2
   55    58     1     0     0
SMALL
bcc


@<TRIPOS>ATOM
      1 C1          0.0130   -0.0170    0.0000 ca        1 LG2     -0.074300
      2 C2          1.4140   -0.0100    0.0060 ca        1 LG2     -0.121000
      3 C3          2.1530   -0.0440    1.1910 ca        1 LG2     -0.033300
      4 C4          1.4690   -0.0730    2.4190 ca        1 LG2     -0.048300
      5 C5          0.0730   -0.0680    2.4140 ca        1 LG2     -0.140000
      6 C6         -0.6700   -0.0250    1.2270 ca        1 LG2     -0.064300
      7 C7         -2.1720    0.0080    1.3260 c3        1 LG2     -0.001700
      8 C8         -2.8080    0.3930   -0.0100 c3        1 LG2     -0.068400
      9 C9         -2.1780   -0.3290   -1.1740 c3        1 LG2     -0.067400
     10 C10        -0.6930    0.0030   -1.3290 c3        1 LG2     -0.000700
     11 C11         3.6320   -0.0370    1.1230 cx        1 LG2     -0.107000
     12 C12         4.2390    1.2970    1.4070 ca        1 LG2      0.393600
     13 N13         4.9930    1.4570    2.5250 nb        1 LG2     -0.700000
     14 C14         5.5310    2.6710    2.7360 ca        1 LG2      0.402200
     15 C15         5.3620    3.7770    1.8760 ca        1 LG2     -0.225900
     16 C16         4.5790    3.5950    0.7350 ca        1 LG2     -0.084000
     17 C17         4.0070    2.3450    0.4920 ca        1 LG2     -0.255300
     18 C18         6.0150    5.1120    2.1910 c         1 LG2      0.912200
     19 O19         5.8390    6.0590    1.3730 o         1 LG2     -0.827300
     20 O20         6.6970    5.1980    3.2500 o         1 LG2     -0.827300
     21 C21         4.3780   -1.2950    1.5180 cx        1 LG2     -0.119400
     22 C22         4.3190   -0.8950    0.0780 cx        1 LG2     -0.119400
     23 C23        -2.6780   -1.3620    1.7670 c3        1 LG2     -0.083600
     24 C24        -2.6140    1.0470    2.3570 c3        1 LG2     -0.083600
     25 C25        -0.5330    1.3820   -1.9630 c3        1 LG2     -0.084100
     26 C26        -0.0870   -1.0380   -2.2690 c3        1 LG2     -0.084100
     27 C27         2.1950   -0.0790    3.7100 c3        1 LG2     -0.057800
     28 HC2         1.9590    0.0350   -0.9510 ha        1 LG2      0.132000
     29 HC5        -0.4560   -0.0930    3.3800 ha        1 LG2      0.124000
     30 HC81       -3.9040    0.1590    0.0270 hc        1 LG2      0.039200
     31 HC82       -2.7060    1.5010   -0.1580 hc        1 LG2      0.039200
     32 HC91       -2.2930   -1.4370   -1.0350 hc        1 LG2      0.036700
     33 HC92       -2.7130   -0.0530   -2.1200 hc        1 LG2      0.036700
     34 HC41        6.1450    2.7940    3.6490 h4        1 LG2      0.039100
     35 HC61        4.4290    4.4440    0.0500 ha        1 LG2      0.155000
     36 HC71        3.3800    2.1690   -0.3910 ha        1 LG2      0.119000
     37 H211        3.7900   -2.1680    1.8550 hc        1 LG2      0.070450
     38 H212        5.3290   -1.1970    2.0710 hc        1 LG2      0.070450
     39 H221        5.2270   -0.4990   -0.4090 hc        1 LG2      0.070450
     40 H222        3.6960   -1.4850   -0.6180 hc        1 LG2      0.070450
     41 H231       -3.7870   -1.3380    1.8960 hc        1 LG2      0.033867
     42 H232       -2.2100   -1.6490    2.7390 hc        1 LG2      0.033867
     43 H233       -2.4210   -2.1380    1.0080 hc        1 LG2      0.033867
     44 H241       -3.7150    1.2150    2.2770 hc        1 LG2      0.033867
     45 H242       -2.0870    2.0150    2.1820 hc        1 LG2      0.033867
     46 H243       -2.3890    0.7010    3.3940 hc        1 LG2      0.033867
     47 H251       -1.0070    1.3980   -2.9730 hc        1 LG2      0.034867
     48 H252       -1.0130    2.1640   -1.3270 hc        1 LG2      0.034867
     49 H253        0.5500    1.6320   -2.0700 hc        1 LG2      0.034867
     50 H261       -0.0110   -2.0260   -1.7570 hc        1 LG2      0.034867
     51 H262       -0.7320   -1.1510   -3.1750 hc        1 LG2      0.034867
     52 H263        0.9320   -0.7300   -2.6030 hc        1 LG2      0.034867
     53 H271        3.1130   -0.7160    3.6480 hc        1 LG2      0.051367
     54 H272        2.5230    0.9630    3.9620 hc        1 LG2      0.051367
     55 H273        1.5470   -0.4580    4.5380 hc        1 LG2      0.051367
@<TRIPOS>BOND
     1    1    2 ar  
     2    1    6 ar  
     3    1   10 1   
     4    2    3 ar  
     5    2   28 1   
     6    3    4 ar  
     7    3   11 1   
     8    4    5 ar  
     9    4   27 1   
    10    5    6 ar  
    11    5   29 1   
    12    6    7 1   
    13    7    8 1   
    14    7   23 1   
    15    7   24 1   
    16    8    9 1   
    17    8   30 1   
    18    8   31 1   
    19    9   10 1   
    20    9   32 1   
    21    9   33 1   
    22   10   25 1   
    23   10   26 1   
    24   11   12 1   
    25   11   21 1   
    26   11   22 1   
    27   12   13 ar  
    28   12   17 ar  
    29   13   14 ar  
    30   14   15 ar  
    31   14   34 1   
    32   15   16 ar  
    33   15   18 1   
    34   16   17 ar  
    35   16   35 1   
    36   17   36 1   
    37   18   19 1   
    38   18   20 1   
    39   21   22 1   
    40   21   37 1   
    41   21   38 1   
    42   22   39 1   
    43   22   40 1   
    44   23   41 1   
    45   23   42 1   
    46   23   43 1   
    47   24   44 1   
    48   24   45 1   
    49   24   46 1   
    50   25   47 1   
    51   25   48 1   
    52   25   49 1   
    53   26   50 1   
    54   26   51 1   
    55   26   52 1   
    56   27   53 1   
    57   27   54 1   
    58   27   55 1   
@<TRIPOS>SUBSTRUCTURE
     1 LG2         1 TEMP              0 ****  ****    0 ROOT
