@<TRIPOS>MOLECULE
LG2
   55    58     1     0     0
SMALL
bcc


@<TRIPOS>ATOM
      1 C1          0.0120   -0.0170    0.0020 ca        1 LG2     -0.074300
      2 C2          1.4140   -0.0110    0.0060 ca        1 LG2     -0.121000
      3 C3          2.1540   -0.0440    1.1910 ca        1 LG2     -0.033300
      4 C4          1.4700   -0.0720    2.4190 ca        1 LG2     -0.048300
      5 C5          0.0740   -0.0670    2.4150 ca        1 LG2     -0.140000
      6 C6         -0.6700   -0.0240    1.2280 ca        1 LG2     -0.064300
      7 C7         -2.1710    0.0090    1.3290 c3        1 LG2     -0.001700
      8 C8         -2.8080    0.3930   -0.0080 c3        1 LG2     -0.068400
      9 C9         -2.1790   -0.3310   -1.1710 c3        1 LG2     -0.067400
     10 C10        -0.6940    0.0020   -1.3270 c3        1 LG2     -0.000700
     11 C11         3.6320   -0.0370    1.1220 cx        1 LG2     -0.107000
     12 C12         4.2390    1.2970    1.4050 ca        1 LG2      0.393600
     13 N13         4.9960    1.4570    2.5220 nb        1 LG2     -0.700000
     14 C14         5.5340    2.6710    2.7310 ca        1 LG2      0.402200
     15 C15         5.3630    3.7770    1.8710 ca        1 LG2     -0.225900
     16 C16         4.5780    3.5950    0.7320 ca        1 LG2     -0.084000
     17 C17         4.0050    2.3450    0.4900 ca        1 LG2     -0.255300
     18 C18         6.0170    5.1120    2.1840 c         1 LG2      0.912200
     19 O19         5.8390    6.0590    1.3680 o         1 LG2     -0.827300
     20 O20         6.7010    5.1980    3.2420 o         1 LG2     -0.827300
     21 C21         4.3780   -1.2950    1.5180 cx        1 LG2     -0.119400
     22 C22         4.3180   -0.8970    0.0770 cx        1 LG2     -0.119400
     23 C23        -2.6780   -1.3610    1.7710 c3        1 LG2     -0.083600
     24 C24        -2.6130    1.0490    2.3590 c3        1 LG2     -0.083600
     25 C25        -0.5350    1.3800   -1.9620 c3        1 LG2     -0.084100
     26 C26        -0.0890   -1.0410   -2.2680 c3        1 LG2     -0.084100
     27 C27         2.1970   -0.0760    3.7100 c3        1 LG2     -0.057800
     28 HC2         1.9580    0.0340   -0.9510 ha        1 LG2      0.132000
     29 HC5        -0.4550   -0.0900    3.3810 ha        1 LG2      0.124000
     30 HC81       -3.9050    0.1590    0.0300 hc        1 LG2      0.039200
     31 HC82       -2.7070    1.5000   -0.1560 hc        1 LG2      0.039200
     32 HC91       -2.2940   -1.4380   -1.0320 hc        1 LG2      0.036700
     33 HC92       -2.7150   -0.0550   -2.1180 hc        1 LG2      0.036700
     34 HC41        6.1500    2.7940    3.6430 h4        1 LG2      0.039100
     35 HC61        4.4260    4.4440    0.0470 ha        1 LG2      0.155000
     36 HC71        3.3760    2.1690   -0.3920 ha        1 LG2      0.119000
     37 H211        5.3300   -1.1970    2.0700 hc        1 LG2      0.070450
     38 H212        3.7900   -2.1670    1.8550 hc        1 LG2      0.070450
     39 H221        3.6950   -1.4860   -0.6180 hc        1 LG2      0.070450
     40 H222        5.2270   -0.5000   -0.4100 hc        1 LG2      0.070450
     41 H231       -3.7860   -1.3360    1.9000 hc        1 LG2      0.033867
     42 H232       -2.4210   -2.1380    1.0120 hc        1 LG2      0.033867
     43 H233       -2.2090   -1.6470    2.7430 hc        1 LG2      0.033867
     44 H241       -3.7140    1.2170    2.2800 hc        1 LG2      0.033867
     45 H242       -2.3870    0.7030    3.3960 hc        1 LG2      0.033867
     46 H243       -2.0860    2.0160    2.1830 hc        1 LG2      0.033867
     47 H251        0.5490    1.6300   -2.0700 hc        1 LG2      0.034867
     48 H252       -1.0140    2.1630   -1.3270 hc        1 LG2      0.034867
     49 H253       -1.0090    1.3950   -2.9730 hc        1 LG2      0.034867
     50 H261        0.9300   -0.7320   -2.6020 hc        1 LG2      0.034867
     51 H262       -0.0130   -2.0280   -1.7540 hc        1 LG2      0.034867
     52 H263       -0.7340   -1.1540   -3.1720 hc        1 LG2      0.034867
     53 H271        2.5260    0.9650    3.9600 hc        1 LG2      0.051367
     54 H272        1.5490   -0.4530    4.5390 hc        1 LG2      0.051367
     55 H273        3.1140   -0.7140    3.6480 hc        1 LG2      0.051367
@<TRIPOS>BOND
     1    1    2 ar  
     2    1    6 ar  
     3    1   10 1   
     4    2    3 ar  
     5    2   28 1   
     6    3    4 ar  
     7    3   11 1   
     8    4    5 ar  
     9    4   27 1   
    10    5    6 ar  
    11    5   29 1   
    12    6    7 1   
    13    7    8 1   
    14    7   23 1   
    15    7   24 1   
    16    8    9 1   
    17    8   30 1   
    18    8   31 1   
    19    9   10 1   
    20    9   32 1   
    21    9   33 1   
    22   10   25 1   
    23   10   26 1   
    24   11   12 1   
    25   11   21 1   
    26   11   22 1   
    27   12   13 ar  
    28   12   17 ar  
    29   13   14 ar  
    30   14   15 ar  
    31   14   34 1   
    32   15   16 ar  
    33   15   18 1   
    34   16   17 ar  
    35   16   35 1   
    36   17   36 1   
    37   18   19 1   
    38   18   20 1   
    39   21   22 1   
    40   21   37 1   
    41   21   38 1   
    42   22   39 1   
    43   22   40 1   
    44   23   41 1   
    45   23   42 1   
    46   23   43 1   
    47   24   44 1   
    48   24   45 1   
    49   24   46 1   
    50   25   47 1   
    51   25   48 1   
    52   25   49 1   
    53   26   50 1   
    54   26   51 1   
    55   26   52 1   
    56   27   53 1   
    57   27   54 1   
    58   27   55 1   
@<TRIPOS>SUBSTRUCTURE
     1 LG2         1 TEMP              0 ****  ****    0 ROOT
