@<TRIPOS>MOLECULE
LG2
   55    53     1     0     0
SMALL
bcc


@<TRIPOS>ATOM
      1 C1         -1.2090   -0.4980   -0.8620 c1        1 LG2     -0.062000
      2 C2          0.1810   -0.4740   -0.8490 c1        1 LG2     -0.121000
      3 C3          0.8790   -0.4940    0.3860 c1        1 LG2     -0.026000
      4 C4          0.1480   -0.5390    1.6300 c1        1 LG2     -0.041000
      5 C5         -1.2700   -0.5640    1.6210 c1        1 LG2     -0.140000
      6 C6         -1.9580   -0.5450    0.4140 c1        1 LG2     -0.062000
      7 C7         -3.5530   -0.5590    0.3380 c3        1 LG2     -0.008500
      8 C8         -4.1330   -0.3730   -0.9550 c3        1 LG2     -0.146500
      9 C9         -3.4330   -0.9660   -2.0840 c3        1 LG2     -0.146500
     10 C10        -2.0430   -0.6450   -2.2220 c3        1 LG2     -0.008500
     11 C11         2.4250   -0.5130    0.3980 cx        1 LG2     -0.020000
     12 C12         3.2900    0.7310    0.6710 c2        1 LG2     -0.029000
     13 N13         3.6530    1.0430    1.9500 n2        1 LG2     -0.174000
     14 C14         4.3790    2.1760    2.2000 c1        1 LG2     -0.063000
     15 C15         4.7510    3.0110    1.1510 c1        1 LG2     -0.140000
     16 C16         4.3890    2.6990   -0.1320 c1        1 LG2     -0.084000
     17 C17         3.6610    1.5650   -0.3810 c1        1 LG2     -0.190000
     18 C18         5.4820    4.3140    1.4390 c2        1 LG2      0.361000
     19 O19         4.8360    5.3940    1.5270 o         1 LG2     -0.562000
     20 O20         6.7360    4.3150    1.5860 o         1 LG2     -0.562000
     21 C21         3.1740   -1.7860    0.7920 cx        1 LG2     -0.198000
     22 C22         3.1980   -1.3280   -0.6380 cx        1 LG2     -0.198000
     23 C23        -4.0430   -1.9110    0.8900 c3        1 LG2     -0.201750
     24 C24        -4.0820    0.5550    1.2600 c3        1 LG2     -0.201750
     25 C25        -1.9500    0.6980   -2.9690 c3        1 LG2     -0.201750
     26 C26        -1.3890   -1.7700   -3.0450 c3        1 LG2     -0.201750
     27 C27         0.9050   -0.5950    2.9620 c3        1 LG2     -0.183000
     28 HC2         0.6790   -0.4430   -1.6930 ha        1 LG2      0.132000
     29 HC5        -1.7660   -0.5950    2.4680 ha        1 LG2      0.124000
     30 HC81       -4.2050    0.5950   -1.1180 hc        1 LG2      0.077250
     31 HC82       -5.0440   -0.7480   -0.9340 hc        1 LG2      0.077250
     32 HC91       -3.5020   -1.9430   -1.9920 hc        1 LG2      0.077250
     33 HC92       -3.8870   -0.6630   -2.9040 hc        1 LG2      0.077250
     34 HC41        4.6420    2.3970    3.1200 ha        1 LG2      0.176000
     35 HC61        4.6860    3.2650   -0.8780 ha        1 LG2      0.155000
     36 HC71        3.4300    1.3230   -1.3030 ha        1 LG2      0.119000
     37 H211        2.6120   -2.5710    0.9790 hc        1 LG2      0.109750
     38 H212        4.0070   -1.6510    1.2970 hc        1 LG2      0.109750
     39 H221        4.0440   -0.9350   -0.9440 hc        1 LG2      0.109750
     40 H222        2.6510   -1.8530   -1.2620 hc        1 LG2      0.109750
     41 H231       -3.9570   -1.9150    1.8700 hc        1 LG2      0.073667
     42 H232       -4.9860   -2.0430    0.6430 hc        1 LG2      0.073667
     43 H233       -3.5000   -2.6360    0.5100 hc        1 LG2      0.073667
     44 H241       -3.8690    0.3360    2.1940 hc        1 LG2      0.073667
     45 H242       -3.6580    1.4090    1.0200 hc        1 LG2      0.073667
     46 H243       -5.0580    0.6320    1.1550 hc        1 LG2      0.073667
     47 H251       -1.1530    0.6990   -3.5450 hc        1 LG2      0.073667
     48 H252       -2.7550    0.8230   -3.5220 hc        1 LG2      0.073667
     49 H253       -1.8840    1.4320   -2.3170 hc        1 LG2      0.073667
     50 H261       -1.9950   -2.0400   -3.7720 hc        1 LG2      0.073667
     51 H262       -1.2120   -2.5430   -2.4620 hc        1 LG2      0.073667
     52 H263       -0.5430   -1.4480   -3.4260 hc        1 LG2      0.073667
     53 H271        1.3930   -1.4460    3.0250 hc        1 LG2      0.090667
     54 H272        0.2660   -0.5280    3.7060 hc        1 LG2      0.090667
     55 H273        1.5410    0.1510    3.0080 hc        1 LG2      0.090667
@<TRIPOS>BOND
     1    1    6 1   
     2    1   10 1   
     3    2    3 1   
     4    2   28 1   
     5    3   11 1   
     6    4    5 1   
     7    4   27 1   
     8    5   29 1   
     9    6    7 1   
    10    7    8 1   
    11    7   23 1   
    12    7   24 1   
    13    8    9 1   
    14    8   30 1   
    15    8   31 1   
    16    9   10 1   
    17    9   32 1   
    18    9   33 1   
    19   10   25 1   
    20   10   26 1   
    21   11   12 1   
    22   11   21 1   
    23   11   22 1   
    24   12   13 1   
    25   12   17 1   
    26   13   14 1   
    27   14   34 1   
    28   15   16 1   
    29   15   18 1   
    30   16   35 1   
    31   17   36 1   
    32   18   19 1   
    33   18   20 1   
    34   21   22 1   
    35   21   37 1   
    36   21   38 1   
    37   22   39 1   
    38   22   40 1   
    39   23   41 1   
    40   23   42 1   
    41   23   43 1   
    42   24   44 1   
    43   24   45 1   
    44   24   46 1   
    45   25   47 1   
    46   25   48 1   
    47   25   49 1   
    48   26   50 1   
    49   26   51 1   
    50   26   52 1   
    51   27   53 1   
    52   27   54 1   
    53   27   55 1   
@<TRIPOS>SUBSTRUCTURE
     1 LG2         1 TEMP              0 ****  ****    0 ROOT
