@<TRIPOS>MOLECULE
LG3
   16    16     1     0     0
SMALL
bcc


@<TRIPOS>ATOM
      1 C2         -0.0190   -0.0300    0.0250 ca        1 LG3      0.755900
      2 N3          1.3400   -0.1050   -0.0540 nb        1 LG3     -0.659000
      3 C4          2.0010   -0.0180    1.1470 ca        1 LG3      0.519200
      4 C5          1.3350    0.1370    2.3760 ca        1 LG3     -0.251600
      5 C6         -0.0890    0.2020    2.3200 ca        1 LG3      0.514200
      6 N1         -0.7740    0.1220    1.1750 nb        1 LG3     -0.602000
      7 N7         -0.7820   -0.1200   -1.2530 n4        1 LG3     -0.819300
      8 N8          3.4760   -0.0960    1.1000 n4        1 LG3     -0.827300
      9 H5          1.8470    0.2090    3.3530 ha        1 LG3      0.227000
     10 H6         -0.6980    0.3250    3.2500 h4        1 LG3      0.126100
     11 HN71       -1.3420    0.7420   -1.3730 hn        1 LG3      0.506133
     12 HN72       -0.1450   -0.2300   -2.0580 hn        1 LG3      0.506133
     13 HN81        3.8530   -0.0200    2.0570 hn        1 LG3      0.499467
     14 HN82        3.7760   -0.9960    0.6880 hn        1 LG3      0.499467
     15 H73        -1.4220   -0.9310   -1.2080 hn        1 LG3      0.506133
     16 H83         3.8580    0.6730    0.5230 hn        1 LG3      0.499467
@<TRIPOS>BOND
     1    1    2 ar  
     2    1    6 ar  
     3    1    7 1   
     4    2    3 ar  
     5    3    4 ar  
     6    3    8 1   
     7    4    5 ar  
     8    4    9 1   
     9    5    6 ar  
    10    5   10 1   
    11    7   11 1   
    12    7   12 1   
    13    7   15 1   
    14    8   13 1   
    15    8   14 1   
    16    8   16 1   
@<TRIPOS>SUBSTRUCTURE
     1 LG3         1 TEMP              0 ****  ****    0 ROOT
