@<TRIPOS>MOLECULE
LG3
   14    11     1     0     0
SMALL
bcc


@<TRIPOS>ATOM
      1 C2         -1.0050    0.0130   -0.8860 c1        1 LG3      0.560600
      2 N3          0.3570    0.0130   -0.8860 n1        1 LG3     -0.597300
      3 C4          1.0290    0.0130    0.2750 c1        1 LG3      0.560600
      4 C5          0.3460    0.0130    1.4570 c1        1 LG3     -0.105500
      5 C6         -1.0180    0.0130    1.4560 c1        1 LG3     -0.105500
      6 N1         -1.6870    0.0130    0.2930 n1        1 LG3     -0.597300
      7 N7         -1.7140    0.0100   -2.1150 n3        1 LG3     -0.797900
      8 N8          2.4470   -0.0270    0.2750 n3        1 LG3     -0.797900
      9 H5          0.8340    0.0130    2.3030 ha        1 LG3      0.096500
     10 H6         -1.5070    0.0130    2.3010 ha        1 LG3      0.096500
     11 HN71       -1.2630   -0.0890   -2.9010 hn        1 LG3      0.421550
     12 HN72       -2.6230    0.0850   -2.1170 hn        1 LG3      0.421550
     13 HN81        2.8810   -0.8010    0.0660 hn        1 LG3      0.421550
     14 HN82        2.9240    0.7230    0.4790 hn        1 LG3      0.421550
@<TRIPOS>BOND
     1    1    6 3   
     2    1    7 1   
     3    2    3 3   
     4    3    8 1   
     5    4    5 3   
     6    4    9 1   
     7    5   10 1   
     8    7   11 1   
     9    7   12 1   
    10    8   13 1   
    11    8   14 1   
@<TRIPOS>SUBSTRUCTURE
     1 LG3         1 TEMP              0 ****  ****    0 ROOT
