@<TRIPOS>MOLECULE
LG3
   14    14     1     0     0
SMALL
bcc


@<TRIPOS>ATOM
      1 C2         -0.0160   -0.0710   -0.0020 ca        1 LG3      0.897900
      2 N3          1.3680   -0.0760   -0.0620 nb        1 LG3     -0.820000
      3 C4          2.0310   -0.0360    1.1370 ca        1 LG3      0.706200
      4 C5          1.3240    0.0690    2.3770 ca        1 LG3     -0.480600
      5 C6         -0.0720    0.1040    2.3060 ca        1 LG3      0.488200
      6 N1         -0.7720    0.0440    1.1640 nb        1 LG3     -0.781000
      7 N7         -0.7060   -0.2420   -1.2050 nh        1 LG3     -0.931500
      8 N8          3.4170   -0.1510    1.1420 nh        1 LG3     -0.943500
      9 H5          1.8470    0.1080    3.3360 ha        1 LG3      0.149000
     10 H6         -0.6800    0.1910    3.2270 h4        1 LG3      0.022100
     11 HN71       -0.1980   -0.0860   -2.0430 hn        1 LG3      0.427800
     12 HN72       -1.6650    0.0160   -1.2100 hn        1 LG3      0.427800
     13 HN81        3.8970   -0.0490    0.2780 hn        1 LG3      0.418800
     14 HN82        3.8740    0.2160    1.9420 hn        1 LG3      0.418800
@<TRIPOS>BOND
     1    1    2 ar  
     2    1    6 ar  
     3    1    7 1   
     4    2    3 ar  
     5    3    4 ar  
     6    3    8 1   
     7    4    5 ar  
     8    4    9 1   
     9    5    6 ar  
    10    5   10 1   
    11    7   11 1   
    12    7   12 1   
    13    8   13 1   
    14    8   14 1   
@<TRIPOS>SUBSTRUCTURE
     1 LG3         1 TEMP              0 ****  ****    0 ROOT
