@<TRIPOS>MOLECULE
LG3
   14    14     1     0     0
SMALL
bcc


@<TRIPOS>ATOM
      1 C2         -1.1490   -0.2990    0.0350 ca        1 LG3      0.894900
      2 N3          0.0260   -1.0290   -0.0000 nb        1 LG3     -0.816000
      3 C4          1.1920   -0.3090   -0.0350 ca        1 LG3      0.703200
      4 C5          1.1850    1.1220   -0.0180 ca        1 LG3     -0.478600
      5 C6         -0.0660    1.7470   -0.0020 ca        1 LG3      0.487200
      6 N1         -1.2360    1.0920    0.0140 nb        1 LG3     -0.779000
      7 N7         -2.3420   -1.0190    0.1700 nh        1 LG3     -0.928500
      8 N8          2.4000   -0.9900   -0.1590 nh        1 LG3     -0.941500
      9 H5          2.1120    1.7030   -0.0350 ha        1 LG3      0.149000
     10 H6         -0.1430    2.8500   -0.0080 h4        1 LG3      0.022100
     11 HN71       -3.1780   -0.5340   -0.0590 hn        1 LG3      0.425800
     12 HN72       -2.3110   -1.9820   -0.0720 hn        1 LG3      0.425800
     13 HN81        3.1990   -0.4960    0.1600 hn        1 LG3      0.417300
     14 HN82        2.3980   -1.9690    0.0150 hn        1 LG3      0.417300
@<TRIPOS>BOND
     1    1    2 ar  
     2    1    6 ar  
     3    1    7 1   
     4    2    3 ar  
     5    3    4 ar  
     6    3    8 1   
     7    4    5 ar  
     8    4    9 1   
     9    5    6 ar  
    10    5   10 1   
    11    7   11 1   
    12    7   12 1   
    13    8   13 1   
    14    8   14 1   
@<TRIPOS>SUBSTRUCTURE
     1 LG3         1 TEMP              0 ****  ****    0 ROOT
