@<TRIPOS>MOLECULE
LG3
   14    14     1     0     0
SMALL
bcc


@<TRIPOS>ATOM
      1 C2         -0.0030    0.1040   -0.0170 ca        1 LG3      0.897900
      2 N3          1.3790    0.0240   -0.0640 nb        1 LG3     -0.820000
      3 C4          2.0290   -0.0140    1.1430 ca        1 LG3      0.706200
      4 C5          1.3080   -0.0330    2.3780 ca        1 LG3     -0.480600
      5 C6         -0.0880    0.0130    2.2950 ca        1 LG3      0.488200
      6 N1         -0.7730    0.0760    1.1440 nb        1 LG3     -0.781000
      7 N7         -0.6720    0.2750   -1.2320 nv        1 LG3     -0.931500
      8 N8          3.4200    0.0170    1.1580 nv        1 LG3     -0.943500
      9 H5          1.8190   -0.0710    3.3440 ha        1 LG3      0.149000
     10 H6         -0.7070   -0.0050    3.2110 h4        1 LG3      0.022100
     11 HN71       -1.6450    0.0760   -1.2380 hn        1 LG3      0.427800
     12 HN72       -0.1670    0.0590   -2.0590 hn        1 LG3      0.427800
     13 HN81        3.8990   -0.1430    0.3020 hn        1 LG3      0.418800
     14 HN82        3.8470   -0.3480    1.9750 hn        1 LG3      0.418800
@<TRIPOS>BOND
     1    1    2 ar  
     2    1    6 ar  
     3    1    7 1   
     4    2    3 ar  
     5    3    4 ar  
     6    3    8 1   
     7    4    5 ar  
     8    4    9 1   
     9    5    6 ar  
    10    5   10 1   
    11    7   11 1   
    12    7   12 1   
    13    8   13 1   
    14    8   14 1   
@<TRIPOS>SUBSTRUCTURE
     1 LG3         1 TEMP              0 ****  ****    0 ROOT
