@<TRIPOS>MOLECULE
LG4
   16    16     1     0     0
SMALL
bcc


@<TRIPOS>ATOM
      1 N1         -0.0330    0.2040   -0.0460 nb        1 LG4     -0.720000
      2 C2          1.3040    0.1850    0.0130 ca        1 LG4      0.434200
      3 C3          2.0550    0.0190    1.1960 ca        1 LG4     -0.240600
      4 C4          1.3420   -0.1400    2.3900 ca        1 LG4     -0.061000
      5 C5         -0.0460   -0.1200    2.3760 ca        1 LG4     -0.295300
      6 C6         -0.7260    0.0700    1.1340 ca        1 LG4      0.620200
      7 N7         -2.1230    0.1950    1.1270 nh        1 LG4     -0.923500
      8 C8          3.5300    0.0240    1.1650 c3        1 LG4     -0.039800
      9 H2          1.8150    0.3040   -0.9600 h4        1 LG4      0.019100
     10 H4          1.8810   -0.2800    3.3390 ha        1 LG4      0.135000
     11 H5         -0.6140   -0.2370    3.3090 ha        1 LG4      0.140000
     12 HN71       -2.5750   -0.3440    1.8310 hn        1 LG4      0.401800
     13 HN72       -2.5600    0.1400    0.2330 hn        1 LG4      0.401800
     14 H81         3.9120   -0.3610    0.1870 hc        1 LG4      0.042367
     15 H82         3.9150    1.0660    1.3040 hc        1 LG4      0.042367
     16 H83         3.9490   -0.6140    1.9830 hc        1 LG4      0.042367
@<TRIPOS>BOND
     1    1    2 ar  
     2    1    6 ar  
     3    2    3 ar  
     4    2    9 1   
     5    3    4 ar  
     6    3    8 1   
     7    4    5 ar  
     8    4   10 1   
     9    5    6 ar  
    10    5   11 1   
    11    6    7 1   
    12    7   12 1   
    13    7   13 1   
    14    8   14 1   
    15    8   15 1   
    16    8   16 1   
@<TRIPOS>SUBSTRUCTURE
     1 LG4         1 TEMP              0 ****  ****    0 ROOT
