@<TRIPOS>MOLECULE
LG4
   16    16     1     0     0
SMALL
bcc


@<TRIPOS>ATOM
      1 N1         -0.6970   -1.2110    0.0080 nb        1 LG4     -0.720000
      2 C2          0.6410   -1.1660   -0.0090 ca        1 LG4      0.434200
      3 C3          1.4070    0.0190   -0.0070 ca        1 LG4     -0.240600
      4 C4          0.7100    1.2320    0.0120 ca        1 LG4     -0.061000
      5 C5         -0.6790    1.2320    0.0360 ca        1 LG4     -0.295300
      6 C6         -1.3740   -0.0150    0.0480 ca        1 LG4      0.620200
      7 N7         -2.7710   -0.0230    0.1780 nh        1 LG4     -0.923500
      8 C8          2.8820   -0.0290   -0.0140 c3        1 LG4     -0.039800
      9 H2          1.1410   -2.1530   -0.0350 h4        1 LG4      0.019100
     10 H4          1.2600    2.1850    0.0080 ha        1 LG4      0.135000
     11 H5         -1.2340    2.1790    0.0570 ha        1 LG4      0.140000
     12 HN71       -3.2150    0.7570   -0.2510 hn        1 LG4      0.401800
     13 HN72       -3.2200   -0.8940   -0.0040 hn        1 LG4      0.401800
     14 H81         3.2730   -0.0230    1.0360 hc        1 LG4      0.042367
     15 H82         3.2500   -0.9580   -0.5170 hc        1 LG4      0.042367
     16 H83         3.3080    0.8550   -0.5490 hc        1 LG4      0.042367
@<TRIPOS>BOND
     1    1    2 ar  
     2    1    6 ar  
     3    2    3 ar  
     4    2    9 1   
     5    3    4 ar  
     6    3    8 1   
     7    4    5 ar  
     8    4   10 1   
     9    5    6 ar  
    10    5   11 1   
    11    6    7 1   
    12    7   12 1   
    13    7   13 1   
    14    8   14 1   
    15    8   15 1   
    16    8   16 1   
@<TRIPOS>SUBSTRUCTURE
     1 LG4         1 TEMP              0 ****  ****    0 ROOT
