@<TRIPOS>MOLECULE
LG4
   16    16     1     0     0
SMALL
bcc


@<TRIPOS>ATOM
      1 N1         -0.0530   -0.1900   -0.0320 nb        1 LG4     -0.720000
      2 C2          1.2850   -0.1790    0.0090 ca        1 LG4      0.434200
      3 C3          2.0530   -0.0130    1.1800 ca        1 LG4     -0.240600
      4 C4          1.3590    0.1550    2.3840 ca        1 LG4     -0.061000
      5 C5         -0.0300    0.1460    2.3890 ca        1 LG4     -0.295300
      6 C6         -0.7280   -0.0450    1.1570 ca        1 LG4      0.620200
      7 N7         -2.1260   -0.1600    1.1710 nv        1 LG4     -0.923500
      8 C8          3.5280   -0.0290    1.1300 c3        1 LG4     -0.039800
      9 H2          1.7820   -0.3060   -0.9710 h4        1 LG4      0.019100
     10 H4          1.9120    0.2960    3.3250 ha        1 LG4      0.135000
     11 H5         -0.5840    0.2710    3.3290 ha        1 LG4      0.140000
     12 HN71       -2.5750   -0.1050    0.2830 hn        1 LG4      0.401800
     13 HN72       -2.5650    0.3850    1.8790 hn        1 LG4      0.401800
     14 H81         3.9620    0.6250    1.9270 hc        1 LG4      0.042367
     15 H82         3.8990    0.3300    0.1380 hc        1 LG4      0.042367
     16 H83         3.9080   -1.0700    1.2880 hc        1 LG4      0.042367
@<TRIPOS>BOND
     1    1    2 ar  
     2    1    6 ar  
     3    2    3 ar  
     4    2    9 1   
     5    3    4 ar  
     6    3    8 1   
     7    4    5 ar  
     8    4   10 1   
     9    5    6 ar  
    10    5   11 1   
    11    6    7 1   
    12    7   12 1   
    13    7   13 1   
    14    8   14 1   
    15    8   15 1   
    16    8   16 1   
@<TRIPOS>SUBSTRUCTURE
     1 LG4         1 TEMP              0 ****  ****    0 ROOT
