@<TRIPOS>MOLECULE
LG4
   16    13     1     0     0
SMALL
bcc


@<TRIPOS>ATOM
      1 N1         -0.9610    0.0100   -1.3160 n1        1 LG4     -0.519800
      2 C2          0.4010    0.0100   -1.3160 c1        1 LG4      0.026500
      3 C3          1.0950    0.0100   -0.1160 c1        1 LG4     -0.141100
      4 C4          0.4120    0.0100    1.0660 c1        1 LG4     -0.088000
      5 C5         -0.9530    0.0100    1.0650 c1        1 LG4     -0.088000
      6 C6         -1.6440    0.0100   -0.1370 c1        1 LG4      0.480600
      7 N7         -3.0630    0.0150   -0.1380 n3        1 LG4     -0.786400
      8 C8          2.6070   -0.0270   -0.1160 c3        1 LG4     -0.074000
      9 H2          0.8890    0.0100   -2.1610 ha        1 LG4      0.098500
     10 H4          0.9000    0.0100    1.9120 ha        1 LG4      0.080000
     11 H5         -1.4420    0.0100    1.9100 ha        1 LG4      0.080000
     12 HN71       -3.5210   -0.7730   -0.1480 hn        1 LG4      0.401800
     13 HN72       -3.5160    0.8060   -0.1570 hn        1 LG4      0.401800
     14 H81         2.9250   -0.3310    0.7550 hc        1 LG4      0.042367
     15 H82         2.9170   -0.6420   -0.8080 hc        1 LG4      0.042367
     16 H83         2.9540    0.8670   -0.2960 hc        1 LG4      0.042367
@<TRIPOS>BOND
     1    1    6 3   
     2    2    3 3   
     3    2    9 1   
     4    3    8 1   
     5    4    5 3   
     6    4   10 1   
     7    5   11 1   
     8    6    7 1   
     9    7   12 1   
    10    7   13 1   
    11    8   14 1   
    12    8   15 1   
    13    8   16 1   
@<TRIPOS>SUBSTRUCTURE
     1 LG4         1 TEMP              0 ****  ****    0 ROOT
