@<TRIPOS>MOLECULE
LG4
   17    17     1     0     0
SMALL
bcc


@<TRIPOS>ATOM
      1 N1          0.0040    0.0420   -0.0730 nb        1 LG4     -0.640000
      2 C2          1.3370    0.0340   -0.0080 ca        1 LG4      0.427200
      3 C3          2.0710    0.0060    1.2120 ca        1 LG4     -0.104600
      4 C4          1.3490   -0.0110    2.4060 ca        1 LG4     -0.086000
      5 C5         -0.0520   -0.0030    2.3770 ca        1 LG4     -0.180300
      6 C6         -0.6730    0.0230    1.1150 ca        1 LG4      0.409200
      7 N7         -2.1490    0.0310    1.0230 n4        1 LG4     -0.812300
      8 C8          3.5460   -0.0100    1.1840 c3        1 LG4     -0.080800
      9 H2          1.8620    0.0510   -0.9850 h4        1 LG4      0.068100
     10 H4          1.8720   -0.0310    3.3780 ha        1 LG4      0.182000
     11 H5         -0.6220   -0.0170    3.3190 ha        1 LG4      0.168000
     12 HN71       -2.5460    0.0760    1.9660 hn        1 LG4      0.470800
     13 HN72       -2.4710   -0.8240    0.5530 hn        1 LG4      0.470800
     14 H81         3.9100   -1.0110    0.8350 hc        1 LG4      0.079367
     15 H82         3.9760    0.1860    2.1980 hc        1 LG4      0.079367
     16 H83         3.9350    0.7660    0.4770 hc        1 LG4      0.079367
     17 H73        -2.4610    0.8450    0.4780 hn        1 LG4      0.470800
@<TRIPOS>BOND
     1    1    2 ar  
     2    1    6 ar  
     3    2    3 ar  
     4    2    9 1   
     5    3    4 ar  
     6    3    8 1   
     7    4    5 ar  
     8    4   10 1   
     9    5    6 ar  
    10    5   11 1   
    11    6    7 1   
    12    7   12 1   
    13    7   13 1   
    14    7   17 1   
    15    8   14 1   
    16    8   15 1   
    17    8   16 1   
@<TRIPOS>SUBSTRUCTURE
     1 LG4         1 TEMP              0 ****  ****    0 ROOT
