@<TRIPOS>MOLECULE
LG5
   18    18     1     0     0
SMALL
bcc


@<TRIPOS>ATOM
      1 C1          0.0090    1.7780    0.0500 c2        1 LG5     -0.202200
      2 C2          1.2610    1.0460   -0.2970 c3        1 LG5      0.229000
      3 N3          1.1550   -0.4060   -0.3710 nh        1 LG5     -0.630400
      4 C4         -0.0910   -0.9930   -0.1310 c2        1 LG5     -0.012000
      5 C5         -1.2510   -0.2930    0.0910 ce        1 LG5     -0.004000
      6 C6         -1.1700    1.1600    0.2150 ce        1 LG5     -0.099000
      7 C7          2.2970   -1.1110    0.1600 c3        1 LG5      0.179100
      8 N8         -2.4960   -0.9270    0.2950 nh        1 LG5     -0.778600
      9 H1          0.1240    2.8640    0.1720 ha        1 LG5      0.133000
     10 H21         2.0630    1.3490    0.4410 h1        1 LG5      0.039200
     11 H22         1.6070    1.3870   -1.3190 h1        1 LG5      0.039200
     12 H4         -0.0820   -2.0970   -0.1850 h4        1 LG5      0.139000
     13 H6         -2.0860    1.7150    0.4700 ha        1 LG5      0.134000
     14 H71         2.4180   -0.9730    1.2690 h1        1 LG5      0.035367
     15 H72         2.1970   -2.2060   -0.0570 h1        1 LG5      0.035367
     16 H73         3.2180   -0.7230   -0.3500 h1        1 LG5      0.035367
     17 HN81       -3.2400   -0.4080   -0.1290 hn        1 LG5      0.363800
     18 HN82       -2.4940   -1.8700   -0.0380 hn        1 LG5      0.363800
@<TRIPOS>BOND
     1    1    2 1   
     2    1    6 2   
     3    1    9 1   
     4    2    3 1   
     5    2   10 1   
     6    2   11 1   
     7    3    4 1   
     8    3    7 1   
     9    4    5 2   
    10    4   12 1   
    11    5    6 1   
    12    5    8 1   
    13    6   13 1   
    14    7   14 1   
    15    7   15 1   
    16    7   16 1   
    17    8   17 1   
    18    8   18 1   
@<TRIPOS>SUBSTRUCTURE
     1 LG5         1 TEMP              0 ****  ****    0 ROOT
