@<TRIPOS>MOLECULE
LG5
   19    19     1     0     0
SMALL
bcc


@<TRIPOS>ATOM
      1 C1         -0.0680    0.0020    0.0210 c2        1 LG5     -0.166200
      2 C2          1.3360    0.4790    0.1970 c3        1 LG5      0.234000
      3 N3          1.9680    0.0540    1.4410 nh        1 LG5     -0.613400
      4 C4          1.3170   -0.7080    2.3430 c2        1 LG5      0.204000
      5 C5          0.0070   -1.1330    2.1430 ce        1 LG5     -0.289000
      6 C6         -0.6990   -0.7560    0.9310 ce        1 LG5     -0.102000
      7 C7          3.3250    0.4920    1.6520 c3        1 LG5      0.180100
      8 N8         -0.6830   -1.9510    3.1170 nz        1 LG5     -0.653400
      9 H1         -0.5500    0.3200   -0.9170 ha        1 LG5      0.173000
     10 H21         1.3530    1.6110    0.1660 h1        1 LG5      0.076700
     11 H22         1.9690    0.1030   -0.6630 h1        1 LG5      0.076700
     12 H4          1.8850   -0.9790    3.2590 h4        1 LG5      0.160000
     13 H6         -1.7340   -1.0970    0.7810 ha        1 LG5      0.148000
     14 H71         3.3570    1.6170    1.6470 h1        1 LG5      0.072033
     15 H72         3.9740    0.1060    0.8180 h1        1 LG5      0.072033
     16 H73         3.7220    0.1170    2.6310 h1        1 LG5      0.072033
     17 HN81       -0.9640   -2.8350    2.6770 hn        1 LG5      0.451800
     18 HN82       -1.5250   -1.4570    3.4360 hn        1 LG5      0.451800
     19 H83        -0.0820   -2.1480    3.9210 hn        1 LG5      0.451800
@<TRIPOS>BOND
     1    1    2 1   
     2    1    6 2   
     3    1    9 1   
     4    2    3 1   
     5    2   10 1   
     6    2   11 1   
     7    3    4 1   
     8    3    7 1   
     9    4    5 2   
    10    4   12 1   
    11    5    6 1   
    12    5    8 1   
    13    6   13 1   
    14    7   14 1   
    15    7   15 1   
    16    7   16 1   
    17    8   17 1   
    18    8   18 1   
    19    8   19 1   
@<TRIPOS>SUBSTRUCTURE
     1 LG5         1 TEMP              0 ****  ****    0 ROOT
