@<TRIPOS>MOLECULE
LG5
   19    19     1     0     0
SMALL
bcc


@<TRIPOS>ATOM
      1 C1         -0.0970    0.0200    0.0450 c2        1 LG5     -0.166200
      2 C2          1.3110    0.4930    0.1990 c3        1 LG5      0.234000
      3 N3          1.9660    0.0520    1.4260 nh        1 LG5     -0.613400
      4 C4          1.3320   -0.7190    2.3320 c2        1 LG5      0.204000
      5 C5          0.0180   -1.1410    2.1520 ce        1 LG5     -0.289000
      6 C6         -0.7110   -0.7480    0.9580 ce        1 LG5     -0.102000
      7 C7          3.3280    0.4870    1.6150 c3        1 LG5      0.180100
      8 N8         -0.6550   -1.9680    3.1300 n4        1 LG5     -0.653400
      9 H1         -0.5970    0.3500   -0.8790 ha        1 LG5      0.173000
     10 H21         1.3280    1.6250    0.1810 h1        1 LG5      0.076700
     11 H22         1.9260    0.1260   -0.6770 h1        1 LG5      0.076700
     12 H4          1.9170   -1.0020    3.2330 h4        1 LG5      0.160000
     13 H6         -1.7500   -1.0860    0.8250 ha        1 LG5      0.148000
     14 H71         3.9600    0.1080    0.7650 h1        1 LG5      0.072033
     15 H72         3.7430    0.1000    2.5820 h1        1 LG5      0.072033
     16 H73         3.3620    1.6110    1.6230 h1        1 LG5      0.072033
     17 HN81       -0.9480   -2.8460    2.6840 hn        1 LG5      0.451800
     18 HN82       -0.0370   -2.1780    3.9180 hn        1 LG5      0.451800
     19 H83        -1.4880   -1.4760    3.4730 hn        1 LG5      0.451800
@<TRIPOS>BOND
     1    1    2 1   
     2    1    6 2   
     3    1    9 1   
     4    2    3 1   
     5    2   10 1   
     6    2   11 1   
     7    3    4 1   
     8    3    7 1   
     9    4    5 2   
    10    4   12 1   
    11    5    6 1   
    12    5    8 1   
    13    6   13 1   
    14    7   14 1   
    15    7   15 1   
    16    7   16 1   
    17    8   17 1   
    18    8   18 1   
    19    8   19 1   
@<TRIPOS>SUBSTRUCTURE
     1 LG5         1 TEMP              0 ****  ****    0 ROOT
