@<TRIPOS>MOLECULE
LG5
   19    19     1     0     0
SMALL
bcc


@<TRIPOS>ATOM
      1 C1          0.0410   -0.2460   -0.1050 c2        1 LG5     -0.166200
      2 C2          1.3880    0.3550    0.1240 c3        1 LG5      0.234000
      3 N3          1.9470    0.1000    1.4480 nh        1 LG5     -0.613400
      4 C4          1.2820   -0.6210    2.3720 c2        1 LG5      0.204000
      5 C5          0.0260   -1.1660    2.1210 ce        1 LG5     -0.289000
      6 C6         -0.6050   -0.9620    0.8280 ce        1 LG5     -0.102000
      7 C7          3.2480    0.6630    1.7120 c3        1 LG5      0.180100
      8 N8         -0.6800   -1.9390    3.1190 n4        1 LG5     -0.653400
      9 H1         -0.3860   -0.0580   -1.1030 ha        1 LG5      0.173000
     10 H21         2.1140   -0.0510   -0.6450 h1        1 LG5      0.076700
     11 H22         1.3260    1.4760   -0.0190 h1        1 LG5      0.076700
     12 H4          1.7920   -0.7590    3.3500 h4        1 LG5      0.160000
     13 H6         -1.5980   -1.3970    0.6380 ha        1 LG5      0.148000
     14 H71         3.1990    1.7810    1.5980 h1        1 LG5      0.072033
     15 H72         3.9870    0.2530    0.9710 h1        1 LG5      0.072033
     16 H73         3.5910    0.4150    2.7500 h1        1 LG5      0.072033
     17 HN81       -1.5790   -1.4860    3.3230 hn        1 LG5      0.451800
     18 HN82       -0.1340   -2.0110    3.9810 hn        1 LG5      0.451800
     19 H83        -0.8600   -2.8810    2.7510 hn        1 LG5      0.451800
@<TRIPOS>BOND
     1    1    2 1   
     2    1    6 2   
     3    1    9 1   
     4    2    3 1   
     5    2   10 1   
     6    2   11 1   
     7    3    4 1   
     8    3    7 1   
     9    4    5 2   
    10    4   12 1   
    11    5    6 1   
    12    5    8 1   
    13    6   13 1   
    14    7   14 1   
    15    7   15 1   
    16    7   16 1   
    17    8   17 1   
    18    8   18 1   
    19    8   19 1   
@<TRIPOS>SUBSTRUCTURE
     1 LG5         1 TEMP              0 ****  ****    0 ROOT
