@<TRIPOS>MOLECULE
LG5
   18    16     1     0     0
SMALL
bcc


@<TRIPOS>ATOM
      1 C1         -1.1640    0.5070   -1.3970 c1        1 LG5     -0.091000
      2 C2          0.3260    0.5070   -1.3970 c2        1 LG5      0.301100
      3 N3          0.8860    0.5070   -0.0630 nh        1 LG5     -0.240300
      4 C4          0.4700   -0.4730    0.8340 c2        1 LG5     -0.184200
      5 C5         -0.9920   -0.8630    0.8120 c1        1 LG5     -0.022900
      6 C6         -1.8620   -0.2760   -0.3020 c1        1 LG5     -0.091000
      7 C7          2.0360    1.2960    0.2260 c3        1 LG5      0.001600
      8 N8         -1.4330   -2.0040    1.5300 n3        1 LG5     -0.386400
      9 H1         -1.6520    1.1900   -1.8960 ha        1 LG5      0.076000
     10 H21         0.7560   -0.1610   -1.9620 h4        1 LG5     -0.050700
     11 H22         0.6010    1.3230   -1.8580 h4        1 LG5     -0.050700
     12 H4          1.1260   -1.0640    1.2500 h4        1 LG5      0.139000
     13 H6         -2.8240   -0.1790   -0.1690 ha        1 LG5      0.076000
     14 H71         1.8290    2.2390    0.0800 h1        1 LG5      0.035367
     15 H72         2.7690    1.0290   -0.3590 h1        1 LG5      0.035367
     16 H73         2.2970    1.1610    1.1570 h1        1 LG5      0.035367
     17 HN81       -1.4000   -2.8280    1.1410 hn        1 LG5      0.208700
     18 HN82       -1.7700   -1.9110    2.3720 hn        1 LG5      0.208700
@<TRIPOS>BOND
     1    1    6 3   
     2    1    9 1   
     3    2    3 2   
     4    2   10 1   
     5    2   11 1   
     6    3    4 1   
     7    3    7 1   
     8    4    5 2   
     9    4   12 1   
    10    5    8 2   
    11    6   13 1   
    12    7   14 1   
    13    7   15 1   
    14    7   16 1   
    15    8   17 1   
    16    8   18 1   
@<TRIPOS>SUBSTRUCTURE
     1 LG5         1 TEMP              0 ****  ****    0 ROOT
