@<TRIPOS>MOLECULE
LG6
   27    26     1     0     0
SMALL
bcc


@<TRIPOS>ATOM
      1 C1          1.5090   -0.0340    0.0300 c3        1 LG6     -0.006900
      2 O2A        -0.3940   -0.4750    1.4430 o         1 LG6     -0.861300
      3 C2         -0.0100   -0.1590    0.2760 c         1 LG6      0.882600
      4 O2B        -0.8150    0.0740   -0.6740 o         1 LG6     -0.861300
      5 O1          2.2080   -0.0340    1.2650 oh        1 LG6     -0.623800
      6 C3          2.0540   -1.1500   -0.8860 c3        1 LG6      0.114100
      7 O3          1.4130   -1.1310   -2.1530 oh        1 LG6     -0.625800
      8 C4          3.5720   -0.9860   -1.1390 c3        1 LG6      0.135100
      9 C5          4.2500   -2.2970   -1.6030 c3        1 LG6      0.101100
     10 O4          3.7840    0.0750   -2.0530 oh        1 LG6     -0.622800
     11 C6          5.5560   -2.5650   -0.8140 c3        1 LG6      0.199400
     12 O5          4.4870   -2.2110   -2.9940 oh        1 LG6     -0.685800
     13 P           7.5940   -3.7940   -1.9200 p5        1 LG6      1.323900
     14 O6          6.0660   -3.8050   -1.1110 os        1 LG6     -0.575200
     15 O1P         8.4650   -2.9850   -0.9960 o         1 LG6     -0.933167
     16 O2P         7.9360   -5.2540   -2.0370 o         1 LG6     -0.933167
     17 O3P         7.2040   -3.0950   -3.2040 o         1 LG6     -0.933167
     18 H1          1.7380    0.9580   -0.4460 h1        1 LG6      0.062700
     19 HO1         1.6880   -0.5780    1.8750 ho        1 LG6      0.408000
     20 H3          1.8600   -2.1460   -0.3980 h1        1 LG6      0.024700
     21 HO3         0.5010   -0.8350   -2.0120 ho        1 LG6      0.420000
     22 H4          4.0400   -0.6320   -0.1760 h1        1 LG6      0.067700
     23 H5          3.5400   -3.1560   -1.4400 h1        1 LG6      0.018700
     24 HO4         3.6370   -0.2920   -2.9360 ho        1 LG6      0.420000
     25 H61         6.3010   -1.7530   -1.0490 h1        1 LG6     -0.003800
     26 H62         5.2950   -2.5150    0.2850 h1        1 LG6     -0.003800
     27 HO5         5.4170   -2.5190   -3.1540 ho        1 LG6      0.494000
@<TRIPOS>BOND
     1    1    3 1   
     2    1    5 1   
     3    1    6 1   
     4    1   18 1   
     5    2    3 1   
     6    3    4 1   
     7    5   19 1   
     8    6    7 1   
     9    6    8 1   
    10    6   20 1   
    11    7   21 1   
    12    8    9 1   
    13    8   10 1   
    14    8   22 1   
    15    9   11 1   
    16    9   12 1   
    17    9   23 1   
    18   10   24 1   
    19   11   14 1   
    20   11   25 1   
    21   11   26 1   
    22   12   27 1   
    23   13   14 1   
    24   13   15 1   
    25   13   16 1   
    26   13   17 1   
@<TRIPOS>SUBSTRUCTURE
     1 LG6         1 TEMP              0 ****  ****    0 ROOT
