@<TRIPOS>MOLECULE
LG6
   27    26     1     0     0
SMALL
bcc


@<TRIPOS>ATOM
      1 C1         -0.7970   -0.0670    3.2990 c3        1 LG6     -0.008900
      2 O2A        -0.6140    1.0200    5.4420 o         1 LG6     -0.861300
      3 C2         -0.2280    0.0400    4.7320 c         1 LG6      0.897600
      4 O2B         0.5500   -0.8620    5.1540 o         1 LG6     -0.861300
      5 O1         -1.9210    0.7860    3.1450 oh        1 LG6     -0.633800
      6 C3          0.2390    0.2490    2.1980 c3        1 LG6      0.118100
      7 O3          1.5520   -0.0890    2.6100 oh        1 LG6     -0.613800
      8 C4         -0.1100   -0.4940    0.8840 c3        1 LG6      0.109100
      9 C5          0.3630    0.2490   -0.3870 c3        1 LG6      0.101100
     10 O4          0.4150   -1.8100    0.9650 oh        1 LG6     -0.634800
     11 C6         -0.6990    0.1640   -1.5120 c3        1 LG6      0.199400
     12 O5          1.6010   -0.3000   -0.7950 oh        1 LG6     -0.687800
     13 P          -0.0080    0.0710   -4.0420 p5        1 LG6      1.323900
     14 O6         -0.3410    0.9420   -2.5860 os        1 LG6     -0.574200
     15 O1P        -1.2650   -0.7260   -4.2590 o         1 LG6     -0.932500
     16 O2P         0.2670    1.1580   -5.0440 o         1 LG6     -0.932500
     17 O3P         1.1890   -0.7350   -3.5870 o         1 LG6     -0.932500
     18 H1         -1.1860   -1.1110    3.1450 h1        1 LG6      0.056700
     19 HO1        -1.7940    1.5210    3.7640 ho        1 LG6      0.409000
     20 H3          0.2650    1.3580    2.0150 h1        1 LG6      0.056700
     21 HO3         1.4860   -0.9210    3.0990 ho        1 LG6      0.418000
     22 H4         -1.2270   -0.6290    0.8390 h1        1 LG6      0.055700
     23 H5          0.5430    1.3310   -0.1360 h1        1 LG6      0.018700
     24 HO4         1.3190   -1.7710    0.6210 ho        1 LG6      0.422000
     25 H61        -0.8270   -0.9130   -1.8160 h1        1 LG6     -0.003300
     26 H62        -1.6730    0.5410   -1.0780 h1        1 LG6     -0.003300
     27 HO5         1.5480   -0.4540   -1.7740 ho        1 LG6      0.496000
@<TRIPOS>BOND
     1    1    3 1   
     2    1    5 1   
     3    1    6 1   
     4    1   18 1   
     5    2    3 1   
     6    3    4 1   
     7    5   19 1   
     8    6    7 1   
     9    6    8 1   
    10    6   20 1   
    11    7   21 1   
    12    8    9 1   
    13    8   10 1   
    14    8   22 1   
    15    9   11 1   
    16    9   12 1   
    17    9   23 1   
    18   10   24 1   
    19   11   14 1   
    20   11   25 1   
    21   11   26 1   
    22   12   27 1   
    23   13   14 1   
    24   13   15 1   
    25   13   16 1   
    26   13   17 1   
@<TRIPOS>SUBSTRUCTURE
     1 LG6         1 TEMP              0 ****  ****    0 ROOT
