@<TRIPOS>MOLECULE
LG6
   27    26     1     0     0
SMALL
bcc


@<TRIPOS>ATOM
      1 C1          1.5080   -0.0310    0.0310 c3        1 LG6     -0.006900
      2 O2A        -0.4070   -0.4730    1.4280 o         1 LG6     -0.861300
      3 C2         -0.0130   -0.1490    0.2660 c         1 LG6      0.882600
      4 O2B        -0.8100    0.0970   -0.6880 o         1 LG6     -0.861300
      5 O1          2.1990   -0.0460    1.2710 oh        1 LG6     -0.623800
      6 C3          2.0530   -1.1420   -0.8910 c3        1 LG6      0.114100
      7 O3          1.4200   -1.1070   -2.1630 oh        1 LG6     -0.625800
      8 C4          3.5740   -0.9840   -1.1330 c3        1 LG6      0.135100
      9 C5          4.2460   -2.2950   -1.6050 c3        1 LG6      0.101100
     10 O4          3.7970    0.0850   -2.0350 oh        1 LG6     -0.622800
     11 C6          5.5450   -2.5780   -0.8090 c3        1 LG6      0.199400
     12 O5          4.4940   -2.1960   -2.9930 oh        1 LG6     -0.685800
     13 P           7.5840   -3.8090   -1.9120 p5        1 LG6      1.323900
     14 O6          6.0500   -3.8180   -1.1150 os        1 LG6     -0.575200
     15 O1P         8.4520   -3.0150   -0.9740 o         1 LG6     -0.933167
     16 O2P         7.9170   -5.2700   -2.0420 o         1 LG6     -0.933167
     17 O3P         7.2070   -3.0960   -3.1920 o         1 LG6     -0.933167
     18 H1          1.7460    0.9650   -0.4340 h1        1 LG6      0.062700
     19 HO1         1.6720   -0.5920    1.8730 ho        1 LG6      0.408000
     20 H3          1.8500   -2.1400   -0.4140 h1        1 LG6      0.024700
     21 HO3         0.5090   -0.8070   -2.0240 ho        1 LG6      0.420000
     22 H4          4.0370   -0.6430   -0.1630 h1        1 LG6      0.067700
     23 H5          3.5300   -3.1510   -1.4550 h1        1 LG6      0.018700
     24 HO4         3.6540   -0.2740   -2.9220 ho        1 LG6      0.420000
     25 H61         6.2960   -1.7690   -1.0300 h1        1 LG6     -0.003800
     26 H62         5.2760   -2.5380    0.2890 h1        1 LG6     -0.003800
     27 HO5         5.4230   -2.5090   -3.1500 ho        1 LG6      0.494000
@<TRIPOS>BOND
     1    1    3 1   
     2    1    5 1   
     3    1    6 1   
     4    1   18 1   
     5    2    3 1   
     6    3    4 1   
     7    5   19 1   
     8    6    7 1   
     9    6    8 1   
    10    6   20 1   
    11    7   21 1   
    12    8    9 1   
    13    8   10 1   
    14    8   22 1   
    15    9   11 1   
    16    9   12 1   
    17    9   23 1   
    18   10   24 1   
    19   11   14 1   
    20   11   25 1   
    21   11   26 1   
    22   12   27 1   
    23   13   14 1   
    24   13   15 1   
    25   13   16 1   
    26   13   17 1   
@<TRIPOS>SUBSTRUCTURE
     1 LG6         1 TEMP              0 ****  ****    0 ROOT
