@<TRIPOS>MOLECULE
LG6
   27    25     1     0     0
SMALL
bcc


@<TRIPOS>ATOM
      1 C1         -2.1050    1.6190    0.8990 c3        1 LG6     -0.070000
      2 O2A        -4.4750    1.6450    0.7080 o         1 LG6     -0.594000
      3 C2         -3.3950    2.1680    0.3750 c2        1 LG6      0.316000
      4 O2B        -3.3920    3.1930   -0.3360 o         1 LG6     -0.594000
      5 O1         -2.3000    1.1150    2.1850 oh        1 LG6     -0.357000
      6 C3         -1.6170    0.4940   -0.0210 c3        1 LG6      0.006000
      7 O3         -2.1840    0.6400   -1.2560 oh        1 LG6     -0.344000
      8 C4         -0.1110    0.5640   -0.1480 c3        1 LG6      0.004000
      9 C5          0.4300   -0.7850   -0.5010 c3        1 LG6     -0.020000
     10 O4          0.2390    1.5070   -1.1810 oh        1 LG6     -0.355000
     11 C6          1.8720   -0.9120    0.0210 c3        1 LG6      0.041000
     12 O5          0.4250   -0.9410   -1.8950 oh        1 LG6     -0.386000
     13 P           3.8800   -2.5060    0.0410 p3        1 LG6      2.513000
     14 O6          2.4320   -2.1190   -0.4360 o         1 LG6     -0.740000
     15 O1P         4.2520   -3.8270   -0.5280 o         1 LG6     -1.255000
     16 O2P         4.8390   -1.4870   -0.4190 o         1 LG6     -1.255000
     17 O3P         3.9100   -2.5810    1.5420 o         1 LG6     -1.255000
     18 H1         -1.4500    2.3170    0.9260 h1        1 LG6      0.092000
     19 HO1        -2.1380    1.7560    2.7840 ho        1 LG6      0.209000
     20 H3         -1.8810   -0.3900    0.3640 h1        1 LG6      0.102000
     21 HO3        -2.6000   -0.1150   -1.4840 ho        1 LG6      0.219000
     22 H4          0.2770    0.8580    0.7100 h1        1 LG6      0.104000
     23 H5         -0.1380   -1.4930   -0.0840 h1        1 LG6      0.070000
     24 HO4         0.8060    2.1070   -0.8550 ho        1 LG6      0.213000
     25 H61         1.8670   -0.9040    1.0110 h1        1 LG6      0.047500
     26 H62         2.4180   -0.1410   -0.3160 h1        1 LG6      0.047500
     27 HO5         0.1400   -1.7810   -2.1080 ho        1 LG6      0.243000
@<TRIPOS>BOND
     1    1    3 1   
     2    1    5 1   
     3    1    6 1   
     4    1   18 1   
     5    2    3 1   
     6    3    4 1   
     7    5   19 1   
     8    6    7 1   
     9    6    8 1   
    10    6   20 1   
    11    7   21 1   
    12    8    9 1   
    13    8   10 1   
    14    8   22 1   
    15    9   11 1   
    16    9   12 1   
    17    9   23 1   
    18   10   24 1   
    19   11   14 1   
    20   11   25 1   
    21   11   26 1   
    22   12   27 1   
    23   13   15 1   
    24   13   16 1   
    25   13   17 1   
@<TRIPOS>SUBSTRUCTURE
     1 LG6         1 TEMP              0 ****  ****    0 ROOT
