@<TRIPOS>MOLECULE
LG7
   36    39     1     0     0
SMALL
bcc


@<TRIPOS>ATOM
      1 C13         0.0420    0.4260   -0.0360 ca        1 LG7     -0.134000
      2 C18         3.5000   -0.6410    3.5280 ca        1 LG7     -0.112000
      3 C17         2.1760   -0.2820    3.5590 ca        1 LG7     -0.126000
      4 C16         1.4540   -0.0520    2.3550 ca        1 LG7     -0.001000
      5 C15         0.0820    0.3440    2.3830 ca        1 LG7     -0.011000
      6 C19         4.1630   -0.7880    2.2880 ca        1 LG7     -0.127000
      7 C20         3.4900   -0.5790    1.1100 ca        1 LG7     -0.103000
      8 C21         2.1150   -0.2090    1.1080 ca        1 LG7     -0.033000
      9 C22        -0.5870    0.5000    3.6280 cg        1 LG7      0.237800
     10 C12         1.3730    0.0250   -0.1050 ca        1 LG7      0.099600
     11 O1          5.2000   -0.8550   -2.0050 oh        1 LG7     -0.597800
     12 C2          4.7110   -0.8360   -3.3350 c3        1 LG7      0.139100
     13 C3          5.0090    0.5110   -4.0160 c3        1 LG7     -0.140400
     14 C4          3.6610    1.2360   -4.1710 c3        1 LG7      0.045000
     15 N5          2.6070    0.4120   -3.5850 n         1 LG7     -0.359800
     16 C6          3.1650   -0.9280   -3.2680 c3        1 LG7     -0.044300
     17 C7          2.6260   -1.2890   -1.8660 c         1 LG7      0.726500
     18 O8          2.6970   -2.3860   -1.3180 o         1 LG7     -0.544500
     19 N9          1.9850   -0.1270   -1.3690 n         1 LG7     -0.438600
     20 C10         2.0040    0.9080   -2.3620 c         1 LG7      0.769500
     21 O11         1.5170    2.0360   -2.2190 o         1 LG7     -0.573500
     22 C14        -0.5990    0.5840    1.2060 ca        1 LG7     -0.072000
     23 N23        -1.1500    0.6310    4.6380 n1        1 LG7     -0.366800
     24 H13        -0.5270    0.6470   -0.9540 ha        1 LG7      0.156000
     25 H18         4.0560   -0.8190    4.4610 ha        1 LG7      0.137000
     26 H17         1.6520   -0.1670    4.5210 ha        1 LG7      0.145000
     27 H19         5.2260   -1.0750    2.2790 ha        1 LG7      0.136000
     28 H20         4.0240   -0.7110    0.1530 ha        1 LG7      0.153000
     29 HO1         6.1580   -0.9610   -2.0570 ho        1 LG7      0.416000
     30 H2          5.1280   -1.7000   -3.9160 h1        1 LG7      0.063700
     31 H31         5.7100    1.1150   -3.3890 hc        1 LG7      0.067700
     32 H32         5.4780    0.3490   -5.0160 hc        1 LG7      0.067700
     33 H41         3.4030    1.3580   -5.2590 h1        1 LG7      0.077700
     34 H42         3.6870    2.2560   -3.7000 h1        1 LG7      0.077700
     35 H6          2.7830   -1.6700   -4.0190 h1        1 LG7      0.118700
     36 H14        -1.6540    0.9010    1.2220 ha        1 LG7      0.150000
@<TRIPOS>BOND
     1    1   10 ar  
     2    1   22 ar  
     3    1   24 1   
     4    2    3 ar  
     5    2    6 ar  
     6    2   25 1   
     7    3    4 ar  
     8    3   26 1   
     9    4    5 ar  
    10    4    8 ar  
    11    5    9 1   
    12    5   22 ar  
    13    6    7 ar  
    14    6   27 1   
    15    7    8 ar  
    16    7   28 1   
    17    8   10 ar  
    18    9   23 3   
    19   10   19 1   
    20   11   12 1   
    21   11   29 1   
    22   12   13 1   
    23   12   16 1   
    24   12   30 1   
    25   13   14 1   
    26   13   31 1   
    27   13   32 1   
    28   14   15 1   
    29   14   33 1   
    30   14   34 1   
    31   15   16 1   
    32   15   20 1   
    33   16   17 1   
    34   16   35 1   
    35   17   18 2   
    36   17   19 1   
    37   19   20 1   
    38   20   21 2   
    39   22   36 1   
@<TRIPOS>SUBSTRUCTURE
     1 LG7         1 TEMP              0 ****  ****    0 ROOT
