@<TRIPOS>MOLECULE
LG7
   36    39     1     0     0
SMALL
bcc


@<TRIPOS>ATOM
      1 C13         0.0220    0.2860   -0.0400 ca        1 LG7     -0.126000
      2 C18         3.6350   -0.3720    3.4710 ca        1 LG7     -0.112000
      3 C17         2.2830   -0.1390    3.5240 ca        1 LG7     -0.123000
      4 C16         1.5190   -0.0040    2.3310 ca        1 LG7     -0.003000
      5 C15         0.1160    0.2580    2.3790 ca        1 LG7     -0.005000
      6 C19         4.2850   -0.4830    2.2200 ca        1 LG7     -0.121000
      7 C20         3.5710   -0.3640    1.0530 ca        1 LG7     -0.108000
      8 C21         2.1680   -0.1220    1.0730 ca        1 LG7     -0.031000
      9 C22        -0.5420    0.3730    3.6350 cg        1 LG7      0.235800
     10 C12         1.3830    0.0180   -0.1270 ca        1 LG7      0.092600
     11 O1          5.3480   -0.9600   -2.1240 oh        1 LG7     -0.596800
     12 C2          4.7460   -0.7750   -3.3890 c3        1 LG7      0.145100
     13 C3          5.0870    0.6470   -3.8610 c3        1 LG7     -0.107400
     14 C4          3.7500    1.3780   -4.0660 c3        1 LG7      0.038000
     15 N5          2.6590    0.5320   -3.5840 n         1 LG7     -0.351800
     16 C6          3.1960   -0.8250   -3.3110 c3        1 LG7     -0.087300
     17 C7          2.6860   -1.2110   -1.9050 c         1 LG7      0.711500
     18 O8          2.8640   -2.2970   -1.3510 o         1 LG7     -0.570500
     19 N9          1.9860   -0.0950   -1.4010 n         1 LG7     -0.436600
     20 C10         2.0050    0.9720   -2.3650 c         1 LG7      0.767500
     21 O11         1.4780    2.0780   -2.1970 o         1 LG7     -0.563500
     22 C14        -0.6080    0.4050    1.2130 ca        1 LG7     -0.075000
     23 N23        -1.0950    0.4700    4.6550 n1        1 LG7     -0.362800
     24 H13        -0.5850    0.4290   -0.9490 ha        1 LG7      0.155000
     25 H18         4.2230   -0.4740    4.3950 ha        1 LG7      0.139000
     26 H17         1.7700   -0.0530    4.4950 ha        1 LG7      0.146000
     27 H19         5.3690   -0.6670    2.1930 ha        1 LG7      0.139000
     28 H20         4.0960   -0.4670    0.0880 ha        1 LG7      0.144000
     29 HO1         5.1770   -1.8740   -1.8530 ho        1 LG7      0.424000
     30 H2          5.1130   -1.5530   -4.1110 h1        1 LG7      0.061700
     31 H31         5.6650    0.6110   -4.8160 hc        1 LG7      0.076700
     32 H32         5.7120    1.1650   -3.0900 hc        1 LG7      0.076700
     33 H41         3.7470    2.3780   -3.5540 h1        1 LG7      0.078700
     34 H42         3.5590    1.5460   -5.1630 h1        1 LG7      0.078700
     35 H6          2.7750   -1.5370   -4.0710 h1        1 LG7      0.117700
     36 H14        -1.6890    0.6170    1.2460 ha        1 LG7      0.151000
@<TRIPOS>BOND
     1    1   10 ar  
     2    1   22 ar  
     3    1   24 1   
     4    2    3 ar  
     5    2    6 ar  
     6    2   25 1   
     7    3    4 ar  
     8    3   26 1   
     9    4    5 ar  
    10    4    8 ar  
    11    5    9 1   
    12    5   22 ar  
    13    6    7 ar  
    14    6   27 1   
    15    7    8 ar  
    16    7   28 1   
    17    8   10 ar  
    18    9   23 3   
    19   10   19 1   
    20   11   12 1   
    21   11   29 1   
    22   12   13 1   
    23   12   16 1   
    24   12   30 1   
    25   13   14 1   
    26   13   31 1   
    27   13   32 1   
    28   14   15 1   
    29   14   33 1   
    30   14   34 1   
    31   15   16 1   
    32   15   20 1   
    33   16   17 1   
    34   16   35 1   
    35   17   18 2   
    36   17   19 1   
    37   19   20 1   
    38   20   21 2   
    39   22   36 1   
@<TRIPOS>SUBSTRUCTURE
     1 LG7         1 TEMP              0 ****  ****    0 ROOT
