@<TRIPOS>MOLECULE
LG7
   36    34     1     0     0
SMALL
bcc


@<TRIPOS>ATOM
      1 C13        -1.8130   -0.2570    0.9000 c1        1 LG7     -0.111750
      2 C18         1.7250   -0.3910    4.4970 c1        1 LG7     -0.111750
      3 C17         0.3330   -0.4210    4.5090 c1        1 LG7     -0.126000
      4 C16        -0.3820   -0.3740    3.2990 c1        1 LG7     -0.001000
      5 C15        -1.7900   -0.3930    3.3100 c1        1 LG7     -0.007000
      6 C19         2.4080   -0.3130    3.2890 c1        1 LG7     -0.111750
      7 C20         1.7020   -0.2670    2.0910 c1        1 LG7     -0.099000
      8 C21         0.2950   -0.2980    2.1020 c1        1 LG7     -0.030000
      9 C22        -2.7130   -0.3660    4.5220 c1        1 LG7     -0.092000
     10 C12        -0.4230   -0.2380    0.8880 c1        1 LG7      0.107000
     11 O1         -1.4000    1.1910   -3.3400 oh        1 LG7     -0.320000
     12 C2         -0.0040    1.2990   -3.6630 c3        1 LG7      0.028000
     13 C3          0.2730    0.5610   -4.7050 c3        1 LG7     -0.219000
     14 C4          0.7210   -0.8570   -4.0860 c3        1 LG7     -0.070000
     15 N5          0.9240   -0.5870   -2.5420 n         1 LG7     -0.222000
     16 C6          0.9100    0.7120   -2.4200 c3        1 LG7     -0.069000
     17 C7          0.2900    1.0540   -1.1120 c2        1 LG7      0.332000
     18 O8          0.1270    2.1790   -0.6670 o         1 LG7     -0.271000
     19 N9          0.0070   -0.1140   -0.4650 n         1 LG7     -0.310000
     20 C10         0.3560   -1.1650   -1.3130 c2        1 LG7      0.360000
     21 O11         0.2090   -2.3440   -1.0830 o         1 LG7     -0.297000
     22 C14        -2.4980   -0.3340    2.1090 c1        1 LG7     -0.111750
     23 N23        -3.4080   -0.3460    5.4330 n1        1 LG7     -0.041000
     24 H13        -2.3120   -0.2160    0.0560 ha        1 LG7      0.145750
     25 H18         2.2230   -0.4230    5.3400 ha        1 LG7      0.145750
     26 H17        -0.1510   -0.4770    5.3650 ha        1 LG7      0.145000
     27 H19         3.3920   -0.2910    3.2810 ha        1 LG7      0.145750
     28 H20         2.1830   -0.2130    1.2420 ha        1 LG7      0.143000
     29 HO1        -1.8250    1.9340   -3.6040 ho        1 LG7      0.215000
     30 H2          0.2310    2.2350   -3.8410 h1        1 LG7      0.102000
     31 H31         1.0490    0.9550   -5.1650 hc        1 LG7      0.107000
     32 H32        -0.5570    0.4250   -5.2150 hc        1 LG7      0.107000
     33 H41        -0.0270   -1.4860   -4.1890 h1        1 LG7      0.117000
     34 H42         1.5930   -1.0970   -4.4710 h1        1 LG7      0.117000
     35 H6          1.8240    1.0690   -2.4690 h1        1 LG7      0.157000
     36 H14        -3.4700   -0.3470    2.1170 ha        1 LG7      0.145750
@<TRIPOS>BOND
     1    1   22 1   
     2    1   24 1   
     3    2    6 1   
     4    2   25 1   
     5    3    4 1   
     6    3   26 1   
     7    4    5 1   
     8    5    9 1   
     9    6   27 1   
    10    7    8 1   
    11    7   28 1   
    12    8   10 1   
    13    9   23 1   
    14   10   19 1   
    15   11   12 1   
    16   11   29 1   
    17   12   13 1   
    18   12   16 1   
    19   12   30 1   
    20   13   14 1   
    21   13   31 1   
    22   13   32 1   
    23   14   15 1   
    24   14   33 1   
    25   14   34 1   
    26   15   16 1   
    27   15   20 1   
    28   16   17 1   
    29   16   35 1   
    30   17   18 1   
    31   17   19 1   
    32   19   20 1   
    33   20   21 1   
    34   22   36 1   
@<TRIPOS>SUBSTRUCTURE
     1 LG7         1 TEMP              0 ****  ****    0 ROOT
