@<TRIPOS>MOLECULE
LG7
   36    39     1     0     0
SMALL
bcc


@<TRIPOS>ATOM
      1 C13         5.4680    2.6710    3.4550 ca        1 LG7     -0.136000
      2 C18         3.4950    7.0470    5.1150 ca        1 LG7     -0.112000
      3 C17         4.7010    6.4160    5.2890 ca        1 LG7     -0.123000
      4 C16         4.9650    5.1630    4.6680 ca        1 LG7     -0.002000
      5 C15         6.2130    4.4950    4.8590 ca        1 LG7     -0.009000
      6 C19         2.4970    6.4550    4.3080 ca        1 LG7     -0.121000
      7 C20         2.7270    5.2490    3.6930 ca        1 LG7     -0.106000
      8 C21         3.9650    4.5660    3.8530 ca        1 LG7     -0.030000
      9 C22         7.2180    5.0890    5.6710 cg        1 LG7      0.235800
     10 C12         4.2440    3.2940    3.2350 ca        1 LG7      0.092600
     11 O1         -0.0180    3.4530    1.6400 oh        1 LG7     -0.575800
     12 C2          0.2580    2.3300    0.8360 c3        1 LG7      0.142100
     13 C3         -0.3130    1.0290    1.4270 c3        1 LG7     -0.144400
     14 C4          0.8850    0.1310    1.7760 c3        1 LG7      0.036000
     15 N5          2.1210    0.8370    1.4480 n         1 LG7     -0.359800
     16 C6          1.7800    2.0620    0.6780 c3        1 LG7     -0.084300
     17 C7          2.6750    3.1800    1.2520 c         1 LG7      0.705500
     18 O8          2.8550    4.2940    0.7690 o         1 LG7     -0.531500
     19 N9          3.2730    2.6560    2.4290 n         1 LG7     -0.444600
     20 C10         2.9390    1.2650    2.5650 c         1 LG7      0.758500
     21 O11         3.3330    0.5310    3.4800 o         1 LG7     -0.569500
     22 C14         6.4480    3.2720    4.2660 ca        1 LG7     -0.071000
     23 N23         8.0520    5.5620    6.3320 n1        1 LG7     -0.362800
     24 H13         5.6820    1.6810    3.0180 ha        1 LG7      0.157000
     25 H18         3.2940    8.0160    5.5970 ha        1 LG7      0.140000
     26 H17         5.4840    6.8730    5.9130 ha        1 LG7      0.146000
     27 H19         1.5360    6.9750    4.1730 ha        1 LG7      0.140000
     28 H20         1.9430    4.8170    3.0500 ha        1 LG7      0.137000
     29 HO1         0.2760    3.2600    2.5400 ho        1 LG7      0.403000
     30 H2         -0.1990    2.5840   -0.1590 h1        1 LG7      0.106700
     31 H31        -0.9710    0.5220    0.6800 hc        1 LG7      0.072700
     32 H32        -0.9270    1.2490    2.3340 hc        1 LG7      0.072700
     33 H41         0.8690   -0.1790    2.8570 h1        1 LG7      0.079700
     34 H42         0.8750   -0.8020    1.1470 h1        1 LG7      0.079700
     35 H6          2.0410    1.8950   -0.4020 h1        1 LG7      0.123700
     36 H14         7.4060    2.7480    4.4160 ha        1 LG7      0.151000
@<TRIPOS>BOND
     1    1   10 ar  
     2    1   22 ar  
     3    1   24 1   
     4    2    3 ar  
     5    2    6 ar  
     6    2   25 1   
     7    3    4 ar  
     8    3   26 1   
     9    4    5 ar  
    10    4    8 ar  
    11    5    9 1   
    12    5   22 ar  
    13    6    7 ar  
    14    6   27 1   
    15    7    8 ar  
    16    7   28 1   
    17    8   10 ar  
    18    9   23 3   
    19   10   19 1   
    20   11   12 1   
    21   11   29 1   
    22   12   13 1   
    23   12   16 1   
    24   12   30 1   
    25   13   14 1   
    26   13   31 1   
    27   13   32 1   
    28   14   15 1   
    29   14   33 1   
    30   14   34 1   
    31   15   16 1   
    32   15   20 1   
    33   16   17 1   
    34   16   35 1   
    35   17   18 2   
    36   17   19 1   
    37   19   20 1   
    38   20   21 2   
    39   22   36 1   
@<TRIPOS>SUBSTRUCTURE
     1 LG7         1 TEMP              0 ****  ****    0 ROOT
