@<TRIPOS>MOLECULE
LG8
   63    67     1     0     0
SMALL
bcc


@<TRIPOS>ATOM
      1 CBD         0.7130    0.7960   -0.3100 c3        1 LG8     -0.113200
      2 CBB         1.3110   -0.5020    0.2780 c3        1 LG8     -0.004700
      3 NAW         1.9260   -0.3980    1.5870 na        1 LG8      0.007800
      4 CAV         1.2820   -0.2820    2.7630 cc        1 LG8      0.283600
      5 CAX         3.3360   -0.4540    1.8340 ca        1 LG8     -0.132200
      6 CAY         4.3800   -0.5930    0.9230 ca        1 LG8     -0.058000
      7 CAZ         5.6850   -0.6130    1.4340 ca        1 LG8     -0.081000
      8 CAP         5.9200   -0.4830    2.8000 ca        1 LG8     -0.050000
      9 CAO         4.8650   -0.3410    3.7230 ca        1 LG8     -0.039000
     10 CAN         3.5590   -0.3450    3.2640 ca        1 LG8     -0.068800
     11 CAM         2.2380   -0.2120    3.9030 cc        1 LG8     -0.103800
     12 CAH         1.8440   -0.0570    5.1930 cd        1 LG8      0.022800
     13 CAE         2.7350   -0.3420    6.4070 c         1 LG8      0.704700
     14 OAF         3.9320   -0.6100    6.4060 o         1 LG8     -0.492500
     15 NAD         1.9290   -0.2820    7.5500 ns        1 LG8     -0.567500
     16 CAC         0.6050    0.0540    7.2440 c         1 LG8      0.719700
     17 OAB        -0.3240    0.0680    8.0470 o         1 LG8     -0.515500
     18 CAG         0.5350    0.3440    5.7510 cd        1 LG8     -0.132200
     19 CAL        -0.4960    0.9540    5.1330 ce        1 LG8      0.046600
     20 CAU        -0.4760    1.1170    3.6070 c3        1 LG8     -0.002800
     21 CAK        -1.7310    1.5940    5.5750 ca        1 LG8     -0.046800
     22 CAJ        -2.2590    1.8360    6.8320 ca        1 LG8     -0.034000
     23 CAI        -3.4860    2.5210    6.9530 ca        1 LG8     -0.028000
     24 CAQ        -4.1810    2.9660    5.8320 ca        1 LG8     -0.081000
     25 CAR        -3.6760    2.7500    4.5430 ca        1 LG8     -0.054000
     26 CAS        -2.4630    2.0690    4.4190 ca        1 LG8     -0.147200
     27 NAT        -1.7690    1.7460    3.2120 nh        1 LG8      0.069800
     28 CBA        -2.1840    1.9950    1.9920 ce        1 LG8      0.312500
     29 CBF        -0.1560    1.4840    0.6650 c2        1 LG8     -0.024200
     30 CBG        -1.5100    1.5720    0.7440 ce        1 LG8     -0.173600
     31 NBH        -2.4030    1.2520   -0.3840 nx        1 LG8     -0.558200
     32 C6         -0.1860   -0.2460    2.9700 c3        1 LG8     -0.160700
     33 CBI        -3.4880    0.3010   -0.0040 c3        1 LG8      0.077100
     34 CBJ        -2.9770    2.4980   -0.9850 c3        1 LG8      0.077100
     35 HBD1        1.5490    1.4960   -0.6100 hc        1 LG8      0.123700
     36 HBD2        0.1960    0.4940   -1.2620 hc        1 LG8      0.123700
     37 HBB1        0.5050   -1.2940    0.3250 h1        1 LG8      0.125200
     38 HBB2        2.1040   -0.8640   -0.4480 h1        1 LG8      0.125200
     39 HBF         0.4310    1.9780    1.4700 ha        1 LG8      0.177000
     40 H6C1       -0.4700   -1.0790    3.6850 hc        1 LG8      0.120700
     41 H6C2       -0.7690   -0.4390    2.0320 hc        1 LG8      0.120700
     42 HAY         4.2150   -0.6900   -0.1620 ha        1 LG8      0.167000
     43 HAZ         6.5340   -0.7330    0.7350 ha        1 LG8      0.198000
     44 HAP         6.9600   -0.4980    3.1820 ha        1 LG8      0.200000
     45 HAO         5.1220   -0.2310    4.7920 ha        1 LG8      0.212000
     46 HAD         2.2520   -0.5070    8.4690 hn        1 LG8      0.404500
     47 HAU         0.3340    1.8800    3.3730 h1        1 LG8      0.131700
     48 HAJ        -1.7480    1.5110    7.7590 ha        1 LG8      0.223000
     49 HAI        -3.8970    2.7040    7.9670 ha        1 LG8      0.210000
     50 HAQ        -5.1430    3.5010    5.9530 ha        1 LG8      0.204000
     51 HAR        -4.2410    3.1210    3.6710 ha        1 LG8      0.163000
     52 HBA1       -3.1570    2.5430    1.8920 h4        1 LG8      0.099800
     53 HBA2       -1.2780   -1.2790   -1.2040 ha        1 LG8      0.002750
     54 HBA3       -5.7040    3.1120    1.4970 ha        1 LG8      0.002750
     55 HBG1       -1.3080   -1.8170   -1.6210 ha        1 LG8      0.002750
     56 HBG2       -5.0950    2.8080    1.4680 ha        1 LG8      0.002750
     57 HBJ1       -3.5240    2.2170   -1.9300 hx        1 LG8      0.123200
     58 HBJ2       -2.1500    3.2190   -1.2280 hx        1 LG8      0.123200
     59 HBJ3       -3.7000    2.9720   -0.2680 hx        1 LG8      0.123200
     60 HBI1       -4.0710    0.0320   -0.9330 hx        1 LG8      0.123200
     61 HBI2       -3.0370   -0.6300    0.4330 hx        1 LG8      0.123200
     62 HBI3       -4.1840    0.7840    0.7330 hx        1 LG8      0.123200
     63 HBH1       -1.8290    0.7900   -1.1130 hn        1 LG8      0.471800
@<TRIPOS>BOND
     1    1    2 1   
     2    1   29 1   
     3    1   35 1   
     4    1   36 1   
     5    2    3 1   
     6    2   37 1   
     7    2   38 1   
     8    3    4 2   
     9    3    5 1   
    10    4   11 1   
    11    4   32 1   
    12    5    6 ar  
    13    5   10 ar  
    14    6    7 ar  
    15    6   42 1   
    16    7    8 ar  
    17    7   43 1   
    18    8    9 ar  
    19    8   44 1   
    20    9   10 ar  
    21    9   45 1   
    22   10   11 1   
    23   11   12 2   
    24   12   13 1   
    25   12   18 1   
    26   13   14 2   
    27   13   15 1   
    28   15   16 1   
    29   15   46 1   
    30   16   17 2   
    31   16   18 1   
    32   18   19 2   
    33   19   20 1   
    34   19   21 1   
    35   20   27 1   
    36   20   32 1   
    37   20   47 1   
    38   21   22 ar  
    39   21   26 ar  
    40   22   23 ar  
    41   22   48 1   
    42   23   24 ar  
    43   23   49 1   
    44   24   25 ar  
    45   24   50 1   
    46   25   26 ar  
    47   25   51 1   
    48   26   27 1   
    49   27   28 2   
    50   28   30 1   
    51   28   52 1   
    52   29   30 2   
    53   29   39 1   
    54   30   31 1   
    55   31   33 1   
    56   31   34 1   
    57   31   63 1   
    58   32   40 1   
    59   32   41 1   
    60   33   60 1   
    61   33   61 1   
    62   33   62 1   
    63   34   57 1   
    64   34   58 1   
    65   34   59 1   
    66   53   55 1   
    67   54   56 1   
@<TRIPOS>SUBSTRUCTURE
     1 LG8         1 TEMP              0 ****  ****    0 ROOT
