@<TRIPOS>MOLECULE
LG8
   63    68     1     0     0
SMALL
bcc


@<TRIPOS>ATOM
      1 CBD         0.3050    0.6370   -0.0550 c3        1 LG8     -0.106400
      2 CBB         1.8240    0.9220    0.0410 c3        1 LG8      0.037300
      3 NAW         2.4000    0.7060    1.3540 nh        1 LG8     -0.102500
      4 CAV         1.8800    1.2340    2.4750 c1        1 LG8      0.080100
      5 CAX         3.4350   -0.2460    1.6730 ca        1 LG8      0.017800
      6 CAY         4.3290   -0.9080    0.8820 ca        1 LG8     -0.147000
      7 CAZ         5.2920   -1.7520    1.5150 ca        1 LG8      0.136000
      8 CAP         5.3210   -1.9210    2.9020 ca        1 LG8     -0.196000
      9 CAO         4.4250   -1.2620    3.7330 ca        1 LG8      0.131000
     10 CAN         3.4540   -0.3870    3.1590 ca        1 LG8     -0.164800
     11 CAM         2.4650    0.4360    3.6720 ce        1 LG8      0.041700
     12 CAH         1.9570    0.6540    4.9830 cc        1 LG8     -0.069000
     13 CAE         2.9420    0.6560    6.1700 cd        1 LG8      0.414000
     14 OAF         4.1340    0.3720    6.1100 o         1 LG8     -0.234000
     15 NAD         2.2080    1.0200    7.3040 n         1 LG8     -0.566500
     16 CAC         0.8640    1.2450    6.9750 c         1 LG8      0.698700
     17 OAB        -0.0120    1.6450    7.7340 o         1 LG8     -0.495500
     18 CAG         0.7020    0.9400    5.4660 cc        1 LG8     -0.033200
     19 CAL        -0.5990    1.0540    4.8650 cf        1 LG8      0.088600
     20 CAU        -0.7850    1.5020    3.4190 c3        1 LG8      0.173700
     21 CAK        -1.8530    1.0620    5.4620 ca        1 LG8     -0.075800
     22 CAJ        -2.3460    0.6710    6.7480 ca        1 LG8     -0.007000
     23 CAI        -3.6670    0.8500    7.0580 ca        1 LG8     -0.136000
     24 CAQ        -4.5820    1.4140    6.1220 ca        1 LG8      0.102000
     25 CAR        -4.1860    1.7670    4.8400 ca        1 LG8     -0.225000
     26 CAS        -2.8400    1.6000    4.4810 ca        1 LG8      0.246600
     27 NAT        -2.1950    1.9550    3.3090 nh        1 LG8     -0.574000
     28 CBA        -2.8400    1.8450    2.0130 c3        1 LG8      0.178800
     29 CBF        -0.4790    1.3510    1.0340 c3        1 LG8     -0.102700
     30 CBG        -1.8860    1.9650    0.7700 c3        1 LG8      0.123500
     31 NBH        -2.5450    1.4700   -0.4980 n4        1 LG8     -0.682400
     32 C6         -0.5680    0.4840    2.2930 c3        1 LG8     -0.071400
     33 CBI        -4.0310    1.3790   -0.4390 c3        1 LG8      0.073100
     34 CBJ        -2.1720    2.3490   -1.6510 c3        1 LG8      0.073100
     35 HBD1        0.1220   -0.4690   -0.0030 hc        1 LG8      0.076200
     36 HBD2        0.0210    0.9790   -1.0840 hc        1 LG8      0.076200
     37 HBB1        2.0140    2.0010   -0.2380 h1        1 LG8      0.105700
     38 HBB2        2.3560    0.2610   -0.7020 h1        1 LG8      0.105700
     39 HBF         0.1400    2.2780    1.2780 hc        1 LG8      0.125700
     40 H6C1       -1.4180   -0.2520    2.2100 hc        1 LG8      0.080200
     41 H6C2        0.3140   -0.1710    2.4880 hc        1 LG8      0.080200
     42 HAY         4.3480   -0.8080   -0.2180 ha        1 LG8      0.201000
     43 HAZ         6.0320   -2.2810    0.8760 ha        1 LG8      0.214000
     44 HAP         6.0880   -2.5870    3.3500 ha        1 LG8      0.220000
     45 HAO         4.4750   -1.3890    4.8350 ha        1 LG8      0.216000
     46 HAD         2.6030    1.1820    8.2070 hn        1 LG8      0.408500
     47 HAU        -0.1040    2.4050    3.2770 h1        1 LG8      0.169700
     48 HAJ        -1.6530    0.2280    7.4870 ha        1 LG8      0.201000
     49 HAI        -4.0490    0.5590    8.0570 ha        1 LG8      0.211000
     50 HAQ        -5.6380    1.5630    6.4320 ha        1 LG8      0.207000
     51 HAR        -4.9130    2.1920    4.1280 ha        1 LG8      0.187000
     52 HBA1       -3.2140   -1.7520    0.8740 ha        1 LG8      0.002000
     53 HBA2       -1.7320    3.0820    0.6160 hx        1 LG8      0.128700
     54 HBA3       -3.3960    0.8610    1.9690 h1        1 LG8      0.095200
     55 HBG1       -3.5910    2.6880    1.9570 h1        1 LG8      0.095200
     56 HBG2       -2.9610   -1.1230    0.8300 ha        1 LG8      0.002000
     57 HBJ1       -2.4330    1.8220   -2.6110 hx        1 LG8      0.118700
     58 HBJ2       -2.7480    3.3130   -1.5910 hx        1 LG8      0.118700
     59 HBJ3       -1.0730    2.5760   -1.6310 hx        1 LG8      0.118700
     60 HBI1       -4.3430    0.5180    0.2120 hx        1 LG8      0.118700
     61 HBI2       -4.4260    1.1950   -1.4800 hx        1 LG8      0.118700
     62 HBI3       -4.4620    2.3420   -0.0570 hx        1 LG8      0.118700
     63 HBH1       -2.1850    0.5210   -0.6810 hn        1 LG8      0.453800
@<TRIPOS>BOND
     1    1    2 1   
     2    1   29 1   
     3    1   35 1   
     4    1   36 1   
     5    2    3 1   
     6    2   37 1   
     7    2   38 1   
     8    3    4 2   
     9    3    5 1   
    10    4   11 2   
    11    5    6 ar  
    12    5   10 ar  
    13    6    7 ar  
    14    6   42 1   
    15    7    8 ar  
    16    7   43 1   
    17    8    9 ar  
    18    8   44 1   
    19    9   10 ar  
    20    9   45 1   
    21   10   11 1   
    22   11   12 1   
    23   12   13 2   
    24   12   18 1   
    25   13   14 1   
    26   13   15 1   
    27   15   16 1   
    28   15   46 1   
    29   16   17 2   
    30   16   18 1   
    31   18   19 2   
    32   19   20 1   
    33   19   21 1   
    34   20   27 1   
    35   20   32 1   
    36   20   47 1   
    37   21   22 ar  
    38   21   26 ar  
    39   22   23 ar  
    40   22   48 1   
    41   23   24 ar  
    42   23   49 1   
    43   24   25 ar  
    44   24   50 1   
    45   25   26 ar  
    46   25   51 1   
    47   26   27 1   
    48   27   28 1   
    49   28   30 1   
    50   28   54 1   
    51   28   55 1   
    52   29   30 1   
    53   29   32 1   
    54   29   39 1   
    55   30   31 1   
    56   30   53 1   
    57   31   33 1   
    58   31   34 1   
    59   31   63 1   
    60   32   40 1   
    61   32   41 1   
    62   33   60 1   
    63   33   61 1   
    64   33   62 1   
    65   34   57 1   
    66   34   58 1   
    67   34   59 1   
    68   52   56 1   
@<TRIPOS>SUBSTRUCTURE
     1 LG8         1 TEMP              0 ****  ****    0 ROOT
