@<TRIPOS>MOLECULE
LG8
   63    68     1     0     0
SMALL
bcc


@<TRIPOS>ATOM
      1 CBD         0.2160   -0.4130   -0.0040 c3        1 LG8     -0.095400
      2 CBB         1.6110    0.2510    0.0590 c3        1 LG8      0.032300
      3 NAW         2.1910    0.3590    1.3830 nh        1 LG8     -0.083500
      4 CAV         1.5250    0.6890    2.4950 c1        1 LG8      0.021100
      5 CAX         3.5760    0.0800    1.7000 ca        1 LG8     -0.011200
      6 CAY         4.6420   -0.1850    0.8910 ca        1 LG8     -0.131000
      7 CAZ         5.9210   -0.3610    1.5030 ca        1 LG8      0.097000
      8 CAP         6.0870   -0.2520    2.8800 ca        1 LG8     -0.186000
      9 CAO         5.0110    0.0200    3.7260 ca        1 LG8      0.128000
     10 CAN         3.7110    0.1590    3.1790 ca        1 LG8     -0.177800
     11 CAM         2.4250    0.3490    3.7020 ce        1 LG8      0.087700
     12 CAH         1.8330    0.1230    4.9660 cc        1 LG8     -0.137200
     13 CAE         2.6290   -0.4090    6.1660 c         1 LG8      0.714700
     14 OAF         3.8390   -0.6060    6.2200 o         1 LG8     -0.517500
     15 NAD         1.7120   -0.6450    7.2030 n         1 LG8     -0.573500
     16 CAC         0.4100   -0.3200    6.8050 c         1 LG8      0.688700
     17 OAB        -0.6200   -0.4470    7.4580 o         1 LG8     -0.481500
     18 CAG         0.5090    0.2070    5.3570 cd        1 LG8      0.051800
     19 CAL        -0.6670    0.6880    4.6910 cd        1 LG8      0.069800
     20 CAU        -1.0210    0.4700    3.3810 cc        1 LG8      0.026800
     21 CAK        -1.7230    1.5240    5.3060 ca        1 LG8     -0.081800
     22 CAJ        -1.9530    1.9630    6.5960 ca        1 LG8     -0.023000
     23 CAI        -3.1340    2.6820    6.8710 ca        1 LG8     -0.060000
     24 CAQ        -4.0600    2.9630    5.8730 ca        1 LG8     -0.070000
     25 CAR        -3.8430    2.5550    4.5420 ca        1 LG8     -0.065000
     26 CAS        -2.6840    1.8490    4.2820 ca        1 LG8     -0.056400
     27 NAT        -2.1490    1.3940    2.9810 n4        1 LG8     -0.463600
     28 CBA        -3.0330    0.7700    1.9590 c3        1 LG8      0.107800
     29 CBF        -0.7410    0.2140    0.9920 c3        1 LG8     -0.090700
     30 CBG        -2.2590    0.2960    0.6760 c3        1 LG8      0.100500
     31 NBH        -2.5750    1.0930   -0.5640 n4        1 LG8     -0.684400
     32 C6         -0.6940   -0.5270    2.3400 c3        1 LG8     -0.018200
     33 CBI        -3.9360    0.7620   -1.0850 c3        1 LG8      0.068100
     34 CBJ        -2.4270    2.5620   -0.4010 c3        1 LG8      0.068100
     35 HBD1        0.3090   -1.5170    0.1860 hc        1 LG8      0.086200
     36 HBD2       -0.1370   -0.2950   -1.0610 hc        1 LG8      0.086200
     37 HBB1        2.3110   -0.3560   -0.5880 h1        1 LG8      0.098700
     38 HBB2        1.5430    1.2930   -0.3730 h1        1 LG8      0.098700
     39 HBF        -0.3690    1.2770    1.1260 hc        1 LG8      0.086700
     40 H6C1       -1.4600   -1.3590    2.3610 hc        1 LG8      0.105200
     41 H6C2       -1.7090    2.2290    2.5540 hn        1 LG8      0.463800
     42 HAY         4.5620   -0.2680   -0.2070 ha        1 LG8      0.193000
     43 HAZ         6.7920   -0.5830    0.8510 ha        1 LG8      0.210000
     44 HAP         7.0990   -0.3730    3.3190 ha        1 LG8      0.216000
     45 HAO         5.1870    0.1480    4.8150 ha        1 LG8      0.224000
     46 HAD         1.9550   -1.0180    8.0970 hn        1 LG8      0.406500
     47 HAU         0.2740   -1.0530    2.5420 hc        1 LG8      0.105200
     48 HAJ        -1.2480    1.7440    7.4180 ha        1 LG8      0.192000
     49 HAI        -3.3240    3.0190    7.9090 ha        1 LG8      0.203000
     50 HAQ        -4.9870    3.5160    6.1160 ha        1 LG8      0.200000
     51 HAR        -4.5820    2.8030    3.7630 ha        1 LG8      0.167000
     52 HBA1       -2.6310   -0.7560    0.4550 hx        1 LG8      0.142700
     53 HBA2       -3.8520    1.5080    1.7180 hx        1 LG8      0.136700
     54 HBA3       -3.4940    4.5800    2.1510 ha        1 LG8      0.001500
     55 HBG1       -3.5180   -0.1400    2.4250 hx        1 LG8      0.136700
     56 HBG2       -3.2920    3.9310    2.1190 ha        1 LG8      0.001500
     57 HBJ1       -3.2560    2.9720    0.2370 hx        1 LG8      0.119367
     58 HBJ2       -1.4320    2.7990    0.0590 hx        1 LG8      0.119367
     59 HBJ3       -2.4870    3.0510   -1.4160 hx        1 LG8      0.119367
     60 HBI1       -4.1270    1.3640   -2.0190 hx        1 LG8      0.119367
     61 HBI2       -3.9900   -0.3330   -1.3370 hx        1 LG8      0.119367
     62 HBI3       -4.7140    1.0150   -0.3170 hx        1 LG8      0.119367
     63 HBH1       -1.8910    0.7910   -1.2790 hn        1 LG8      0.466800
@<TRIPOS>BOND
     1    1    2 1   
     2    1   29 1   
     3    1   35 1   
     4    1   36 1   
     5    2    3 1   
     6    2   37 1   
     7    2   38 1   
     8    3    4 2   
     9    3    5 1   
    10    4   11 2   
    11    5    6 ar  
    12    5   10 ar  
    13    6    7 ar  
    14    6   42 1   
    15    7    8 ar  
    16    7   43 1   
    17    8    9 ar  
    18    8   44 1   
    19    9   10 ar  
    20    9   45 1   
    21   10   11 1   
    22   11   12 1   
    23   12   13 1   
    24   12   18 2   
    25   13   14 2   
    26   13   15 1   
    27   15   16 1   
    28   15   46 1   
    29   16   17 2   
    30   16   18 1   
    31   18   19 1   
    32   19   20 2   
    33   19   21 1   
    34   20   27 1   
    35   20   32 1   
    36   21   22 ar  
    37   21   26 ar  
    38   22   23 ar  
    39   22   48 1   
    40   23   24 ar  
    41   23   49 1   
    42   24   25 ar  
    43   24   50 1   
    44   25   26 ar  
    45   25   51 1   
    46   26   27 1   
    47   27   28 1   
    48   27   41 1   
    49   28   30 1   
    50   28   53 1   
    51   28   55 1   
    52   29   30 1   
    53   29   32 1   
    54   29   39 1   
    55   30   31 1   
    56   30   52 1   
    57   31   33 1   
    58   31   34 1   
    59   31   63 1   
    60   32   40 1   
    61   32   47 1   
    62   33   60 1   
    63   33   61 1   
    64   33   62 1   
    65   34   57 1   
    66   34   58 1   
    67   34   59 1   
    68   54   56 1   
@<TRIPOS>SUBSTRUCTURE
     1 LG8         1 TEMP              0 ****  ****    0 ROOT
