@<TRIPOS>MOLECULE
LG8
   62    60     1     0     0
SMALL
bcc


@<TRIPOS>ATOM
      1 CBD        -1.4310   -0.9960   -3.2900 c3        1 LG8     -0.181000
      2 CBB         0.1230   -1.3350   -3.2860 c3        1 LG8     -0.065000
      3 NAW         0.6860   -1.4220   -1.8760 n3        1 LG8     -0.029000
      4 CAV         0.1060   -0.4940   -0.8800 c1        1 LG8      0.176000
      5 CAX         1.6280   -2.3700   -1.3170 c2        1 LG8     -0.037000
      6 CAY         2.0260   -3.6100   -1.7400 c1        1 LG8     -0.064000
      7 CAZ         2.4810   -4.5840   -0.7850 c1        1 LG8     -0.074750
      8 CAP         2.5200   -4.2500    0.6600 c1        1 LG8     -0.074750
      9 CAO         2.1010   -2.9380    1.1190 c1        1 LG8     -0.054000
     10 CAN         1.6700   -2.0130    0.2240 c2        1 LG8     -0.117000
     11 CAM         0.5690   -0.6930    0.3910 c1        1 LG8      0.011000
     12 CAH        -0.0790   -0.2980    1.5800 c1        1 LG8     -0.035000
     13 CAE        -1.0700   -1.4720    2.4830 c1        1 LG8      0.344000
     14 OAF        -1.7680   -1.0920    3.4130 o         1 LG8     -0.250000
     15 NAD        -0.2530   -2.2510    2.7970 n         1 LG8     -0.352000
     16 CAC         0.9770   -1.3250    3.0840 c2        1 LG8      0.339000
     17 OAB         1.7600   -1.4460    3.9870 o         1 LG8     -0.261000
     18 CAG         0.5970    0.0310    2.3540 c2        1 LG8     -0.013000
     19 CAL         1.3570    1.1940    2.3380 c1        1 LG8     -0.023000
     20 CAU         2.6870    1.2870    1.9410 c1        1 LG8      0.095000
     21 CAK         1.1700    2.4360    3.3150 c2        1 LG8     -0.093000
     22 CAJ         0.1470    2.9440    4.0750 c2        1 LG8     -0.055000
     23 CAI         0.3610    4.0760    4.8770 c1        1 LG8     -0.090000
     24 CAQ         1.6650    4.7110    4.9050 c1        1 LG8     -0.074750
     25 CAR         2.7310    4.1880    4.1180 c1        1 LG8     -0.074750
     26 CAS         2.5260    3.0940    3.3410 c1        1 LG8     -0.065000
     27 NAT         3.3220    2.2840    2.4580 n3        1 LG8      0.004000
     28 CBA         4.4590    2.8830    1.7380 c3        1 LG8     -0.135000
     29 CBF        -1.7510   -0.0670   -2.6360 c3        1 LG8     -0.117000
     30 CBG        -3.4540    0.0830   -2.7310 c3        1 LG8     -0.054000
     31 NBH        -3.8600    0.1960   -4.1240 n3        1 LG8     -0.282000
     32 C6         -1.3440   -0.1510   -1.0620 c3        1 LG8     -0.173000
     33 CBI        -4.4950   -1.0320   -4.5480 c3        1 LG8     -0.122500
     34 CBJ        -4.7750    1.2700   -4.2640 c3        1 LG8     -0.122500
     35 HBD1       -1.7060   -0.8260   -4.2170 hc        1 LG8      0.142500
     36 HBD2       -1.9290   -1.8020   -2.9550 hc        1 LG8      0.142500
     37 HBB1        0.3580   -2.1160   -3.8410 h1        1 LG8      0.146000
     38 HBB2        0.6090   -0.6040   -3.7880 h1        1 LG8      0.146000
     39 HBF        -1.3430    0.7430   -3.0220 hc        1 LG8      0.114000
     40 H6C1       -1.6910    0.6420   -0.5620 hc        1 LG8      0.171500
     41 H6C2       -1.8380   -0.8480   -0.6370 hc        1 LG8      0.171500
     42 HAY         2.0010   -3.8390   -2.7090 ha        1 LG8      0.180000
     43 HAZ         2.7550   -5.4390   -1.0780 ha        1 LG8      0.182250
     44 HAP         2.8260   -4.9080    1.2970 ha        1 LG8      0.182250
     45 HAO         2.1300   -2.7160    2.1010 ha        1 LG8      0.148000
     46 HAD        -0.4270   -3.0110    3.2670 hn        1 LG8      0.307000
     47 HAU         2.9620    0.9310    1.0750 ha        1 LG8      0.261000
     48 HAJ        -0.7310    2.5180    4.0580 ha        1 LG8      0.152000
     49 HAI        -0.3690    4.4360    5.4160 ha        1 LG8      0.176000
     50 HAQ         1.8080    5.4840    5.4540 ha        1 LG8      0.182250
     51 HAR         3.6140    4.6190    4.1380 ha        1 LG8      0.182250
     52 HBA1        5.0290    3.3710    2.3730 h1        1 LG8      0.153000
     53 HBA2        4.9770    2.1820    1.3110 h1        1 LG8      0.153000
     54 HBA3        4.1230    3.5050    1.0540 h1        1 LG8      0.153000
     55 HBG1       -3.7420    0.8950   -2.2380 h1        1 LG8      0.087000
     56 HBG2       -3.8670   -0.6940   -2.3370 h1        1 LG8      0.087000
     57 HBJ1       -5.0900    1.3140   -5.2030 h1        1 LG8      0.083333
     58 HBJ2       -5.5670    1.1240   -3.6500 h1        1 LG8      0.083333
     59 HBJ3       -4.3320    2.1070   -4.0300 h1        1 LG8      0.083333
     60 HBI1       -3.8470   -1.7230   -4.5950 h1        1 LG8      0.083333
     61 HBI2       -5.2000   -1.2830   -3.8970 h1        1 LG8      0.083333
     62 HBI3       -4.9050   -0.9010   -5.4480 h1        1 LG8      0.083333
@<TRIPOS>BOND
     1    1    2 1   
     2    1   29 1   
     3    1   35 1   
     4    1   36 1   
     5    2    3 1   
     6    2   37 1   
     7    2   38 1   
     8    3    4 1   
     9    3    5 1   
    10    4   32 1   
    11    5    6 1   
    12    5   10 1   
    13    6   42 1   
    14    7    8 1   
    15    7   43 1   
    16    8   44 1   
    17    9   10 1   
    18    9   45 1   
    19   10   11 1   
    20   11   12 1   
    21   12   18 1   
    22   13   14 1   
    23   13   15 1   
    24   15   16 1   
    25   15   46 1   
    26   16   17 1   
    27   16   18 1   
    28   18   19 1   
    29   19   21 1   
    30   20   27 1   
    31   20   47 1   
    32   21   22 1   
    33   21   26 1   
    34   22   23 1   
    35   22   48 1   
    36   23   49 1   
    37   24   25 1   
    38   24   50 1   
    39   25   51 1   
    40   26   27 1   
    41   27   28 1   
    42   28   52 1   
    43   28   53 1   
    44   28   54 1   
    45   29   30 1   
    46   29   32 1   
    47   29   39 1   
    48   30   31 1   
    49   30   55 1   
    50   30   56 1   
    51   31   33 1   
    52   31   34 1   
    53   32   40 1   
    54   32   41 1   
    55   33   60 1   
    56   33   61 1   
    57   33   62 1   
    58   34   57 1   
    59   34   58 1   
    60   34   59 1   
@<TRIPOS>SUBSTRUCTURE
     1 LG8         1 TEMP              0 ****  ****    0 ROOT
