@<TRIPOS>MOLECULE
LG8
   62    66     1     0     0
SMALL
bcc


@<TRIPOS>ATOM
      1 CBD         0.0490    2.7740   -3.3950 c3        1 LG8     -0.139000
      2 CBB        -1.0550    3.2970   -2.4530 c3        1 LG8     -0.121000
      3 NAW        -0.6470    3.8980   -1.1980 nh        1 LG8     -0.109000
      4 CAV         0.4140    4.9900   -1.2390 c3        1 LG8      0.053000
      5 CAX        -0.3000    3.0660   -0.0940 ca        1 LG8     -0.051000
      6 CAY        -0.9080    1.8690    0.2800 ca        1 LG8     -0.105000
      7 CAZ        -0.5180    1.2740    1.4870 ca        1 LG8     -0.070000
      8 CAP         0.4540    1.8600    2.2920 ca        1 LG8     -0.101000
      9 CAO         1.0770    3.0600    1.9200 ca        1 LG8     -0.047000
     10 CAN         0.7270    3.6640    0.7210 ca        1 LG8     -0.094000
     11 CAM         1.1840    4.8960    0.0870 c2        1 LG8      0.023000
     12 CAH         2.0930    5.8160    0.4490 c2        1 LG8     -0.117000
     13 CAE         3.2900    5.5760    1.3540 c2        1 LG8      0.359000
     14 OAF         3.3810    4.8720    2.3570 o         1 LG8     -0.254000
     15 NAD         4.3490    6.3280    0.8050 n         1 LG8     -0.371000
     16 CAC         3.9020    7.1830   -0.2210 c2        1 LG8      0.356000
     17 OAB         4.6340    7.8270   -0.9700 o         1 LG8     -0.265000
     18 CAG         2.3850    7.1180   -0.1900 c2        1 LG8     -0.119000
     19 CAL         1.5580    8.1640   -0.3400 c2        1 LG8      0.004000
     20 CAU         0.1380    8.1860    0.2280 c3        1 LG8     -0.049000
     21 CAK         1.8000    9.5090   -0.8650 ca        1 LG8     -0.066000
     22 CAJ         2.8350   10.0420   -1.6160 ca        1 LG8     -0.052000
     23 CAI         2.7970   11.4030   -1.9690 ca        1 LG8     -0.083000
     24 CAQ         1.7370   12.2180   -1.5910 ca        1 LG8     -0.080000
     25 CAR         0.6590   11.7040   -0.8530 ca        1 LG8     -0.086000
     26 CAS         0.6980   10.3590   -0.5060 ca        1 LG8     -0.063000
     27 NAT        -0.2900    9.6050    0.2140 nh        1 LG8     -0.026000
     28 CBA        -1.3590   10.0770    0.7990 c2        1 LG8      0.047000
     29 CBF         1.2400    3.7310   -3.3760 c2        1 LG8     -0.094000
     30 CBG        -2.3630    9.2420    1.5760 c3        1 LG8     -0.054000
     31 NBH        -3.4930    9.9320    2.1100 n3        1 LG8     -0.263000
     32 C6          1.1690    4.5480   -2.3790 c1        1 LG8      0.114000
     33 CBI        -3.2200   10.8340    3.2050 c3        1 LG8     -0.128500
     34 CBJ        -4.4400   10.4320    1.1410 c3        1 LG8     -0.128500
     35 HBD1        0.4220    1.7590   -3.0880 hc        1 LG8      0.166500
     36 HBD2       -0.3480    2.7010   -4.4440 hc        1 LG8      0.166500
     37 HBB1       -1.6500    4.0850   -3.0040 h1        1 LG8      0.158000
     38 HBB2       -1.7510    2.4370   -2.2180 h1        1 LG8      0.158000
     39 HBF         2.0070    3.6230   -4.1650 ha        1 LG8      0.263000
     40 H6C1        0.1260    7.8000    1.2860 h1        1 LG8      0.146000
     41 H6C2       -0.5870    7.5980   -0.3980 h1        1 LG8      0.146000
     42 HAY        -1.6980    1.4020   -0.3280 ha        1 LG8      0.162000
     43 HAZ        -0.9980    0.3290    1.7990 ha        1 LG8      0.178000
     44 HAP         0.7460    1.3770    3.2420 ha        1 LG8      0.180000
     45 HAO         1.8380    3.4990    2.5900 ha        1 LG8      0.197000
     46 HAD         5.2910    6.2760    1.1190 hn        1 LG8      0.295000
     47 HAU        -0.0850    5.9860   -1.3970 h1        1 LG8      0.168000
     48 HAJ         3.6910    9.4250   -1.9430 ha        1 LG8      0.200000
     49 HAI         3.6320   11.8240   -2.5570 ha        1 LG8      0.183000
     50 HAQ         1.7310   13.2860   -1.8730 ha        1 LG8      0.182000
     51 HAR        -0.1780   12.3640   -0.5720 ha        1 LG8      0.164000
     52 HBA1       -2.7340    8.4250    0.8850 h1        1 LG8      0.141000
     53 HBA2       -2.6030   13.3080    0.9100 ha        1 LG8      0.002500
     54 HBA3       -1.5500   11.1780    0.7230 h4        1 LG8      0.208000
     55 HBG1       -2.1160   13.1310    0.4720 ha        1 LG8      0.002500
     56 HBG2       -1.8030    8.7530    2.4310 h1        1 LG8      0.141000
     57 HBJ1       -4.7050    9.6180    0.4170 h1        1 LG8      0.095000
     58 HBJ2       -4.0460   11.3190    0.5710 h1        1 LG8      0.095000
     59 HBJ3       -5.3730   10.7410    1.6850 h1        1 LG8      0.095000
     60 HBI1       -4.1970   11.1200    3.6790 h1        1 LG8      0.095000
     61 HBI2       -2.6950   11.7710    2.8710 h1        1 LG8      0.095000
     62 HBI3       -2.5910   10.3140    3.9750 h1        1 LG8      0.095000
@<TRIPOS>BOND
     1    1    2 1   
     2    1   29 1   
     3    1   35 1   
     4    1   36 1   
     5    2    3 1   
     6    2   37 1   
     7    2   38 1   
     8    3    4 1   
     9    3    5 1   
    10    4   11 1   
    11    4   32 1   
    12    4   47 1   
    13    5    6 1   
    14    5   10 1   
    15    6    7 1   
    16    6   42 1   
    17    7    8 1   
    18    7   43 1   
    19    8    9 1   
    20    8   44 1   
    21    9   10 1   
    22    9   45 1   
    23   10   11 1   
    24   11   12 1   
    25   12   13 1   
    26   12   18 1   
    27   13   14 1   
    28   13   15 1   
    29   15   16 1   
    30   15   46 1   
    31   16   17 1   
    32   16   18 1   
    33   18   19 1   
    34   19   20 1   
    35   19   21 1   
    36   20   27 1   
    37   20   40 1   
    38   20   41 1   
    39   21   22 1   
    40   21   26 1   
    41   22   23 1   
    42   22   48 1   
    43   23   24 1   
    44   23   49 1   
    45   24   25 1   
    46   24   50 1   
    47   25   26 1   
    48   25   51 1   
    49   26   27 1   
    50   27   28 1   
    51   28   30 1   
    52   28   54 1   
    53   29   32 1   
    54   29   39 1   
    55   30   31 1   
    56   30   52 1   
    57   30   56 1   
    58   31   33 1   
    59   31   34 1   
    60   33   60 1   
    61   33   61 1   
    62   33   62 1   
    63   34   57 1   
    64   34   58 1   
    65   34   59 1   
    66   53   55 1   
@<TRIPOS>SUBSTRUCTURE
     1 LG8         1 TEMP              0 ****  ****    0 ROOT
