@<TRIPOS>MOLECULE
LG9
   32    33     1     0     0
SMALL
bcc


@<TRIPOS>ATOM
      1 O4         -0.1700   -0.0100    0.5580 oh        1 LG9     -0.614800
      2 C9          1.2140   -0.1670    0.2700 c3        1 LG9      0.135400
      3 C1          1.9600    0.1060    1.5640 c3        1 LG9     -0.120700
      4 C5          3.4820   -0.0520    1.3830 c3        1 LG9      0.175500
      5 C4          4.0260   -1.3680    1.9900 c3        1 LG9      0.095100
      6 O1          4.4910   -2.1560    0.9080 oh        1 LG9     -0.590800
      7 C6          5.1700   -0.9440    2.9390 c3        1 LG9      0.090100
      8 O2          4.9890   -1.4770    4.2380 oh        1 LG9     -0.589800
      9 C7          5.0730    0.6010    3.0660 c3        1 LG9      0.131500
     10 C8          6.4740    1.2300    2.9580 c3        1 LG9      0.142400
     11 O3          7.1750    0.8420    1.7980 oh        1 LG9     -0.603800
     12 N4          4.1690    1.0950    2.0180 n3        1 LG9     -0.710600
     13 C3          3.1640    2.0570    2.4660 c3        1 LG9      0.152800
     14 C2          1.7600    1.5540    2.0540 c3        1 LG9      0.138100
     15 OXT         0.9280    1.6140    3.1960 oh        1 LG9     -0.598800
     16 H4         -0.6470   -0.2420   -0.2470 ho        1 LG9      0.407000
     17 H91C        1.5190    0.5570   -0.5320 h1        1 LG9      0.034200
     18 H92C        1.4200   -1.2140   -0.0820 h1        1 LG9      0.034200
     19 H1          1.5770   -0.5950    2.3540 hc        1 LG9      0.082700
     20 H5          3.7480   -0.0240    0.2860 h1        1 LG9      0.089700
     21 H2          1.3270    2.1950    1.2390 h1        1 LG9      0.050700
     22 HA          3.2360   -1.9290    2.5560 h1        1 LG9      0.057700
     23 HB          4.9220   -2.9290    1.2910 ho        1 LG9      0.401000
     24 H6          6.1680   -1.2430    2.5170 h1        1 LG9      0.075700
     25 HC          5.2100   -2.4140    4.1870 ho        1 LG9      0.400000
     26 H7          4.6870    0.8420    4.1030 h1        1 LG9      0.074700
     27 H81C        6.3960    2.3490    3.0090 h1        1 LG9      0.050700
     28 H82C        7.1030    0.8540    3.8110 h1        1 LG9      0.050700
     29 H3          6.6520    1.1170    1.0350 ho        1 LG9      0.414000
     30 H31C        3.1860    2.2400    3.5760 h1        1 LG9      0.064200
     31 H32C        3.3850    3.0270    1.9450 h1        1 LG9      0.064200
     32 HXT         0.0720    1.2550    2.9250 ho        1 LG9      0.417000
@<TRIPOS>BOND
     1    1    2 1   
     2    1   16 1   
     3    2    3 1   
     4    2   17 1   
     5    2   18 1   
     6    3    4 1   
     7    3   14 1   
     8    3   19 1   
     9    4    5 1   
    10    4   12 1   
    11    4   20 1   
    12    5    6 1   
    13    5    7 1   
    14    5   22 1   
    15    6   23 1   
    16    7    8 1   
    17    7    9 1   
    18    7   24 1   
    19    8   25 1   
    20    9   10 1   
    21    9   12 1   
    22    9   26 1   
    23   10   11 1   
    24   10   27 1   
    25   10   28 1   
    26   11   29 1   
    27   12   13 1   
    28   13   14 1   
    29   13   30 1   
    30   13   31 1   
    31   14   15 1   
    32   14   21 1   
    33   15   32 1   
@<TRIPOS>SUBSTRUCTURE
     1 LG9         1 TEMP              0 ****  ****    0 ROOT
