@<TRIPOS>MOLECULE
LG9
   32    33     1     0     0
SMALL
bcc


@<TRIPOS>ATOM
      1 O4         -3.8580    0.3860   -1.6280 oh        1 LG9     -0.610800
      2 C9         -2.4730    0.1570   -1.7820 c3        1 LG9      0.136400
      3 C1         -1.6930    0.4210   -0.3220 c3        1 LG9     -0.123700
      4 C5         -0.3200   -0.4300   -0.2640 c3        1 LG9      0.142500
      5 C4         -0.1180   -1.0540    1.0710 c3        1 LG9      0.088100
      6 O1         -0.1750   -2.4210    0.9670 oh        1 LG9     -0.593800
      7 C6          1.3320   -0.6000    1.5440 c3        1 LG9      0.136100
      8 O2          1.2270    0.3890    2.6160 oh        1 LG9     -0.588800
      9 C7          1.8920   -0.0580    0.4660 c3        1 LG9      0.168500
     10 C8          2.6720   -1.1190   -0.3040 c3        1 LG9      0.136400
     11 O3          4.0580   -0.8090   -0.2720 oh        1 LG9     -0.605800
     12 N4          0.7110    0.4830   -0.4130 n3        1 LG9     -0.704600
     13 C3          0.1150    1.6180   -0.8050 c3        1 LG9      0.154800
     14 C2         -1.3510    1.5620   -0.2320 c3        1 LG9      0.144100
     15 OXT        -1.3560    1.9950    1.2300 oh        1 LG9     -0.594800
     16 H4         -4.2860    0.0820   -2.3320 ho        1 LG9      0.407000
     17 H91C       -2.1220    0.7530   -2.4410 h1        1 LG9      0.026700
     18 H92C       -2.3210   -0.8070   -2.0800 h1        1 LG9      0.026700
     19 H1         -2.2660    0.1850    0.4130 hc        1 LG9      0.085700
     20 H5         -0.2960   -1.0710   -0.9400 h1        1 LG9      0.071700
     21 H2         -1.9620    2.1550   -0.7750 h1        1 LG9      0.047700
     22 HA         -0.7780   -0.7420    1.6830 h1        1 LG9      0.058700
     23 HB         -0.7830   -2.7290    1.5120 ho        1 LG9      0.401000
     24 H6          1.8350   -1.3530    1.8360 h1        1 LG9      0.080700
     25 HC          1.5370    0.0460    3.3660 ho        1 LG9      0.406000
     26 H7          2.4670    0.6560    0.7190 h1        1 LG9      0.088700
     27 H81C        2.5180   -2.0280    0.1240 h1        1 LG9      0.034200
     28 H82C        2.3530   -1.1400   -1.2640 h1        1 LG9      0.034200
     29 H3          4.5160   -1.4010   -0.8070 ho        1 LG9      0.402000
     30 H31C        0.0920    1.6670   -1.7750 h1        1 LG9      0.063700
     31 H32C        0.6120    2.4290   -0.4200 h1        1 LG9      0.063700
     32 HXT        -1.7800    2.7770    1.3090 ho        1 LG9      0.416000
@<TRIPOS>BOND
     1    1    2 1   
     2    1   16 1   
     3    2    3 1   
     4    2   17 1   
     5    2   18 1   
     6    3    4 1   
     7    3   14 1   
     8    3   19 1   
     9    4    5 1   
    10    4   12 1   
    11    4   20 1   
    12    5    6 1   
    13    5    7 1   
    14    5   22 1   
    15    6   23 1   
    16    7    8 1   
    17    7    9 1   
    18    7   24 1   
    19    8   25 1   
    20    9   10 1   
    21    9   12 1   
    22    9   26 1   
    23   10   11 1   
    24   10   27 1   
    25   10   28 1   
    26   11   29 1   
    27   12   13 1   
    28   13   14 1   
    29   13   30 1   
    30   13   31 1   
    31   14   15 1   
    32   14   21 1   
    33   15   32 1   
@<TRIPOS>SUBSTRUCTURE
     1 LG9         1 TEMP              0 ****  ****    0 ROOT
