@<TRIPOS>MOLECULE
LG9
   32    33     1     0     0
SMALL
bcc


@<TRIPOS>ATOM
      1 O4          3.9310   -0.5340    0.2550 oh        1 LG9     -0.614800
      2 C9          2.6820   -0.7150    0.9080 c3        1 LG9      0.135400
      3 C1          1.6200   -0.1510   -0.0200 c3        1 LG9     -0.120700
      4 C5          0.2080   -0.3070    0.5760 c3        1 LG9      0.175500
      5 C4         -0.6010   -1.4480   -0.0880 c3        1 LG9      0.095100
      6 O1         -0.8010   -2.4390    0.9050 oh        1 LG9     -0.590800
      7 C6         -1.9290   -0.8010   -0.5450 c3        1 LG9      0.090100
      8 O2         -2.1780   -1.0470   -1.9170 oh        1 LG9     -0.589800
      9 C7         -1.7380    0.7320   -0.3870 c3        1 LG9      0.131500
     10 C8         -2.9870    1.3570    0.2600 c3        1 LG9      0.142400
     11 O3         -3.3550    0.7450    1.4760 oh        1 LG9     -0.603800
     12 N4         -0.5300    0.9660    0.4160 n3        1 LG9     -0.710600
     13 C3          0.3830    1.9770   -0.1130 c3        1 LG9      0.152800
     14 C2          1.7960    1.3630   -0.2500 c3        1 LG9      0.138100
     15 OXT         2.2650    1.6470   -1.5540 oh        1 LG9     -0.598800
     16 H4          4.5980   -0.9450    0.8170 ho        1 LG9      0.407000
     17 H91C        2.4950   -1.8070    1.0910 h1        1 LG9      0.034200
     18 H92C        2.6860   -0.1730    1.8920 h1        1 LG9      0.034200
     19 H1          1.6960   -0.6750   -1.0110 hc        1 LG9      0.082700
     20 H5          0.2740   -0.5090    1.6840 h1        1 LG9      0.089700
     21 H2          2.5010    1.8020    0.5060 h1        1 LG9      0.050700
     22 HA         -0.0600   -1.8930   -0.9660 h1        1 LG9      0.057700
     23 HB         -1.3910   -3.1010    0.5240 ho        1 LG9      0.401000
     24 H6         -2.7850   -1.1600    0.0900 h1        1 LG9      0.075700
     25 HC         -2.4560   -1.9680   -1.9890 ho        1 LG9      0.400000
     26 H7         -1.6480    1.1800   -1.4230 h1        1 LG9      0.074700
     27 H81C       -2.8290    2.4580    0.4110 h1        1 LG9      0.050700
     28 H82C       -3.8660    1.1890   -0.4200 h1        1 LG9      0.050700
     29 H3         -2.6120    0.8370    2.0850 ho        1 LG9      0.414000
     30 H31C        0.0580    2.3950   -1.1050 h1        1 LG9      0.064200
     31 H32C        0.4080    2.8180    0.6320 h1        1 LG9      0.064200
     32 HXT         3.1280    1.2170   -1.6300 ho        1 LG9      0.417000
@<TRIPOS>BOND
     1    1    2 1   
     2    1   16 1   
     3    2    3 1   
     4    2   17 1   
     5    2   18 1   
     6    3    4 1   
     7    3   14 1   
     8    3   19 1   
     9    4    5 1   
    10    4   12 1   
    11    4   20 1   
    12    5    6 1   
    13    5    7 1   
    14    5   22 1   
    15    6   23 1   
    16    7    8 1   
    17    7    9 1   
    18    7   24 1   
    19    8   25 1   
    20    9   10 1   
    21    9   12 1   
    22    9   26 1   
    23   10   11 1   
    24   10   27 1   
    25   10   28 1   
    26   11   29 1   
    27   12   13 1   
    28   13   14 1   
    29   13   30 1   
    30   13   31 1   
    31   14   15 1   
    32   14   21 1   
    33   15   32 1   
@<TRIPOS>SUBSTRUCTURE
     1 LG9         1 TEMP              0 ****  ****    0 ROOT
