@<TRIPOS>MOLECULE
LG9
   32    33     1     0     0
SMALL
bcc


@<TRIPOS>ATOM
      1 O4         -0.1730    0.0380    0.5600 oh        1 LG9     -0.614800
      2 C9          1.2080   -0.1320    0.2710 c3        1 LG9      0.135400
      3 C1          1.9590    0.1260    1.5660 c3        1 LG9     -0.120700
      4 C5          3.4790   -0.0470    1.3810 c3        1 LG9      0.175500
      5 C4          4.0100   -1.3720    1.9790 c3        1 LG9      0.095100
      6 O1          4.4650   -2.1580    0.8920 oh        1 LG9     -0.590800
      7 C6          5.1600   -0.9660    2.9290 c3        1 LG9      0.090100
      8 O2          4.9750   -1.5050    4.2250 oh        1 LG9     -0.589800
      9 C7          5.0790    0.5790    3.0670 c3        1 LG9      0.131500
     10 C8          6.4860    1.1950    2.9600 c3        1 LG9      0.142400
     11 O3          7.1810    0.8060    1.7960 oh        1 LG9     -0.603800
     12 N4          4.1780    1.0890    2.0230 n3        1 LG9     -0.710600
     13 C3          3.1830    2.0570    2.4790 c3        1 LG9      0.152800
     14 C2          1.7740    1.5720    2.0650 c3        1 LG9      0.138100
     15 OXT         0.9430    1.6330    3.2080 oh        1 LG9     -0.598800
     16 H4         -0.6530   -0.1830   -0.2450 ho        1 LG9      0.407000
     17 H91C        1.5200    0.5950   -0.5270 h1        1 LG9      0.034200
     18 H92C        1.4030   -1.1780   -0.0880 h1        1 LG9      0.034200
     19 H1          1.5690   -0.5770    2.3510 hc        1 LG9      0.082700
     20 H5          3.7440   -0.0150    0.2850 h1        1 LG9      0.089700
     21 H2          1.3470    2.2220    1.2550 h1        1 LG9      0.050700
     22 HA          3.2140   -1.9290    2.5440 h1        1 LG9      0.057700
     23 HB          4.8890   -2.9380    1.2700 ho        1 LG9      0.401000
     24 H6          6.1540   -1.2720    2.5040 h1        1 LG9      0.075700
     25 HC          5.1860   -2.4450    4.1680 ho        1 LG9      0.400000
     26 H7          4.6970    0.8180    4.1060 h1        1 LG9      0.074700
     27 H81C        7.1120    0.8070    3.8080 h1        1 LG9      0.050700
     28 H82C        6.4190    2.3140    3.0170 h1        1 LG9      0.050700
     29 H3          6.6590    1.0920    1.0350 ho        1 LG9      0.414000
     30 H31C        3.2080    2.2320    3.5900 h1        1 LG9      0.064200
     31 H32C        3.4130    3.0300    1.9650 h1        1 LG9      0.064200
     32 HXT         0.0830    1.2850    2.9360 ho        1 LG9      0.417000
@<TRIPOS>BOND
     1    1    2 1   
     2    1   16 1   
     3    2    3 1   
     4    2   17 1   
     5    2   18 1   
     6    3    4 1   
     7    3   14 1   
     8    3   19 1   
     9    4    5 1   
    10    4   12 1   
    11    4   20 1   
    12    5    6 1   
    13    5    7 1   
    14    5   22 1   
    15    6   23 1   
    16    7    8 1   
    17    7    9 1   
    18    7   24 1   
    19    8   25 1   
    20    9   10 1   
    21    9   12 1   
    22    9   26 1   
    23   10   11 1   
    24   10   27 1   
    25   10   28 1   
    26   11   29 1   
    27   12   13 1   
    28   13   14 1   
    29   13   30 1   
    30   13   31 1   
    31   14   15 1   
    32   14   21 1   
    33   15   32 1   
@<TRIPOS>SUBSTRUCTURE
     1 LG9         1 TEMP              0 ****  ****    0 ROOT
