@<TRIPOS>MOLECULE
LG9
   32    33     1     0     0
SMALL
bcc


@<TRIPOS>ATOM
      1 O4         -0.1700    0.0290    0.5530 oh        1 LG9     -0.614800
      2 C9          1.2130   -0.1320    0.2640 c3        1 LG9      0.135400
      3 C1          1.9600    0.1210    1.5620 c3        1 LG9     -0.120700
      4 C5          3.4810   -0.0440    1.3790 c3        1 LG9      0.175500
      5 C4          4.0170   -1.3690    1.9710 c3        1 LG9      0.095100
      6 O1          4.4780   -2.1470    0.8800 oh        1 LG9     -0.590800
      7 C6          5.1630   -0.9640    2.9260 c3        1 LG9      0.090100
      8 O2          4.9780   -1.5120    4.2180 oh        1 LG9     -0.589800
      9 C7          5.0750    0.5800    3.0720 c3        1 LG9      0.131500
     10 C8          6.4790    1.2020    2.9720 c3        1 LG9      0.142400
     11 O3          7.1790    0.8240    1.8080 oh        1 LG9     -0.603800
     12 N4          4.1740    1.0910    2.0290 n3        1 LG9     -0.710600
     13 C3          3.1750    2.0540    2.4880 c3        1 LG9      0.152800
     14 C2          1.7680    1.5640    2.0690 c3        1 LG9      0.138100
     15 OXT         0.9360    1.6150    3.2110 oh        1 LG9     -0.598800
     16 H4         -0.6480   -0.1890   -0.2550 ho        1 LG9      0.407000
     17 H91C        1.5230    0.6000   -0.5290 h1        1 LG9      0.034200
     18 H92C        1.4130   -1.1750   -0.1000 h1        1 LG9      0.034200
     19 H1          1.5730   -0.5870    2.3430 hc        1 LG9      0.082700
     20 H5          3.7480   -0.0040    0.2840 h1        1 LG9      0.089700
     21 H2          1.3390    2.2170    1.2620 h1        1 LG9      0.050700
     22 HA          3.2230   -1.9330    2.5300 h1        1 LG9      0.057700
     23 HB          4.9050   -2.9280    1.2540 ho        1 LG9      0.401000
     24 H6          6.1600   -1.2640    2.5000 h1        1 LG9      0.075700
     25 HC          5.1930   -2.4500    4.1560 ho        1 LG9      0.400000
     26 H7          4.6890    0.8100    4.1110 h1        1 LG9      0.074700
     27 H81C        7.1050    0.8130    3.8200 h1        1 LG9      0.050700
     28 H82C        6.4070    2.3210    3.0360 h1        1 LG9      0.050700
     29 H3          6.6580    1.1120    1.0480 ho        1 LG9      0.414000
     30 H31C        3.4010    3.0300    1.9780 h1        1 LG9      0.064200
     31 H32C        3.1970    2.2230    3.6000 h1        1 LG9      0.064200
     32 HXT         0.0780    1.2640    2.9360 ho        1 LG9      0.417000
@<TRIPOS>BOND
     1    1    2 1   
     2    1   16 1   
     3    2    3 1   
     4    2   17 1   
     5    2   18 1   
     6    3    4 1   
     7    3   14 1   
     8    3   19 1   
     9    4    5 1   
    10    4   12 1   
    11    4   20 1   
    12    5    6 1   
    13    5    7 1   
    14    5   22 1   
    15    6   23 1   
    16    7    8 1   
    17    7    9 1   
    18    7   24 1   
    19    8   25 1   
    20    9   10 1   
    21    9   12 1   
    22    9   26 1   
    23   10   11 1   
    24   10   27 1   
    25   10   28 1   
    26   11   29 1   
    27   12   13 1   
    28   13   14 1   
    29   13   30 1   
    30   13   31 1   
    31   14   15 1   
    32   14   21 1   
    33   15   32 1   
@<TRIPOS>SUBSTRUCTURE
     1 LG9         1 TEMP              0 ****  ****    0 ROOT
