@<TRIPOS>MOLECULE
LGA
   12    12     1     0     0
SMALL
bcc


@<TRIPOS>ATOM
      1 N2         61.8060   33.4620   26.2060 nh        1 LGA     -0.930500
      2 C1         62.8500   33.9350   25.4110 ca        1 LGA      0.865900
      3 N1         64.1530   33.7380   25.8660 nb        1 LGA     -0.752000
      4 C4         65.1330   34.1110   25.0300 ca        1 LGA      0.466200
      5 C5         64.9000   34.6840   23.7670 ca        1 LGA     -0.427600
      6 C3         63.5540   34.8670   23.4050 ca        1 LGA      0.466200
      7 N7         62.5230   34.5190   24.1870 nb        1 LGA     -0.752000
      8 H2N1       62.0140   33.2690   27.1570 hn        1 LGA      0.429800
      9 H2N2       60.8950   33.8040   26.0060 hn        1 LGA      0.429800
     10 H4         66.1610   33.9420   25.4010 h4        1 LGA      0.025100
     11 H5         65.7210   34.9750   23.1050 ha        1 LGA      0.154000
     12 H3         63.2790   35.3220   22.4350 h4        1 LGA      0.025100
@<TRIPOS>BOND
     1    1    2 1   
     2    1    8 1   
     3    1    9 1   
     4    2    3 ar  
     5    2    7 ar  
     6    3    4 ar  
     7    4    5 ar  
     8    4   10 1   
     9    5    6 ar  
    10    5   11 1   
    11    6    7 ar  
    12    6   12 1   
@<TRIPOS>SUBSTRUCTURE
     1 LGA         1 TEMP              0 ****  ****    0 ROOT
