@<TRIPOS>MOLECULE
LGA
   13    13     1     0     0
SMALL
bcc


@<TRIPOS>ATOM
      1 N2         -0.1140   -0.0290   -0.0280 n4        1 LGA     -0.814300
      2 C1          1.3790   -0.0260   -0.0170 ca        1 LGA      0.680900
      3 N1          1.9780   -0.0640    1.2160 nb        1 LGA     -0.656000
      4 C4          3.3280   -0.0600    1.1980 ca        1 LGA      0.461200
      5 C5          4.0680   -0.0200   -0.0010 ca        1 LGA     -0.287600
      6 C3          3.3420    0.0170   -1.2090 ca        1 LGA      0.461200
      7 N7          1.9930    0.0150   -1.2450 nb        1 LGA     -0.656000
      8 H2N1       -0.4470    0.8270   -0.4900 hn        1 LGA      0.482800
      9 H2N2       -0.4730   -0.0650    0.9360 hn        1 LGA      0.482800
     10 H4          3.8170   -0.0910    2.1940 h4        1 LGA      0.079600
     11 H5          5.1690   -0.0180    0.0060 ha        1 LGA      0.202000
     12 H3          3.8440    0.0500   -2.1990 h4        1 LGA      0.079600
     13 H23        -0.4440   -0.8490   -0.5510 hn        1 LGA      0.482800
@<TRIPOS>BOND
     1    1    2 1   
     2    1    8 1   
     3    1    9 1   
     4    1   13 1   
     5    2    3 ar  
     6    2    7 ar  
     7    3    4 ar  
     8    4    5 ar  
     9    4   10 1   
    10    5    6 ar  
    11    5   11 1   
    12    6    7 ar  
    13    6   12 1   
@<TRIPOS>SUBSTRUCTURE
     1 LGA         1 TEMP              0 ****  ****    0 ROOT
