@<TRIPOS>MOLECULE
LGA
   12    12     1     0     0
SMALL
bcc


@<TRIPOS>ATOM
      1 N2         -0.0730   -0.1210    0.0200 nh        1 LGA     -0.930500
      2 C1          1.3180   -0.0140    0.0020 ca        1 LGA      0.865900
      3 N1          1.9720    0.1650    1.2200 nb        1 LGA     -0.752000
      4 C4          3.3120    0.1590    1.1770 ca        1 LGA      0.466200
      5 C5          4.0500   -0.0000   -0.0100 ca        1 LGA     -0.427600
      6 C3          3.3040   -0.1490   -1.1930 ca        1 LGA      0.466200
      7 N7          1.9640   -0.1530   -1.2270 nb        1 LGA     -0.752000
      8 H2N1       -0.5400    0.2070    0.8330 hn        1 LGA      0.429800
      9 H2N2       -0.5460   -0.0110   -0.8450 hn        1 LGA      0.429800
     10 H4          3.8180    0.2950    2.1510 h4        1 LGA      0.025100
     11 H5          5.1440   -0.0040   -0.0130 ha        1 LGA      0.154000
     12 H3          3.8020   -0.2660   -2.1730 h4        1 LGA      0.025100
@<TRIPOS>BOND
     1    1    2 1   
     2    1    8 1   
     3    1    9 1   
     4    2    3 ar  
     5    2    7 ar  
     6    3    4 ar  
     7    4    5 ar  
     8    4   10 1   
     9    5    6 ar  
    10    5   11 1   
    11    6    7 ar  
    12    6   12 1   
@<TRIPOS>SUBSTRUCTURE
     1 LGA         1 TEMP              0 ****  ****    0 ROOT
