@<TRIPOS>MOLECULE
LGB
   37    39     1     0     0
SMALL
bcc


@<TRIPOS>ATOM
      1 C1          0.5190    0.6880    0.1130 c3        1 LGB      0.163800
      2 N2          1.8950    0.7790    0.6070 nh        1 LGB     -0.635600
      3 C3          2.0110   -0.0250    1.8450 c3        1 LGB      0.133500
      4 C4          0.7250   -0.8790    2.0020 c3        1 LGB      0.132100
      5 C5         -0.2160   -0.4250    0.8760 c3        1 LGB     -0.143400
      6 C6          2.9360    0.3330   -0.2860 c2        1 LGB      0.766500
      7 O7          3.7750   -0.6180    0.3620 os        1 LGB     -0.439400
      8 C8          3.3000   -0.8580    1.6890 c3        1 LGB      0.095100
      9 N9          3.1410    0.7870   -1.4830 ne        1 LGB     -0.620100
     10 C10         4.2160    0.4110   -2.3080 ca        1 LGB      0.183400
     11 C11         4.6650    1.3640   -3.2700 ca        1 LGB     -0.044300
     12 C12         5.6710    0.9890   -4.1710 ca        1 LGB      0.047400
     13 C13         6.2420   -0.2960   -4.1340 ca        1 LGB     -0.015000
     14 C14         5.8010   -1.2190   -3.1800 ca        1 LGB     -0.083000
     15 C15         4.8050   -0.8690   -2.2790 ca        1 LGB     -0.152000
     16 C16         4.0630    2.7190   -3.2940 c3        1 LGB     -0.055800
     17 CL17        6.2410    2.0840   -5.3440 cl        1 LGB     -0.068400
     18 O18         0.2130   -0.5890    3.2890 oh        1 LGB     -0.584800
     19 C19         7.2610   -0.6740   -5.0500 cg        1 LGB      0.236800
     20 N20         8.0950   -0.9930   -5.7960 n1        1 LGB     -0.353800
     21 C21         4.4190   -0.4160    2.6950 c3        1 LGB      0.621900
     22 F22         4.0830   -0.6680    4.0010 f         1 LGB     -0.225300
     23 F23         5.6030   -1.0770    2.5020 f         1 LGB     -0.225300
     24 F24         4.7340    0.9140    2.6570 f         1 LGB     -0.225300
     25 H1          0.4780    0.5160   -0.9960 h1        1 LGB      0.081700
     26 H1A         0.0480    1.6870    0.3290 h1        1 LGB      0.081700
     27 H3          2.0990    0.6870    2.7160 h1        1 LGB      0.135700
     28 H4          0.9500   -1.9770    1.9240 h1        1 LGB      0.050700
     29 H5         -1.1750   -0.0350    1.2980 hc        1 LGB      0.067700
     30 H5A        -0.4530   -1.2780    0.1960 hc        1 LGB      0.067700
     31 H8          3.1520   -1.9640    1.8000 h1        1 LGB      0.110700
     32 H14         6.2490   -2.2240   -3.1430 ha        1 LGB      0.150000
     33 H15         4.4780   -1.6110   -1.5310 ha        1 LGB      0.153000
     34 H16         4.1930    3.2150   -2.2990 hc        1 LGB      0.058367
     35 H16A        4.5260    3.3750   -4.0710 hc        1 LGB      0.058367
     36 H16B        2.9660    2.6470   -3.5070 hc        1 LGB      0.058367
     37 HO18       -0.6180   -1.0720    3.3770 ho        1 LGB      0.413000
@<TRIPOS>BOND
     1    1    2 1   
     2    1    5 1   
     3    1   25 1   
     4    1   26 1   
     5    2    3 1   
     6    2    6 1   
     7    3    4 1   
     8    3    8 1   
     9    3   27 1   
    10    4    5 1   
    11    4   18 1   
    12    4   28 1   
    13    5   29 1   
    14    5   30 1   
    15    6    7 1   
    16    6    9 2   
    17    7    8 1   
    18    8   21 1   
    19    8   31 1   
    20    9   10 1   
    21   10   11 ar  
    22   10   15 ar  
    23   11   12 ar  
    24   11   16 1   
    25   12   13 ar  
    26   12   17 1   
    27   13   14 ar  
    28   13   19 1   
    29   14   15 ar  
    30   14   32 1   
    31   15   33 1   
    32   16   34 1   
    33   16   35 1   
    34   16   36 1   
    35   18   37 1   
    36   19   20 3   
    37   21   22 1   
    38   21   23 1   
    39   21   24 1   
@<TRIPOS>SUBSTRUCTURE
     1 LGB         1 TEMP              0 ****  ****    0 ROOT
