@<TRIPOS>MOLECULE
LGB
   37    39     1     0     0
SMALL
bcc


@<TRIPOS>ATOM
      1 C1          0.5070    0.6520    0.0960 c3        1 LGB      0.163800
      2 N2          1.8790    0.7670    0.5960 nh        1 LGB     -0.635600
      3 C3          2.0020   -0.0270    1.8400 c3        1 LGB      0.133500
      4 C4          0.7280   -0.8990    1.9970 c3        1 LGB      0.132100
      5 C5         -0.2150   -0.4670    0.8640 c3        1 LGB     -0.143400
      6 C6          2.9300    0.3300   -0.2890 c2        1 LGB      0.766500
      7 O7          3.7800   -0.6040    0.3690 os        1 LGB     -0.439400
      8 C8          3.3040   -0.8420    1.6950 c3        1 LGB      0.095100
      9 N9          3.1340    0.7800   -1.4890 ne        1 LGB     -0.620100
     10 C10         4.2180    0.4140   -2.3070 ca        1 LGB      0.183400
     11 C11         4.6590    1.3670   -3.2720 ca        1 LGB     -0.044300
     12 C12         5.6750    1.0010   -4.1650 ca        1 LGB      0.047400
     13 C13         6.2620   -0.2760   -4.1190 ca        1 LGB     -0.015000
     14 C14         5.8300   -1.2000   -3.1620 ca        1 LGB     -0.082000
     15 C15         4.8250   -0.8580   -2.2670 ca        1 LGB     -0.152000
     16 C16         4.0390    2.7140   -3.3070 c3        1 LGB     -0.055800
     17 CL17        6.2340    2.0970   -5.3420 cl        1 LGB     -0.068400
     18 O18         0.2050   -0.6080    3.2790 oh        1 LGB     -0.584800
     19 C19         7.2910   -0.6450   -5.0280 cg        1 LGB      0.236800
     20 N20         8.1330   -0.9570   -5.7680 n1        1 LGB     -0.353800
     21 C21         4.4120   -0.3770    2.7030 c3        1 LGB      0.621900
     22 F22         4.0730   -0.6240    4.0090 f         1 LGB     -0.225300
     23 F23         5.6060   -1.0210    2.5190 f         1 LGB     -0.225300
     24 F24         4.7070    0.9580    2.6560 f         1 LGB     -0.225300
     25 H1          0.0200    1.6450    0.3040 h1        1 LGB      0.081700
     26 H1A         0.4730    0.4720   -1.0110 h1        1 LGB      0.081700
     27 H3          2.0750    0.6920    2.7070 h1        1 LGB      0.135700
     28 H4          0.9690   -1.9940    1.9280 h1        1 LGB      0.050700
     29 H5         -1.1820   -0.0880    1.2780 hc        1 LGB      0.067700
     30 H5A        -0.4360   -1.3290    0.1890 hc        1 LGB      0.067700
     31 H8          3.1720   -1.9490    1.8130 h1        1 LGB      0.110700
     32 H14         6.2920   -2.1980   -3.1160 ha        1 LGB      0.150000
     33 H15         4.5050   -1.6000   -1.5170 ha        1 LGB      0.153000
     34 H16         4.4970    3.3720   -4.0840 hc        1 LGB      0.058700
     35 H16A        2.9440    2.6260   -3.5240 hc        1 LGB      0.058700
     36 H16B        4.1570    3.2170   -2.3130 hc        1 LGB      0.058700
     37 HO18       -0.6190   -1.1030    3.3670 ho        1 LGB      0.413000
@<TRIPOS>BOND
     1    1    2 1   
     2    1    5 1   
     3    1   25 1   
     4    1   26 1   
     5    2    3 1   
     6    2    6 1   
     7    3    4 1   
     8    3    8 1   
     9    3   27 1   
    10    4    5 1   
    11    4   18 1   
    12    4   28 1   
    13    5   29 1   
    14    5   30 1   
    15    6    7 1   
    16    6    9 2   
    17    7    8 1   
    18    8   21 1   
    19    8   31 1   
    20    9   10 1   
    21   10   11 ar  
    22   10   15 ar  
    23   11   12 ar  
    24   11   16 1   
    25   12   13 ar  
    26   12   17 1   
    27   13   14 ar  
    28   13   19 1   
    29   14   15 ar  
    30   14   32 1   
    31   15   33 1   
    32   16   34 1   
    33   16   35 1   
    34   16   36 1   
    35   18   37 1   
    36   19   20 3   
    37   21   22 1   
    38   21   23 1   
    39   21   24 1   
@<TRIPOS>SUBSTRUCTURE
     1 LGB         1 TEMP              0 ****  ****    0 ROOT
