@<TRIPOS>MOLECULE
LGB
   37    36     1     0     0
SMALL
bcc


@<TRIPOS>ATOM
      1 C1         -2.0140    1.9780    0.8630 c3        1 LGB     -0.073000
      2 N2         -0.4460    1.8030    0.6140 n3        1 LGB     -0.167000
      3 C3          0.1330    2.0520    1.7390 c3        1 LGB     -0.064000
      4 C4         -0.9200    1.6890    2.8510 c3        1 LGB      0.021000
      5 C5         -2.2410    1.4910    2.1310 c3        1 LGB     -0.222000
      6 C6          0.4380    0.8270   -0.1360 c2        1 LGB      0.193000
      7 O7          1.2980    0.2830    0.8060 os        1 LGB     -0.234000
      8 C8          1.3490    1.1630    1.8360 c3        1 LGB     -0.016000
      9 N9          0.2360    0.3730   -1.3780 n1        1 LGB     -0.193000
     10 C10         0.2740   -1.0600   -1.6470 c1        1 LGB      0.044000
     11 C11        -0.2370   -1.5580   -2.8470 c2        1 LGB     -0.037000
     12 C12        -0.1480   -2.9180   -3.1290 c1        1 LGB     -0.031000
     13 C13         0.4440   -3.7700   -2.2240 c1        1 LGB     -0.011000
     14 C14         0.9560   -3.2670   -1.0180 c1        1 LGB     -0.083000
     15 C15         0.8680   -1.9190   -0.7380 c1        1 LGB     -0.152000
     16 C16        -0.8250   -0.6150   -3.8580 c3        1 LGB     -0.181000
     17 CL17       -0.8610   -3.5620   -4.6120 cl        1 LGB      0.010000
     18 O18        -1.0220    2.6870    3.7400 oh        1 LGB     -0.312000
     19 C19         0.5950   -5.2430   -2.5530 c1        1 LGB     -0.093000
     20 N20         0.7100   -6.3500   -2.7980 n1        1 LGB     -0.028000
     21 C21         2.6320    2.0240    1.7330 c3        1 LGB      0.408000
     22 F22         2.8080    2.6710    2.8470 f         1 LGB     -0.154000
     23 F23         2.5030    2.8950    0.7290 f         1 LGB     -0.154000
     24 F24         3.6770    1.2410    1.5080 f         1 LGB     -0.154000
     25 H1         -2.1900    2.9410    0.8930 h1        1 LGB      0.121000
     26 H1A        -2.4830    1.3500    0.2200 h1        1 LGB      0.121000
     27 H3          0.3820    2.9780    1.7940 h1        1 LGB      0.175000
     28 H4         -0.6610    0.8700    3.2990 h1        1 LGB      0.090000
     29 H5         -2.8890    2.0890    2.5550 hc        1 LGB      0.107000
     30 H5A        -2.3810    0.5160    2.0440 hc        1 LGB      0.107000
     31 H8          1.3400    0.6810    2.6820 h1        1 LGB      0.150000
     32 H14         1.3720   -3.8660   -0.3820 ha        1 LGB      0.150000
     33 H15         1.2170   -1.5790    0.0820 ha        1 LGB      0.153000
     34 H16        -0.1970    0.1480   -4.0060 hc        1 LGB      0.097667
     35 H16A       -1.6870   -0.2710   -3.5240 hc        1 LGB      0.097667
     36 H16B       -0.9710   -1.1010   -4.7240 hc        1 LGB      0.097667
     37 HO18       -1.0610    2.3290    4.6080 ho        1 LGB      0.212000
@<TRIPOS>BOND
     1    1    2 1   
     2    1    5 1   
     3    1   25 1   
     4    1   26 1   
     5    2    3 1   
     6    2    6 1   
     7    3    4 1   
     8    3    8 1   
     9    3   27 1   
    10    4    5 1   
    11    4   18 1   
    12    4   28 1   
    13    5   29 1   
    14    5   30 1   
    15    6    7 1   
    16    6    9 1   
    17    7    8 1   
    18    8   21 1   
    19    8   31 1   
    20   10   11 1   
    21   10   15 1   
    22   11   12 1   
    23   11   16 1   
    24   12   17 1   
    25   13   14 1   
    26   13   19 1   
    27   14   32 1   
    28   15   33 1   
    29   16   34 1   
    30   16   35 1   
    31   16   36 1   
    32   18   37 1   
    33   19   20 1   
    34   21   22 1   
    35   21   23 1   
    36   21   24 1   
@<TRIPOS>SUBSTRUCTURE
     1 LGB         1 TEMP              0 ****  ****    0 ROOT
