@<TRIPOS>MOLECULE
LGB
   37    39     1     0     0
SMALL
bcc


@<TRIPOS>ATOM
      1 C1          2.8950   -2.1970    0.7790 c3        1 LGB      0.163800
      2 N2          2.3970   -0.8220    0.8530 nh        1 LGB     -0.635600
      3 C3          3.3840    0.0780    0.2110 c3        1 LGB      0.133500
      4 C4          4.4290   -0.7900   -0.5390 c3        1 LGB      0.132100
      5 C5          4.0950   -2.2460   -0.1810 c3        1 LGB     -0.143400
      6 C6          1.1210   -0.5590    0.2350 c2        1 LGB      0.766500
      7 O7          1.2220    0.5350   -0.6710 os        1 LGB     -0.439400
      8 C8          2.5690    1.0110   -0.7090 c3        1 LGB      0.095100
      9 N9          0.0130   -1.1710    0.5170 ne        1 LGB     -0.620100
     10 C10        -1.2430   -0.8420   -0.0250 ca        1 LGB      0.183400
     11 C11        -2.3920   -1.1350    0.7670 ca        1 LGB     -0.044300
     12 C12        -3.6630   -0.9070    0.2210 ca        1 LGB      0.047400
     13 C13        -3.8160   -0.3940   -1.0800 ca        1 LGB     -0.015000
     14 C14        -2.6820   -0.1010   -1.8440 ca        1 LGB     -0.083000
     15 C15        -1.4140   -0.3200   -1.3230 ca        1 LGB     -0.152000
     16 C16        -2.2190   -1.6670    2.1410 c3        1 LGB     -0.055800
     17 CL17       -5.0690   -1.2440    1.1190 cl        1 LGB     -0.068400
     18 O18         5.6960   -0.3880   -0.0550 oh        1 LGB     -0.584800
     19 C19        -5.1060   -0.1660   -1.6320 cg        1 LGB      0.236800
     20 N20        -6.1570    0.0240   -2.0930 n1        1 LGB     -0.353800
     21 C21         2.5760    2.4960   -0.2060 c3        1 LGB      0.621900
     22 F22         3.8220    3.0670   -0.2660 f         1 LGB     -0.225300
     23 F23         1.7750    3.3170   -0.9550 f         1 LGB     -0.225300
     24 F24         2.1660    2.6680    1.0880 f         1 LGB     -0.225300
     25 H1          3.2200   -2.4630    1.8230 h1        1 LGB      0.081700
     26 H1A         2.0960   -2.9200    0.4670 h1        1 LGB      0.081700
     27 H3          3.8970    0.6690    1.0240 h1        1 LGB      0.135700
     28 H4          4.3790   -0.6240   -1.6490 h1        1 LGB      0.050700
     29 H5          4.9670   -2.7390    0.3160 hc        1 LGB      0.067700
     30 H5A         3.8410   -2.8260   -1.1000 hc        1 LGB      0.067700
     31 H8          2.8990    1.0070   -1.7800 h1        1 LGB      0.110700
     32 H14        -2.7970    0.3070   -2.8600 ha        1 LGB      0.150000
     33 H15        -0.5340   -0.0750   -1.9400 ha        1 LGB      0.153000
     34 H16        -1.6060   -0.9580    2.7530 hc        1 LGB      0.058367
     35 H16A       -3.1950   -1.8210    2.6620 hc        1 LGB      0.058367
     36 H16B       -1.6830   -2.6500    2.1060 hc        1 LGB      0.058367
     37 HO18        6.3520   -0.9590   -0.4740 ho        1 LGB      0.413000
@<TRIPOS>BOND
     1    1    2 1   
     2    1    5 1   
     3    1   25 1   
     4    1   26 1   
     5    2    3 1   
     6    2    6 1   
     7    3    4 1   
     8    3    8 1   
     9    3   27 1   
    10    4    5 1   
    11    4   18 1   
    12    4   28 1   
    13    5   29 1   
    14    5   30 1   
    15    6    7 1   
    16    6    9 2   
    17    7    8 1   
    18    8   21 1   
    19    8   31 1   
    20    9   10 1   
    21   10   11 ar  
    22   10   15 ar  
    23   11   12 ar  
    24   11   16 1   
    25   12   13 ar  
    26   12   17 1   
    27   13   14 ar  
    28   13   19 1   
    29   14   15 ar  
    30   14   32 1   
    31   15   33 1   
    32   16   34 1   
    33   16   35 1   
    34   16   36 1   
    35   18   37 1   
    36   19   20 3   
    37   21   22 1   
    38   21   23 1   
    39   21   24 1   
@<TRIPOS>SUBSTRUCTURE
     1 LGB         1 TEMP              0 ****  ****    0 ROOT
