@<TRIPOS>MOLECULE
LGC
   22    22     1     0     0
SMALL
bcc


@<TRIPOS>ATOM
      1 C1          1.4440   -0.2590   -0.4910 c         1 LGC      0.692600
      2 C2          0.3710   -0.3680   -1.5500 c3        1 LGC      0.033100
      3 O5          1.1490   -0.2280    0.8440 os        1 LGC     -0.420900
      4 O1          2.6530   -0.2850   -0.7240 o         1 LGC     -0.571500
      5 O2          0.7450    0.3140   -2.7320 oh        1 LGC     -0.590800
      6 C3         -0.9640    0.2380   -1.0990 c3        1 LGC      0.108100
      7 O3         -2.0220   -0.2300   -1.9130 oh        1 LGC     -0.601800
      8 C4         -1.2660   -0.2390    0.3310 c3        1 LGC      0.122100
      9 O4         -2.4680    0.3400    0.8060 oh        1 LGC     -0.587800
     10 C5         -0.1460    0.2340    1.2620 c3        1 LGC      0.104100
     11 C6         -0.3350   -0.3230    2.6780 c3        1 LGC      0.138400
     12 O6          0.5680    0.2690    3.5820 oh        1 LGC     -0.589800
     13 HC2         0.2330   -1.4670   -1.7780 h1        1 LGC      0.085700
     14 HO2         1.6690    0.0880   -2.9190 ho        1 LGC      0.436000
     15 HC3        -0.9140    1.3610   -1.1410 h1        1 LGC      0.077700
     16 HO3        -1.8380    0.0770   -2.8110 ho        1 LGC      0.431000
     17 HC4        -1.3520   -1.3610    0.3470 h1        1 LGC      0.063700
     18 HO4        -3.1480    0.1370    0.1480 ho        1 LGC      0.431000
     19 HC5        -0.1090    1.3590    1.2900 h1        1 LGC      0.088700
     20 HC61       -0.2150   -1.4380    2.6700 h1        1 LGC      0.067200
     21 HC62       -1.3590   -0.0380    3.0430 h1        1 LGC      0.067200
     22 HO6         1.4600    0.0520    3.2800 ho        1 LGC      0.415000
@<TRIPOS>BOND
     1    1    2 1   
     2    1    3 1   
     3    1    4 2   
     4    2    5 1   
     5    2    6 1   
     6    2   13 1   
     7    3   10 1   
     8    5   14 1   
     9    6    7 1   
    10    6    8 1   
    11    6   15 1   
    12    7   16 1   
    13    8    9 1   
    14    8   10 1   
    15    8   17 1   
    16    9   18 1   
    17   10   11 1   
    18   10   19 1   
    19   11   12 1   
    20   11   20 1   
    21   11   21 1   
    22   12   22 1   
@<TRIPOS>SUBSTRUCTURE
     1 LGC         1 TEMP              0 ****  ****    0 ROOT
