@<TRIPOS>MOLECULE
LGD
   35    36     1     0     0
SMALL
bcc


@<TRIPOS>ATOM
      1 N1         -2.7990    3.7780    0.1420 n         1 LGD     -0.439100
      2 C2         -2.9300    5.1700    0.1180 c         1 LGD      0.689700
      3 C3         -1.6860    5.9560    0.0440 cc        1 LGD     -0.164200
      4 C4         -0.4770    5.3530    0.0060 cd        1 LGD     -0.058400
      5 F1          1.5690    5.9710   -1.1810 f         1 LGD     -0.228967
      6 F2          0.5510    7.5670   -0.1300 f         1 LGD     -0.228967
      7 F3          1.6450    6.0690    0.9870 f         1 LGD     -0.228967
      8 C5         -0.3610    3.9100    0.0380 ca        1 LGD     -0.102800
      9 C6          0.8760    3.2470    0.0130 ca        1 LGD     -0.092000
     10 C7          0.9540    1.8500    0.0270 ca        1 LGD      0.111600
     11 C8         -0.2500    1.0990    0.0860 ca        1 LGD     -0.078000
     12 C9         -1.4740    1.7320    0.1310 ca        1 LGD     -0.168000
     13 C10        -1.5620    3.1490    0.1040 ca        1 LGD      0.097600
     14 C11         0.7880    6.2150   -0.0760 c3        1 LGD      0.679100
     15 C12         2.5670    0.2940    1.0210 c3        1 LGD      0.198300
     16 N13         2.1960    1.1710   -0.0350 nh        1 LGD     -0.702000
     17 C14         3.1830    1.5880   -0.9770 c3        1 LGD      0.198300
     18 F4          3.7130    0.0400    3.1680 f         1 LGD     -0.237300
     19 F5          4.4910    1.6120    1.8820 f         1 LGD     -0.237300
     20 F6          2.6040    1.8930    2.9260 f         1 LGD     -0.237300
     21 C15         3.3330    0.9670    2.2320 c3        1 LGD      0.587400
     22 F7          4.3470    0.9700   -3.0370 f         1 LGD     -0.237300
     23 F8          3.7810   -0.6930   -1.7550 f         1 LGD     -0.237300
     24 F9          2.2680    0.3420   -2.9270 f         1 LGD     -0.237300
     25 C16         3.3800    0.5540   -2.1580 c3        1 LGD      0.587400
     26 O21        -4.0670    5.6720    0.1570 o         1 LGD     -0.604500
     27 HN1        -3.6240    3.2200    0.1870 hn        1 LGD      0.341500
     28 H3         -1.8200    7.0510    0.0230 ha        1 LGD      0.188000
     29 H9         -2.3940    1.1270    0.1790 ha        1 LGD      0.149000
     30 H8         -0.2130   -0.0030    0.0910 ha        1 LGD      0.151000
     31 H6          1.7980    3.8550   -0.0150 ha        1 LGD      0.155000
     32 H121        1.6520   -0.1850    1.4670 h1        1 LGD      0.095700
     33 H122        3.2620   -0.5020    0.6240 h1        1 LGD      0.095700
     34 H141        2.8950    2.5600   -1.4660 h1        1 LGD      0.095700
     35 H142        4.1940    1.6950   -0.4900 h1        1 LGD      0.095700
@<TRIPOS>BOND
     1    1    2 1   
     2    1   13 1   
     3    1   27 1   
     4    2    3 1   
     5    2   26 2   
     6    3    4 2   
     7    3   28 1   
     8    4    8 1   
     9    4   14 1   
    10    5   14 1   
    11    6   14 1   
    12    7   14 1   
    13    8    9 ar  
    14    8   13 ar  
    15    9   10 ar  
    16    9   31 1   
    17   10   11 ar  
    18   10   16 1   
    19   11   12 ar  
    20   11   30 1   
    21   12   13 ar  
    22   12   29 1   
    23   15   16 1   
    24   15   21 1   
    25   15   32 1   
    26   15   33 1   
    27   16   17 1   
    28   17   25 1   
    29   17   34 1   
    30   17   35 1   
    31   18   21 1   
    32   19   21 1   
    33   20   21 1   
    34   22   25 1   
    35   23   25 1   
    36   24   25 1   
@<TRIPOS>SUBSTRUCTURE
     1 LGD         1 TEMP              0 ****  ****    0 ROOT
