@<TRIPOS>MOLECULE
LGD
   36    37     1     0     0
SMALL
bcc


@<TRIPOS>ATOM
      1 N1         -0.0840   -0.2160    0.0430 n         1 LGD     -0.433100
      2 C2          1.3200   -0.0850   -0.0650 c         1 LGD      0.686700
      3 C3          2.0680    0.0880    1.1950 cc        1 LGD     -0.121200
      4 C4          1.4370    0.1240    2.3880 cd        1 LGD     -0.085400
      5 F1          2.1000   -0.7280    4.5740 f         1 LGD     -0.220967
      6 F2          3.6080    0.3890    3.4790 f         1 LGD     -0.220967
      7 F3          1.9290    1.4260    4.3900 f         1 LGD     -0.220967
      8 C5         -0.0060   -0.0040    2.4720 ca        1 LGD     -0.105800
      9 C6         -0.6940    0.0440    3.6860 ca        1 LGD     -0.025000
     10 C7         -2.0890   -0.0890    3.7230 ca        1 LGD     -0.132400
     11 C8         -2.8160   -0.2800    2.5250 ca        1 LGD     -0.046000
     12 C9         -2.1540   -0.3210    1.3190 ca        1 LGD     -0.160000
     13 C10        -0.7360   -0.1800    1.2520 ca        1 LGD      0.165600
     14 C11         2.2560    0.3000    3.6740 c3        1 LGD      0.682100
     15 C12        -3.8580    1.0080    5.0600 c3        1 LGD      0.038300
     16 N13        -2.7690   -0.0130    5.0280 n4        1 LGD     -0.523800
     17 C14        -3.2200   -1.3470    5.5260 c3        1 LGD      0.038300
     18 F4         -4.3760    3.2690    5.7730 f         1 LGD     -0.201133
     19 F5         -2.4980    2.4300    6.5320 f         1 LGD     -0.201133
     20 F6         -2.6450    3.0640    4.4470 f         1 LGD     -0.201133
     21 C15        -3.3370    2.4480    5.4480 c3        1 LGD      0.638900
     22 F7         -5.0460   -2.9290    5.6120 f         1 LGD     -0.201133
     23 F8         -5.4080   -1.1670    4.3750 f         1 LGD     -0.201133
     24 F9         -4.0610   -2.7300    3.6720 f         1 LGD     -0.201133
     25 C16        -4.4300   -2.0320    4.7860 c3        1 LGD      0.638900
     26 O21         1.8330   -0.1230   -1.1880 o         1 LGD     -0.527500
     27 HN1        -0.6120   -0.3380   -0.7990 hn        1 LGD      0.359500
     28 H3          3.1650    0.1820    1.0830 ha        1 LGD      0.210000
     29 H9         -2.7350   -0.4690    0.3910 ha        1 LGD      0.179000
     30 H8         -3.9120   -0.4190    2.5400 ha        1 LGD      0.164000
     31 H6         -0.1110    0.1940    4.6150 ha        1 LGD      0.168000
     32 H121       -4.3570    1.0830    4.0520 hx        1 LGD      0.147700
     33 H122       -4.6300    0.7130    5.8290 hx        1 LGD      0.147700
     34 H141       -3.5190   -1.2360    6.6110 hx        1 LGD      0.147700
     35 H142       -2.3460   -2.0610    5.4450 hx        1 LGD      0.147700
     36 H131       -2.0490    0.2960    5.7140 hn        1 LGD      0.472800
@<TRIPOS>BOND
     1    1    2 1   
     2    1   13 1   
     3    1   27 1   
     4    2    3 1   
     5    2   26 2   
     6    3    4 2   
     7    3   28 1   
     8    4    8 1   
     9    4   14 1   
    10    5   14 1   
    11    6   14 1   
    12    7   14 1   
    13    8    9 ar  
    14    8   13 ar  
    15    9   10 ar  
    16    9   31 1   
    17   10   11 ar  
    18   10   16 1   
    19   11   12 ar  
    20   11   30 1   
    21   12   13 ar  
    22   12   29 1   
    23   15   16 1   
    24   15   21 1   
    25   15   32 1   
    26   15   33 1   
    27   16   17 1   
    28   16   36 1   
    29   17   25 1   
    30   17   34 1   
    31   17   35 1   
    32   18   21 1   
    33   19   21 1   
    34   20   21 1   
    35   22   25 1   
    36   23   25 1   
    37   24   25 1   
@<TRIPOS>SUBSTRUCTURE
     1 LGD         1 TEMP              0 ****  ****    0 ROOT
