@<TRIPOS>MOLECULE
LGD
   35    31     1     0     0
SMALL
bcc


@<TRIPOS>ATOM
      1 N1          1.3220    0.1940   -3.5230 ne        1 LGD     -0.565400
      2 C2          2.6870    0.0260   -3.5230 c1        1 LGD      0.781900
      3 C3          3.3640   -0.1880   -2.3220 c1        1 LGD     -0.087500
      4 C4          2.6670   -0.2310   -1.1410 c1        1 LGD     -0.039100
      5 F1          3.4450   -0.1750    1.0660 f         1 LGD     -0.228967
      6 F2          4.6220   -1.2500   -0.3780 f         1 LGD     -0.228967
      7 F3          4.6140    0.9510   -0.4310 f         1 LGD     -0.228967
      8 C5          1.2770   -0.0610   -1.1430 ch        1 LGD     -0.124300
      9 C6          0.5520   -0.0940    0.0840 cf        1 LGD     -0.121800
     10 C7         -0.8330    0.0870    0.0840 c1        1 LGD      0.093100
     11 C8         -1.5080    0.3020   -1.1210 c1        1 LGD     -0.065500
     12 C9         -0.7950    0.3350   -2.3280 c1        1 LGD     -0.065500
     13 C10         0.6130    0.1500   -2.3260 cg        1 LGD      0.157000
     14 C11         3.8730   -0.1890   -0.1850 c3        1 LGD      0.648000
     15 C12        -1.5000   -1.1420    2.2080 c3        1 LGD      0.020800
     16 N13        -1.6230    0.0120    1.3360 n3        1 LGD     -0.265400
     17 C14        -2.5080    1.0860    1.6940 c3        1 LGD      0.020800
     18 F4         -2.6830   -3.1240    2.8060 f         1 LGD     -0.237300
     19 F5         -3.8140   -1.5540    1.7100 f         1 LGD     -0.237300
     20 F6         -2.2820   -2.7840    0.6710 f         1 LGD     -0.237300
     21 C15        -2.6020   -2.1910    1.8360 c3        1 LGD      0.587400
     22 F7         -2.5450    3.0930    2.9110 f         1 LGD     -0.237300
     23 F8         -1.3680    1.4730    3.7350 f         1 LGD     -0.237300
     24 F9         -0.6620    2.5660    1.9620 f         1 LGD     -0.237300
     25 C16        -1.7510    2.0950    2.6100 c3        1 LGD      0.587400
     26 O21         3.3050    0.0650   -4.5730 o         1 LGD     -0.562500
     27 HN1         0.8770    0.3360   -4.3150 DU        1 LGD      0.255000
     28 H3          4.3320   -0.3070   -2.3220 ha        1 LGD      0.130500
     29 H9         -1.2670    0.4830   -3.1680 ha        1 LGD      0.092500
     30 H8         -2.4830    0.4310   -1.1230 ha        1 LGD      0.092500
     31 H6          1.0200   -0.2420    0.9170 ha        1 LGD      0.155000
     32 H121       -1.6150   -0.8660    3.1230 h1        1 LGD      0.095700
     33 H122       -0.6150   -1.5440    2.0980 h1        1 LGD      0.095700
     34 H141       -3.3030    0.7150    2.1890 h1        1 LGD      0.095700
     35 H142       -2.8140    1.5440    0.8800 h1        1 LGD      0.095700
@<TRIPOS>BOND
     1    1    2 2   
     2    1   13 1   
     3    2   26 2   
     4    3    4 3   
     5    3   28 1   
     6    4   14 1   
     7    5   14 1   
     8    6   14 1   
     9    7   14 1   
    10    8    9 1   
    11    8   13 3   
    12    9   10 2   
    13    9   31 1   
    14   10   16 2   
    15   11   12 3   
    16   11   30 1   
    17   12   29 1   
    18   15   16 1   
    19   15   21 1   
    20   15   32 1   
    21   15   33 1   
    22   16   17 1   
    23   17   25 1   
    24   17   34 1   
    25   17   35 1   
    26   18   21 1   
    27   19   21 1   
    28   20   21 1   
    29   22   25 1   
    30   23   25 1   
    31   24   25 1   
@<TRIPOS>SUBSTRUCTURE
     1 LGD         1 TEMP              0 ****  ****    0 ROOT
