@<TRIPOS>MOLECULE
LGD
   35    36     1     0     0
SMALL
bcc


@<TRIPOS>ATOM
      1 N1          0.1040    0.0630   -0.1030 ns        1 LGD     -0.439100
      2 C2          1.5010    0.0270   -0.0360 c         1 LGD      0.689700
      3 C3          2.1020   -0.0440    1.3070 cc        1 LGD     -0.164200
      4 C4          1.3330   -0.0690    2.4190 cd        1 LGD     -0.058400
      5 F1          1.6460   -1.2460    4.5380 f         1 LGD     -0.228967
      6 F2          3.3790   -0.2160    3.7510 f         1 LGD     -0.228967
      7 F3          1.7510    0.9210    4.6150 f         1 LGD     -0.228967
      8 C5         -0.1100   -0.0250    2.3300 ca        1 LGD     -0.102800
      9 C6         -0.9420   -0.0350    3.4610 ca        1 LGD     -0.092000
     10 C7         -2.3360   -0.0100    3.3400 ca        1 LGD      0.111600
     11 C8         -2.9080    0.0470    2.0410 ca        1 LGD     -0.078000
     12 C9         -2.1090    0.0780    0.9190 ca        1 LGD     -0.168000
     13 C10        -0.6940    0.0390    1.0330 ca        1 LGD      0.097600
     14 C11         2.0080   -0.1490    3.7940 c3        1 LGD      0.679100
     15 C12        -4.0960    1.0080    4.7110 c3        1 LGD      0.197800
     16 N13        -3.1840   -0.0580    4.4730 nh        1 LGD     -0.702000
     17 C14        -2.9190   -0.9950    5.5150 c3        1 LGD      0.197800
     18 F4         -4.4890    3.1650    5.7970 f         1 LGD     -0.237300
     19 F5         -3.0540    1.8720    6.7960 f         1 LGD     -0.237300
     20 F6         -2.5000    2.9010    4.9610 f         1 LGD     -0.237300
     21 C15        -3.5260    2.2190    5.5570 c3        1 LGD      0.587400
     22 F7         -3.7130   -3.0420    6.5930 f         1 LGD     -0.237300
     23 F8         -5.2690   -1.7510    5.7900 f         1 LGD     -0.237300
     24 F9         -4.0410   -2.9420    4.4460 f         1 LGD     -0.237300
     25 C16        -3.9810   -2.1670    5.5710 c3        1 LGD      0.587400
     26 O21         2.1590    0.0540   -1.0910 o         1 LGD     -0.604500
     27 HN1        -0.3310    0.1080   -0.9990 hn        1 LGD      0.341500
     28 H3          3.2040   -0.0750    1.3300 ha        1 LGD      0.188000
     29 H9         -2.5770    0.1250   -0.0770 ha        1 LGD      0.149000
     30 H8         -4.0040    0.0610    1.9220 ha        1 LGD      0.151000
     31 H6         -0.4710   -0.0620    4.4590 ha        1 LGD      0.155000
     32 H121       -4.4360    1.4520    3.7350 h1        1 LGD      0.095700
     33 H122       -4.9850    0.6230    5.2880 h1        1 LGD      0.095700
     34 H141       -2.9520   -0.5020    6.5280 h1        1 LGD      0.095700
     35 H142       -1.9210   -1.4940    5.3700 h1        1 LGD      0.095700
@<TRIPOS>BOND
     1    1    2 1   
     2    1   13 1   
     3    1   27 1   
     4    2    3 1   
     5    2   26 2   
     6    3    4 2   
     7    3   28 1   
     8    4    8 1   
     9    4   14 1   
    10    5   14 1   
    11    6   14 1   
    12    7   14 1   
    13    8    9 ar  
    14    8   13 ar  
    15    9   10 ar  
    16    9   31 1   
    17   10   11 ar  
    18   10   16 1   
    19   11   12 ar  
    20   11   30 1   
    21   12   13 ar  
    22   12   29 1   
    23   15   16 1   
    24   15   21 1   
    25   15   32 1   
    26   15   33 1   
    27   16   17 1   
    28   17   25 1   
    29   17   34 1   
    30   17   35 1   
    31   18   21 1   
    32   19   21 1   
    33   20   21 1   
    34   22   25 1   
    35   23   25 1   
    36   24   25 1   
@<TRIPOS>SUBSTRUCTURE
     1 LGD         1 TEMP              0 ****  ****    0 ROOT
