@<TRIPOS>MOLECULE
LGE
   44    44     1     0     0
SMALL
bcc


@<TRIPOS>ATOM
      1 C01        -0.6530   -0.4170   -0.0890 c2        1 LGE     -0.168000
      2 C02         0.7820   -0.5410   -0.3080 c2        1 LGE     -0.213000
      3 C03         1.1470   -0.1470    2.0440 c1        1 LGE      0.266000
      4 C04        -1.1230   -0.0490    1.1270 c2        1 LGE     -0.027000
      5 C05        -2.5590    0.0680    1.3990 c2        1 LGE      0.023000
      6 C06        -3.3260   -1.0360    1.7150 c2        1 LGE     -0.107000
      7 C07        -3.2250    1.3220    1.3260 c2        1 LGE     -0.218000
      8 C08         1.4990   -1.5980    0.1290 c2        1 LGE     -0.048000
      9 C09        -0.1540    0.1770    2.1940 c2        1 LGE     -0.397000
     10 C10        -4.7380   -0.8620    1.9200 c2        1 LGE     -0.014000
     11 C11        -4.6210    1.3970    1.5380 c2        1 LGE      0.039000
     12 C12        -5.3260   -2.2370    2.2210 c2        1 LGE      0.343000
     13 C13        -2.6970   -5.7180    0.1490 c2        1 LGE      0.232000
     14 C14        -2.9860   -2.4890    1.9270 c3        1 LGE     -0.002000
     15 C15        -5.3300    2.7120    1.4600 c3        1 LGE     -0.192000
     16 C16        -2.7430   -6.0750   -2.2070 c3        1 LGE     -0.061000
     17 C17        -2.4140    2.5490    1.1060 c3        1 LGE     -0.071000
     18 N19        -5.3820    0.2970    1.8330 n2        1 LGE     -0.053000
     19 N20        -4.2490   -3.1230    2.2770 n         1 LGE     -0.378000
     20 N21        -1.9420    2.6450   -0.3140 n4        1 LGE     -0.074000
     21 O22        -6.5120   -2.5080    2.4040 o         1 LGE     -0.265000
     22 O23        -1.8200   -4.8670   -0.0770 o         1 LGE     -0.385000
     23 O24        -3.2230   -6.4130   -0.9030 os        1 LGE     -0.261000
     24 CL25        3.1380   -1.7770   -0.1770 cl        1 LGE      0.056000
     25 CL26       -0.6600    0.8100    3.6870 cl        1 LGE      0.053000
     26 H01        -1.3120   -0.6710   -0.9340 ha        1 LGE      0.160000
     27 H02         1.2500    0.2630   -0.9020 ha        1 LGE      0.156000
     28 H03         1.0580   -2.4450    0.6820 h4        1 LGE      0.177000
     29 H14        -2.5330   -2.9500    1.0030 h1        1 LGE      0.126000
     30 H14A       -2.2590   -2.6030    2.7800 h1        1 LGE      0.126000
     31 H15        -5.0510    3.2440    0.5180 hc        1 LGE      0.108667
     32 H15A       -5.0510    3.3410    2.3420 hc        1 LGE      0.108667
     33 H15B       -6.4440    2.5860    1.4690 hc        1 LGE      0.108667
     34 H16        -1.6410   -6.2460   -2.2620 h1        1 LGE      0.100000
     35 H16A       -2.9820   -5.0080   -2.4330 h1        1 LGE      0.100000
     36 H16B       -3.3060   -6.7750   -2.8740 h1        1 LGE      0.100000
     37 H17        -1.4930    2.5230    1.7660 hx        1 LGE      0.160000
     38 H17A       -2.9960    3.4880    1.3390 hx        1 LGE      0.160000
     39 H18        -4.3620   -4.1090    2.1720 hn        1 LGE      0.282000
     40 H18A       -3.0870   -6.8320    2.0140 ha        1 LGE      0.127000
     41 HN21       -1.3870    1.8060   -0.5420 hn        1 LGE      0.253333
     42 HN2A       -1.3640    3.4800   -0.4390 hn        1 LGE      0.253333
     43 C18        -3.3490   -5.9510    1.4180 c1        1 LGE      0.063000
     44 H213       -2.7440    2.6910   -0.9490 hn        1 LGE      0.253333
@<TRIPOS>BOND
     1    1    2 1   
     2    1    4 1   
     3    1   26 1   
     4    2    8 1   
     5    2   27 1   
     6    3    9 1   
     7    4    5 1   
     8    4    9 1   
     9    5    6 1   
    10    5    7 1   
    11    6   10 1   
    12    6   14 1   
    13    7   11 1   
    14    7   17 1   
    15    8   24 1   
    16    8   28 1   
    17    9   25 1   
    18   10   12 1   
    19   10   18 1   
    20   11   15 1   
    21   11   18 1   
    22   12   19 1   
    23   12   21 1   
    24   13   22 1   
    25   13   23 1   
    26   13   43 1   
    27   14   19 1   
    28   14   29 1   
    29   14   30 1   
    30   15   31 1   
    31   15   32 1   
    32   15   33 1   
    33   16   23 1   
    34   16   34 1   
    35   16   35 1   
    36   16   36 1   
    37   17   20 1   
    38   17   37 1   
    39   17   38 1   
    40   19   39 1   
    41   20   41 1   
    42   20   42 1   
    43   20   44 1   
    44   40   43 1   
@<TRIPOS>SUBSTRUCTURE
     1 LGE         1 TEMP              0 ****  ****    0 ROOT
