@<TRIPOS>MOLECULE
LGE
   43    45     1     0     0
SMALL
bcc


@<TRIPOS>ATOM
      1 C01        -1.9840   -0.6100    1.4490 ca        1 LGE     -0.074000
      2 C02        -2.8980   -1.6540    1.5580 ca        1 LGE     -0.128000
      3 C03        -3.1420   -1.6850   -0.8580 ca        1 LGE     -0.130000
      4 C04        -1.6280   -0.0920    0.1950 cp        1 LGE     -0.051000
      5 C05        -0.6400    0.9890    0.1190 cp        1 LGE      0.031000
      6 C06         0.6670    0.7410   -0.2760 ca        1 LGE     -0.179600
      7 C07        -0.9670    2.3210    0.4610 ca        1 LGE     -0.156600
      8 C08        -3.4730   -2.1900    0.4010 ca        1 LGE      0.030400
      9 C09        -2.2200   -0.6370   -0.9560 ca        1 LGE      0.033400
     10 C10         1.5950    1.8250   -0.3220 ca        1 LGE      0.355800
     11 C11         0.0230    3.3320    0.3820 ca        1 LGE      0.402600
     12 C12         2.9290    1.2760   -0.7650 c         1 LGE      0.607000
     13 C13         4.1170   -1.7730    0.1370 c         1 LGE      0.596100
     14 C14         1.3690   -0.5220   -0.6990 c3        1 LGE      0.120300
     15 C15        -0.3340    4.7450    0.7240 c3        1 LGE     -0.149400
     16 C16         5.8080   -2.9870    1.2900 c3        1 LGE      0.125700
     17 C17        -2.3650    2.6570    0.8970 c3        1 LGE      0.198100
     18 N19         1.3070    3.0910   -0.0110 nb        1 LGE     -0.590000
     19 N20         2.7220   -0.0930   -1.0680 n         1 LGE     -0.467800
     20 N21        -2.5450    2.5600    2.3280 n3        1 LGE     -0.913800
     21 O22         4.0010    1.8710   -0.8940 o         1 LGE     -0.566500
     22 O23         3.3970   -2.0120    1.1080 o         1 LGE     -0.544000
     23 O24         5.3960   -2.2500    0.1370 os        1 LGE     -0.433900
     24 CL25       -4.5890   -3.4650    0.5240 cl        1 LGE     -0.080400
     25 CL26       -1.8430   -0.0380   -2.5020 cl        1 LGE     -0.078400
     26 H01        -1.5430   -0.1700    2.3590 ha        1 LGE      0.165000
     27 H02        -3.1660   -2.0500    2.5490 ha        1 LGE      0.156000
     28 H03        -3.6020   -2.1050   -1.7670 ha        1 LGE      0.163000
     29 H14         1.3960   -1.2740    0.1410 h1        1 LGE      0.086700
     30 H14A        0.8710   -0.9830   -1.5960 h1        1 LGE      0.086700
     31 H15        -0.8160    4.7830    1.7310 hc        1 LGE      0.056367
     32 H15A        0.5650    5.4120    0.7410 hc        1 LGE      0.056367
     33 H15B       -1.0500    5.1420   -0.0380 hc        1 LGE      0.056367
     34 H16         5.7300   -2.3440    2.2000 h1        1 LGE      0.053367
     35 H16A        5.1700   -3.8960    1.4070 h1        1 LGE      0.053367
     36 H16B        6.8690   -3.2550    1.0650 h1        1 LGE      0.053367
     37 H17        -2.6280    3.6810    0.4900 h1        1 LGE      0.043700
     38 H17A       -3.0850    1.9260    0.4220 h1        1 LGE      0.043700
     39 H18         4.7230   -0.4830   -1.4860 h1        1 LGE      0.101700
     40 H18A        3.5300   -1.8180   -1.9110 h1        1 LGE      0.101700
     41 HN21       -1.8640    3.1060    2.8180 hn        1 LGE      0.354300
     42 HN2A       -3.4630    2.8710    2.5800 hn        1 LGE      0.354300
     43 C18         3.7930   -1.0290   -1.1470 c3        1 LGE      0.057000
@<TRIPOS>BOND
     1    1    2 ar  
     2    1    4 ar  
     3    1   26 1   
     4    2    8 ar  
     5    2   27 1   
     6    3    8 ar  
     7    3    9 ar  
     8    3   28 1   
     9    4    5 1   
    10    4    9 ar  
    11    5    6 ar  
    12    5    7 ar  
    13    6   10 ar  
    14    6   14 1   
    15    7   11 ar  
    16    7   17 1   
    17    8   24 1   
    18    9   25 1   
    19   10   12 1   
    20   10   18 ar  
    21   11   15 1   
    22   11   18 ar  
    23   12   19 1   
    24   12   21 2   
    25   13   22 2   
    26   13   23 1   
    27   13   43 1   
    28   14   19 1   
    29   14   29 1   
    30   14   30 1   
    31   15   31 1   
    32   15   32 1   
    33   15   33 1   
    34   16   23 1   
    35   16   34 1   
    36   16   35 1   
    37   16   36 1   
    38   17   20 1   
    39   17   37 1   
    40   17   38 1   
    41   19   43 1   
    42   20   41 1   
    43   20   42 1   
    44   39   43 1   
    45   40   43 1   
@<TRIPOS>SUBSTRUCTURE
     1 LGE         1 TEMP              0 ****  ****    0 ROOT
