@<TRIPOS>MOLECULE
LGE
   44    45     1     0     0
SMALL
bcc


@<TRIPOS>ATOM
      1 C01        -0.2500   -0.1480   -0.0110 c2        1 LGE     -0.166000
      2 C02         1.2030   -0.1100   -0.0940 c2        1 LGE     -0.212000
      3 C03         1.2960    0.1600    2.3140 c1        1 LGE      0.269000
      4 C04        -0.8710    0.0910    1.1680 c2        1 LGE     -0.032000
      5 C05        -2.3320    0.0650    1.2940 c2        1 LGE      0.026000
      6 C06        -3.0270   -1.1220    1.4250 c2        1 LGE     -0.098000
      7 C07        -3.0960    1.2630    1.2600 c2        1 LGE     -0.211000
      8 C08         1.9940   -1.0990    0.3700 c2        1 LGE     -0.052000
      9 C09        -0.0410    0.3330    2.3440 c2        1 LGE     -0.400000
     10 C10        -4.4600   -1.0770    1.4970 c2        1 LGE     -0.012000
     11 C11        -4.5060    1.2100    1.3410 c2        1 LGE      0.039000
     12 C12        -4.9610   -2.5080    1.5860 c2        1 LGE      0.343000
     13 C13        -3.5120   -5.0050   -0.1510 c2        1 LGE      0.272000
     14 C14        -2.5800   -2.5570    1.5110 c3        1 LGE     -0.009000
     15 C15        -5.3170    2.4680    1.3140 c3        1 LGE     -0.193000
     16 C16        -3.6590   -6.6280   -1.8850 c3        1 LGE     -0.065000
     17 C17        -2.3790    2.5670    1.2070 c3        1 LGE     -0.073000
     18 N19        -5.1930    0.0310    1.4570 n2        1 LGE     -0.049000
     19 N20        -3.8140   -3.3330    1.6750 n         1 LGE     -0.308000
     20 N21        -1.7940    2.8130   -0.1520 nz        1 LGE     -0.073000
     21 O22        -6.1290   -2.8870    1.6180 o         1 LGE     -0.243000
     22 O23        -2.9010   -4.2970   -0.9570 o         1 LGE     -0.376000
     23 O24        -3.9450   -6.2330   -0.5390 os        1 LGE     -0.256000
     24 Cl25        3.6640   -1.0830    0.2140 cl        1 LGE      0.060000
     25 Cl26       -0.7580    0.7880    3.8170 cl        1 LGE      0.054000
     26 H01        -0.7970   -0.4040   -0.9330 ha        1 LGE      0.165000
     27 H02         1.6300    0.7650   -0.6150 ha        1 LGE      0.158000
     28 H03         1.6070   -2.0140    0.8510 h4        1 LGE      0.172000
     29 H14        -1.9260   -2.7220    2.4130 h1        1 LGE      0.135500
     30 H14A       -2.0210   -2.8640    0.5810 h1        1 LGE      0.135500
     31 H15        -6.4150    2.2550    1.2250 hc        1 LGE      0.110333
     32 H15A       -5.0160    3.1000    0.4440 hc        1 LGE      0.110333
     33 H15B       -5.1570    3.0370    2.2640 hc        1 LGE      0.110333
     34 H16        -4.1370   -5.9150   -2.5980 h1        1 LGE      0.099667
     35 H16A       -2.5540   -6.6540   -2.0460 h1        1 LGE      0.099667
     36 H16B       -4.1110   -7.6490   -1.9560 h1        1 LGE      0.099667
     37 H17        -1.5210    2.5640    1.9480 hx        1 LGE      0.161000
     38 H17A       -3.0600    3.4340    1.4500 hx        1 LGE      0.161000
     39 H18        -3.1020   -5.2770    1.9300 h1        1 LGE      0.154000
     40 H18A       -4.8860   -5.1170    1.5170 h1        1 LGE      0.154000
     41 HN21       -1.1510    2.0420   -0.3880 hn        1 LGE      0.254333
     42 HN2A       -1.2820    3.6980   -0.1620 hn        1 LGE      0.254333
     43 C18        -3.8510   -4.7130    1.3000 c3        1 LGE     -0.024000
     44 H213       -2.5390    2.8440   -0.8550 hn        1 LGE      0.254333
@<TRIPOS>BOND
     1    1    2 1   
     2    1    4 1   
     3    1   26 1   
     4    2    8 1   
     5    2   27 1   
     6    3    9 1   
     7    4    5 1   
     8    4    9 1   
     9    5    6 1   
    10    5    7 1   
    11    6   10 1   
    12    6   14 1   
    13    7   11 1   
    14    7   17 1   
    15    8   24 1   
    16    8   28 1   
    17    9   25 1   
    18   10   12 1   
    19   10   18 1   
    20   11   15 1   
    21   11   18 1   
    22   12   19 1   
    23   12   21 1   
    24   13   22 1   
    25   13   23 1   
    26   13   43 1   
    27   14   19 1   
    28   14   29 1   
    29   14   30 1   
    30   15   31 1   
    31   15   32 1   
    32   15   33 1   
    33   16   23 1   
    34   16   34 1   
    35   16   35 1   
    36   16   36 1   
    37   17   20 1   
    38   17   37 1   
    39   17   38 1   
    40   19   43 1   
    41   20   41 1   
    42   20   42 1   
    43   20   44 1   
    44   39   43 1   
    45   40   43 1   
@<TRIPOS>SUBSTRUCTURE
     1 LGE         1 TEMP              0 ****  ****    0 ROOT
