@<TRIPOS>MOLECULE
LGE
   43    39     1     0     0
SMALL
bcc


@<TRIPOS>ATOM
      1 C01         3.1400   -0.2230   -1.3980 c1        1 LGE     -0.100000
      2 C02         4.5330   -0.2870   -1.3860 c1        1 LGE     -0.125000
      3 C03         4.5590    0.6180    0.8320 c1        1 LGE     -0.121000
      4 C04         2.4650    0.2590   -0.3000 c1        1 LGE     -0.050000
      5 C05         0.9360    0.4670   -0.3680 c1        1 LGE      0.017000
      6 C06        -0.1500   -0.3810   -0.1930 c2        1 LGE     -0.109000
      7 C07         0.9190    1.4200   -1.3780 c1        1 LGE     -0.127000
      8 C08         5.2360    0.1340   -0.2720 c1        1 LGE     -0.048000
      9 C09         3.1790    0.6830    0.8240 c2        1 LGE     -0.040000
     10 C10        -1.2430   -0.2780   -1.0210 c1        1 LGE     -0.062000
     11 C11        -0.1830    1.5240   -2.2130 c1        1 LGE     -0.017000
     12 C12        -2.3670   -1.1970   -0.4460 c2        1 LGE      0.353000
     13 C13        -3.6100   -1.9880    2.4780 c1        1 LGE      0.267000
     14 C14        -0.4790   -1.4070    0.9020 c3        1 LGE     -0.002000
     15 C15        -0.3940    1.7120   -3.6770 c3        1 LGE     -0.178000
     16 C16        -5.5100   -2.2530    3.9170 c3        1 LGE     -0.064000
     17 C17         1.6410    2.7830   -1.4370 c3        1 LGE     -0.048000
     18 C18        -2.6070   -2.7650    1.6270 c3        1 LGE     -0.010000
     19 N19        -1.2580    0.6870   -2.0430 n1        1 LGE     -0.064000
     20 N20        -1.8620   -1.8140    0.7400 n         1 LGE     -0.327000
     21 N21         0.8130    3.7720   -0.8960 n3        1 LGE     -0.332000
     22 O22        -3.4850   -1.2980   -0.8740 o         1 LGE     -0.288000
     23 O23        -3.3070   -0.9520    2.9390 o         1 LGE     -0.354000
     24 O24        -4.9480   -2.4680    2.6200 o         1 LGE     -0.271000
     25 CL25        6.9890    0.1110   -0.2830 cl        1 LGE      0.004000
     26 CL26        2.9200    1.3130    2.4340 cl        1 LGE      0.008000
     27 H01         2.6490   -0.5170   -2.1760 ha        1 LGE      0.151000
     28 H02         5.0170   -0.6310   -2.1700 ha        1 LGE      0.156000
     29 H03         5.0550    0.9140    1.6130 ha        1 LGE      0.167000
     30 H14        -0.3500   -0.9880    1.8110 h1        1 LGE      0.124500
     31 H14A        0.1060   -2.1860    0.8110 h1        1 LGE      0.124500
     32 H15        -1.2190    2.2380   -3.8260 hc        1 LGE      0.099000
     33 H15A       -0.4800    0.8570   -4.1000 hc        1 LGE      0.099000
     34 H15B        0.3560    2.1810   -4.0520 hc        1 LGE      0.099000
     35 H16        -6.4610   -2.4240    3.8890 h1        1 LGE      0.093000
     36 H16A       -5.0790   -2.8740    4.5740 h1        1 LGE      0.093000
     37 H16B       -5.3510   -1.3140    4.1960 h1        1 LGE      0.093000
     38 H17         2.4440    2.7360   -0.9400 h1        1 LGE      0.106000
     39 H17A        1.8470    3.0050   -2.3700 h1        1 LGE      0.106000
     40 H18        -3.0760   -3.4090    1.0870 h1        1 LGE      0.140500
     41 H18A       -1.9840   -3.2230    2.2020 h1        1 LGE      0.140500
     42 HN21        0.4190    3.4610   -0.1680 hn        1 LGE      0.148500
     43 HN2A        0.1790    4.0020   -1.5090 hn        1 LGE      0.148500
@<TRIPOS>BOND
     1    1    4 1   
     2    1   27 1   
     3    2    8 1   
     4    2   28 1   
     5    3    9 1   
     6    3   29 1   
     7    4    9 1   
     8    5    6 1   
     9    5    7 1   
    10    6   10 1   
    11    6   14 1   
    12    7   17 1   
    13    8   25 1   
    14    9   26 1   
    15   10   12 1   
    16   11   15 1   
    17   11   19 1   
    18   12   20 1   
    19   12   22 1   
    20   13   18 1   
    21   13   23 1   
    22   14   20 1   
    23   14   30 1   
    24   14   31 1   
    25   15   32 1   
    26   15   33 1   
    27   15   34 1   
    28   16   24 1   
    29   16   35 1   
    30   16   36 1   
    31   16   37 1   
    32   17   21 1   
    33   17   38 1   
    34   17   39 1   
    35   18   20 1   
    36   18   40 1   
    37   18   41 1   
    38   21   42 1   
    39   21   43 1   
@<TRIPOS>SUBSTRUCTURE
     1 LGE         1 TEMP              0 ****  ****    0 ROOT
