@<TRIPOS>MOLECULE
LGE
   44    45     1     0     0
SMALL
bcc


@<TRIPOS>ATOM
      1 C01         0.2130    1.0330   -0.1110 c2        1 LGE     -0.123000
      2 C02         1.6300    1.3190    0.0540 c2        1 LGE     -0.184000
      3 C03         1.5580    0.0470    2.1750 c1        1 LGE      0.249000
      4 C04        -0.4890    0.4150    0.8670 c2        1 LGE     -0.041000
      5 C05        -1.9090    0.1120    0.6970 c2        1 LGE      0.041000
      6 C06        -2.4000   -1.1400    0.5720 c2        1 LGE     -0.185000
      7 C07        -2.8630    1.2900    0.6770 c3        1 LGE      0.028000
      8 C08         2.5850    0.3670    0.0470 c2        1 LGE     -0.079000
      9 C09         0.2150    0.0330    2.0890 c2        1 LGE     -0.391000
     10 C10        -3.8310   -1.3340    0.2940 c2        1 LGE      0.176000
     11 C11        -4.2770    0.9170    0.2520 c2        1 LGE      0.163000
     12 C12        -4.0350   -2.7320    0.2220 c2        1 LGE     -0.100000
     13 C13        -4.7910   -5.6600   -0.0630 c2        1 LGE      0.298000
     14 C14        -1.7790   -2.5110    0.6980 c3        1 LGE     -0.032000
     15 C15        -5.1710    2.0870    0.0250 c3        1 LGE     -0.211000
     16 C16        -4.5080   -7.9100    0.6460 c3        1 LGE     -0.066000
     17 C17        -2.9610    1.8880    2.0140 c2        1 LGE     -0.754000
     18 N19        -4.7290   -0.3150    0.1050 n2        1 LGE     -0.186000
     19 N20        -2.8630   -3.5010    0.4800 n3        1 LGE     -0.227000
     20 N21        -1.9190    2.6870    2.5370 n4        1 LGE      0.120000
     21 O22        -5.3070   -3.2160    0.1250 os        1 LGE      0.118000
     22 O23        -3.8370   -5.8240   -0.8250 o         1 LGE     -0.299000
     23 O24        -5.2270   -6.6680    0.7320 os        1 LGE     -0.239000
     24 CL25        4.2220    0.7170    0.1860 cl        1 LGE      0.046000
     25 CL26       -0.6680   -0.4460    3.4630 cl        1 LGE      0.041000
     26 H01        -0.2500    1.3580   -1.0560 ha        1 LGE      0.163000
     27 H02         1.8870    2.3910    0.1460 ha        1 LGE      0.167000
     28 H03         2.3810   -0.7050   -0.1060 h4        1 LGE      0.167000
     29 H14        -0.9410   -2.6520   -0.0360 h1        1 LGE      0.129500
     30 H14A       -1.3860   -2.6720    1.7410 h1        1 LGE      0.129500
     31 H15        -4.8220    2.6390   -0.8850 hc        1 LGE      0.128333
     32 H15A       -5.0840    2.7680    0.9130 hc        1 LGE      0.128333
     33 H15B       -6.2410    1.7970   -0.1190 hc        1 LGE      0.128333
     34 H16        -4.5670   -8.3070   -0.3960 h1        1 LGE      0.113333
     35 H16A       -3.4450   -7.7500    0.9470 h1        1 LGE      0.113333
     36 H16B       -5.0540   -8.5620    1.3740 h1        1 LGE      0.113333
     37 H17        -2.4630    2.0270   -0.0850 hc        1 LGE      0.108000
     38 H17A       -3.7020    1.5360    2.7310 hx        1 LGE      0.167000
     39 H18        -2.6480   -4.1360   -0.2750 hn        1 LGE      0.207000
     40 H18A       -6.7600   -4.5830    0.0440 h4        1 LGE      0.243000
     41 HN21       -1.0570    2.1510    2.7150 hn        1 LGE      0.196000
     42 HN2A       -2.2350    3.0990    3.4170 hn        1 LGE      0.196000
     43 C18        -5.6520   -4.4660    0.0480 c2        1 LGE      0.043000
     44 H213       -1.6820    3.4390    1.8840 hn        1 LGE      0.196000
@<TRIPOS>BOND
     1    1    2 1   
     2    1    4 1   
     3    1   26 1   
     4    2    8 1   
     5    2   27 1   
     6    3    9 1   
     7    4    5 1   
     8    4    9 1   
     9    5    6 1   
    10    5    7 1   
    11    6   10 1   
    12    6   14 1   
    13    7   11 1   
    14    7   17 1   
    15    7   37 1   
    16    8   24 1   
    17    8   28 1   
    18    9   25 1   
    19   10   12 1   
    20   10   18 1   
    21   11   15 1   
    22   11   18 1   
    23   12   19 1   
    24   12   21 1   
    25   13   22 1   
    26   13   23 1   
    27   13   43 1   
    28   14   19 1   
    29   14   29 1   
    30   14   30 1   
    31   15   31 1   
    32   15   32 1   
    33   15   33 1   
    34   16   23 1   
    35   16   34 1   
    36   16   35 1   
    37   16   36 1   
    38   17   20 1   
    39   17   38 1   
    40   19   39 1   
    41   20   41 1   
    42   20   42 1   
    43   20   44 1   
    44   21   43 1   
    45   40   43 1   
@<TRIPOS>SUBSTRUCTURE
     1 LGE         1 TEMP              0 ****  ****    0 ROOT
