@<TRIPOS>MOLECULE
LGF
   64    69     1     0     0
SMALL
bcc


@<TRIPOS>ATOM
      1 C13        -0.6950    0.1580   -0.0710 ca        1 LGF      0.164900
      2 C18         1.6980   -1.3220    9.3050 ce        1 LGF     -0.290800
      3 C16         1.1320   -2.0430    8.1280 c         1 LGF      0.688300
      4 C15        -0.4350    0.1490    2.3300 ca        1 LGF     -0.071000
      5 C19         2.5120   -1.9270   10.1960 c2        1 LGF     -0.013200
      6 C21         1.2540    0.0690    9.5670 ce        1 LGF      0.721900
      7 C22         1.9970   -0.0270   11.7330 cf        1 LGF      0.657300
      8 C23         3.0120   -1.1530   11.3530 c3        1 LGF     -0.141600
      9 C24         3.2010   -1.8040   12.6970 cf        1 LGF     -0.302400
     10 C11         1.5260    0.1950    0.9020 ca        1 LGF      0.196900
     11 C12         0.6980    0.1860   -0.2350 ca        1 LGF     -0.217000
     12 C27         3.9810   -3.0010   12.9030 c         1 LGF      0.557300
     13 F33        -1.4960    0.1490   -1.1610 f         1 LGF     -0.129900
     14 C14        -1.2650    0.1370    1.2170 ca        1 LGF     -0.186000
     15 F32         2.8650    0.2090    0.7290 f         1 LGF     -0.112900
     16 C10         0.9580    0.1760    2.1970 ca        1 LGF     -0.173500
     17 C9          1.8110    0.2220    3.3820 cc        1 LGF      0.454000
     18 N8          2.8130    1.1170    3.6110 nd        1 LGF     -0.637000
     19 N5          1.6970   -0.6740    4.4610 na        1 LGF     -0.180900
     20 C6          2.6780   -0.3150    5.3950 cc        1 LGF     -0.238900
     21 C7          3.3520    0.7960    4.8480 cd        1 LGF      0.308200
     22 C4          2.8870   -1.0580    6.6700 c3        1 LGF      0.170300
     23 N3          1.8720   -2.0570    6.9440 n         1 LGF     -0.455800
     24 C2          1.3310   -2.7290    5.7820 c3        1 LGF      0.069000
     25 C1          0.8070   -1.7780    4.6760 c3        1 LGF      0.011300
     26 O17         0.0760   -2.6930    8.2300 o         1 LGF     -0.569100
     27 N26         1.7990    0.0400   13.0520 ne        1 LGF     -0.550300
     28 C25         2.5270   -1.0310   13.6240 ce        1 LGF      0.168600
     29 N20         1.3780    0.7100   10.7150 nf        1 LGF     -0.717000
     30 O34         0.6800    0.6490    8.4700 os        1 LGF     -0.400400
     31 C35         0.1610    1.9800    8.6010 c3        1 LGF      0.121700
     32 O28         4.3840   -3.7260   11.9870 o         1 LGF     -0.532100
     33 C29         4.2590   -3.3560   14.3630 c         1 LGF      0.577100
     34 O31         3.3220   -3.4110   15.1850 o         1 LGF     -0.595100
     35 N30         5.5620   -3.5480   14.7530 n         1 LGF     -0.450800
     36 C36         5.8850   -3.9570   16.1080 c3        1 LGF      0.051000
     37 C37         7.3300   -4.5160   16.0910 c3        1 LGF      0.131100
     38 O40         8.1930   -3.7540   16.9140 oh        1 LGF     -0.590800
     39 C38         7.8290   -4.3730   14.6460 c3        1 LGF     -0.089400
     40 C39         6.6780   -3.7440   13.8450 c3        1 LGF      0.083000
     41 H15        -0.8810    0.1480    3.3370 ha        1 LGF      0.147000
     42 H19         2.8670   -2.9660   10.0940 ha        1 LGF      0.184000
     43 H23         3.9950   -0.6770   11.0550 hc        1 LGF      0.127700
     44 H12         1.1430    0.2040   -1.2410 ha        1 LGF      0.170000
     45 H14        -2.3580    0.1180    1.3280 ha        1 LGF      0.157000
     46 H7          4.1790    1.3630    5.2740 h4        1 LGF      0.045100
     47 H41         2.9340   -0.3070    7.5110 h1        1 LGF      0.069200
     48 H42         3.8850   -1.5890    6.6100 h1        1 LGF      0.069200
     49 H21         2.1560   -3.3650    5.3510 h1        1 LGF      0.082700
     50 H22         0.4780   -3.3990    6.0890 h1        1 LGF      0.082700
     51 H11         0.6920   -2.3630    3.7210 h1        1 LGF      0.068700
     52 H12A       -0.2060   -1.3800    4.9720 h1        1 LGF      0.068700
     53 H25         2.4730   -1.1850   14.7120 h4        1 LGF      0.205000
     54 H351       -0.2500    2.1830    7.5800 h1        1 LGF      0.063367
     55 H352       -0.6430    2.0080    9.3750 h1        1 LGF      0.063367
     56 H353        0.9820    2.6920    8.8550 h1        1 LGF      0.063367
     57 H361        5.1530   -4.7310   16.4660 h1        1 LGF      0.065200
     58 H362        5.8170   -3.0650   16.7900 h1        1 LGF      0.065200
     59 H37         7.3370   -5.5880   16.4250 h1        1 LGF      0.049700
     60 HO40        7.8600   -3.8270   17.8170 ho        1 LGF      0.405000
     61 H381        8.7350   -3.7180   14.6150 hc        1 LGF      0.071200
     62 H382        8.0990   -5.3720   14.2270 hc        1 LGF      0.071200
     63 H391        6.3800   -4.4090   12.9870 h1        1 LGF      0.060200
     64 H392        6.9880   -2.7480   13.4260 h1        1 LGF      0.060200
@<TRIPOS>BOND
     1    1   11 ar  
     2    1   13 1   
     3    1   14 ar  
     4    2    3 1   
     5    2    5 2   
     6    2    6 1   
     7    3   23 1   
     8    3   26 2   
     9    4   14 ar  
    10    4   16 ar  
    11    4   41 1   
    12    5    8 1   
    13    5   42 1   
    14    6   29 2   
    15    6   30 1   
    16    7    8 1   
    17    7   27 2   
    18    7   29 1   
    19    8    9 1   
    20    8   43 1   
    21    9   12 1   
    22    9   28 2   
    23   10   11 ar  
    24   10   15 1   
    25   10   16 ar  
    26   11   44 1   
    27   12   32 2   
    28   12   33 1   
    29   14   45 1   
    30   16   17 1   
    31   17   18 2   
    32   17   19 1   
    33   18   21 1   
    34   19   20 1   
    35   19   25 1   
    36   20   21 2   
    37   20   22 1   
    38   21   46 1   
    39   22   23 1   
    40   22   47 1   
    41   22   48 1   
    42   23   24 1   
    43   24   25 1   
    44   24   49 1   
    45   24   50 1   
    46   25   51 1   
    47   25   52 1   
    48   27   28 1   
    49   28   53 1   
    50   30   31 1   
    51   31   54 1   
    52   31   55 1   
    53   31   56 1   
    54   33   34 2   
    55   33   35 1   
    56   35   36 1   
    57   35   40 1   
    58   36   37 1   
    59   36   57 1   
    60   36   58 1   
    61   37   38 1   
    62   37   39 1   
    63   37   59 1   
    64   38   60 1   
    65   39   40 1   
    66   39   61 1   
    67   39   62 1   
    68   40   63 1   
    69   40   64 1   
@<TRIPOS>SUBSTRUCTURE
     1 LGF         1 TEMP              0 ****  ****    0 ROOT
