@<TRIPOS>MOLECULE
LGF
   64    69     1     0     0
SMALL
bcc


@<TRIPOS>ATOM
      1 C13         9.1410   -0.0720   -0.6290 ca        1 LGF      0.164900
      2 C18        -0.5850    1.0240   -0.5240 ce        1 LGF     -0.290800
      3 C16         0.5270    0.6520   -1.4470 c         1 LGF      0.688300
      4 C15         6.8460    0.6640   -0.4770 ca        1 LGF     -0.071000
      5 C19        -1.8030    0.4460   -0.5960 c2        1 LGF     -0.013200
      6 C21        -0.3800    2.1500    0.4190 ce        1 LGF      0.721900
      7 C22        -2.6350    2.3750    0.7520 cf        1 LGF      0.657300
      8 C23        -2.8630    0.8860    0.3360 c3        1 LGF     -0.141600
      9 C24        -4.3020    0.9510   -0.1020 cf        1 LGF     -0.302400
     10 C11         7.5250   -1.4050    0.5930 ca        1 LGF      0.196900
     11 C12         8.8410   -1.2090    0.1350 ca        1 LGF     -0.217000
     12 C27        -5.0060   -0.1590   -0.6990 c         1 LGF      0.557300
     13 F33        10.4050    0.1220   -1.0730 f         1 LGF     -0.129900
     14 C14         8.1390    0.8690   -0.9390 ca        1 LGF     -0.186000
     15 F32         7.2490   -2.5110    1.3160 f         1 LGF     -0.112900
     16 C10         6.5170   -0.4620    0.2860 ca        1 LGF     -0.173500
     17 C9          5.1580   -0.6400    0.7900 cc        1 LGF      0.454000
     18 N8          4.8110   -0.8960    2.0830 nd        1 LGF     -0.637000
     19 N5          4.0090   -0.5640   -0.0200 na        1 LGF     -0.180900
     20 C6          2.9060   -0.7870    0.8140 cc        1 LGF     -0.238900
     21 C7          3.4270   -0.9880    2.1080 cd        1 LGF      0.308200
     22 C4          1.5040   -0.8110    0.3080 c3        1 LGF      0.170300
     23 N3          1.3690   -0.3970   -1.0760 n         1 LGF     -0.455800
     24 C2          2.4700   -0.7580   -1.9430 c3        1 LGF      0.069000
     25 C1          3.8650   -0.3210   -1.4260 c3        1 LGF      0.011300
     26 O17         0.6400    1.2000   -2.5580 o         1 LGF     -0.569100
     27 N26        -3.7690    3.0810    0.7150 ne        1 LGF     -0.550300
     28 C25        -4.7650    2.2170    0.2020 ce        1 LGF      0.168600
     29 N20        -1.3370    2.8160    1.0380 nf        1 LGF     -0.717000
     30 O34         0.9430    2.4490    0.5950 os        1 LGF     -0.400400
     31 C35         1.2800    3.5520    1.4470 c3        1 LGF      0.121700
     32 O28        -4.4530   -1.1870   -1.1070 o         1 LGF     -0.532100
     33 C29        -6.5160    0.0260   -0.8400 c         1 LGF      0.577100
     34 O31        -6.9770    1.0530   -1.3770 o         1 LGF     -0.595100
     35 N30        -7.3450   -0.9310   -0.3060 n         1 LGF     -0.450800
     36 C36        -8.7860   -0.8490   -0.4680 c3        1 LGF      0.051000
     37 C37        -9.3660   -2.2550   -0.1740 c3        1 LGF      0.131100
     38 O40       -10.2420   -2.2340    0.9370 oh        1 LGF     -0.590800
     39 C38        -8.1710   -3.1430    0.2010 c3        1 LGF     -0.089400
     40 C39        -6.9200   -2.2540    0.1140 c3        1 LGF      0.083000
     41 H15         6.0660    1.4070   -0.7070 ha        1 LGF      0.147000
     42 H19        -2.0500   -0.3770   -1.2880 ha        1 LGF      0.184000
     43 H23        -2.8090    0.2330    1.2590 hc        1 LGF      0.127700
     44 H12         9.6240   -1.9420    0.3780 ha        1 LGF      0.170000
     45 H14         8.3920    1.7570   -1.5360 ha        1 LGF      0.157000
     46 H7          2.8870   -1.1900    3.0330 h4        1 LGF      0.045100
     47 H41         1.1180   -1.8710    0.3890 h1        1 LGF      0.069200
     48 H42         0.8780   -0.1520    0.9760 h1        1 LGF      0.069200
     49 H21         2.4590   -1.8810   -2.0460 h1        1 LGF      0.082700
     50 H22         2.3230   -0.2980   -2.9610 h1        1 LGF      0.082700
     51 H11         4.0110    0.7800   -1.6260 h1        1 LGF      0.068700
     52 H12A        4.6540   -0.8920   -1.9910 h1        1 LGF      0.068700
     53 H25        -5.7810    2.6120    0.0510 h4        1 LGF      0.205000
     54 H351        2.3990    3.5700    1.3910 h1        1 LGF      0.063367
     55 H352        0.8400    4.4970    1.0500 h1        1 LGF      0.063367
     56 H353        0.9320    3.3580    2.4890 h1        1 LGF      0.063367
     57 H361       -9.1970   -0.0930    0.2570 h1        1 LGF      0.065200
     58 H362       -9.0410   -0.5130   -1.5110 h1        1 LGF      0.065200
     59 H37        -9.9060   -2.6500   -1.0750 h1        1 LGF      0.049700
     60 HO40      -10.9780   -1.6540    0.7060 ho        1 LGF      0.405000
     61 H381       -8.2990   -3.5430    1.2370 hc        1 LGF      0.071200
     62 H382       -8.0900   -4.0040   -0.5050 hc        1 LGF      0.071200
     63 H391       -6.1760   -2.6820   -0.6150 h1        1 LGF      0.060200
     64 H392       -6.4210   -2.1760    1.1190 h1        1 LGF      0.060200
@<TRIPOS>BOND
     1    1   11 ar  
     2    1   13 1   
     3    1   14 ar  
     4    2    3 1   
     5    2    5 2   
     6    2    6 1   
     7    3   23 1   
     8    3   26 2   
     9    4   14 ar  
    10    4   16 ar  
    11    4   41 1   
    12    5    8 1   
    13    5   42 1   
    14    6   29 2   
    15    6   30 1   
    16    7    8 1   
    17    7   27 2   
    18    7   29 1   
    19    8    9 1   
    20    8   43 1   
    21    9   12 1   
    22    9   28 2   
    23   10   11 ar  
    24   10   15 1   
    25   10   16 ar  
    26   11   44 1   
    27   12   32 2   
    28   12   33 1   
    29   14   45 1   
    30   16   17 1   
    31   17   18 2   
    32   17   19 1   
    33   18   21 1   
    34   19   20 1   
    35   19   25 1   
    36   20   21 2   
    37   20   22 1   
    38   21   46 1   
    39   22   23 1   
    40   22   47 1   
    41   22   48 1   
    42   23   24 1   
    43   24   25 1   
    44   24   49 1   
    45   24   50 1   
    46   25   51 1   
    47   25   52 1   
    48   27   28 1   
    49   28   53 1   
    50   30   31 1   
    51   31   54 1   
    52   31   55 1   
    53   31   56 1   
    54   33   34 2   
    55   33   35 1   
    56   35   36 1   
    57   35   40 1   
    58   36   37 1   
    59   36   57 1   
    60   36   58 1   
    61   37   38 1   
    62   37   39 1   
    63   37   59 1   
    64   38   60 1   
    65   39   40 1   
    66   39   61 1   
    67   39   62 1   
    68   40   63 1   
    69   40   64 1   
@<TRIPOS>SUBSTRUCTURE
     1 LGF         1 TEMP              0 ****  ****    0 ROOT
