@<TRIPOS>MOLECULE
LGF
   64    69     1     0     0
SMALL
bcc


@<TRIPOS>ATOM
      1 C13        -0.6680    0.1620   -0.0850 ca        1 LGF      0.164900
      2 C18         1.6980   -1.3250    9.2980 ce        1 LGF     -0.290800
      3 C16         1.1390   -2.0470    8.1180 c         1 LGF      0.688300
      4 C15        -0.4170    0.1500    2.3170 ca        1 LGF     -0.071000
      5 C19         2.5140   -1.9270   10.1900 c2        1 LGF     -0.013200
      6 C21         1.2440    0.0610    9.5630 ce        1 LGF      0.721900
      7 C22         1.9820   -0.0370   11.7310 cf        1 LGF      0.657300
      8 C23         3.0060   -1.1540   11.3500 c3        1 LGF     -0.141600
      9 C24         3.1960   -1.8080   12.6930 cf        1 LGF     -0.302400
     10 C11         1.5490    0.2080    0.8970 ca        1 LGF      0.196900
     11 C12         0.7250    0.1970   -0.2430 ca        1 LGF     -0.217000
     12 C27         3.9830   -3.0000   12.8970 c         1 LGF      0.557300
     13 F33        -1.4650    0.1510   -1.1780 f         1 LGF     -0.129900
     14 C14        -1.2430    0.1360    1.2010 ca        1 LGF     -0.186000
     15 F32         2.8880    0.2280    0.7290 f         1 LGF     -0.112900
     16 C10         0.9760    0.1840    2.1900 ca        1 LGF     -0.173500
     17 C9          1.8240    0.2320    3.3780 cc        1 LGF      0.454000
     18 N8          2.8210    1.1320    3.6130 nd        1 LGF     -0.637000
     19 N5          1.7100   -0.6670    4.4560 na        1 LGF     -0.180900
     20 C6          2.6860   -0.3040    5.3930 cc        1 LGF     -0.238900
     21 C7          3.3570    0.8100    4.8510 cd        1 LGF      0.308200
     22 C4          2.8940   -1.0490    6.6680 c3        1 LGF      0.170300
     23 N3          1.8820   -2.0540    6.9360 n         1 LGF     -0.455800
     24 C2          1.3490   -2.7260    5.7710 c3        1 LGF      0.069000
     25 C1          0.8240   -1.7750    4.6650 c3        1 LGF      0.011300
     26 O17         0.0870   -2.7030    8.2150 o         1 LGF     -0.569100
     27 N26         1.7800    0.0250   13.0500 ne        1 LGF     -0.550300
     28 C25         2.5150   -1.0420   13.6200 ce        1 LGF      0.168600
     29 N20         1.3610    0.7000   10.7140 nf        1 LGF     -0.717000
     30 O34         0.6690    0.6410    8.4670 os        1 LGF     -0.400400
     31 C35         0.1410    1.9680    8.6010 c3        1 LGF      0.121700
     32 O28         4.3940   -3.7200   11.9790 o         1 LGF     -0.532100
     33 C29         4.2610   -3.3570   14.3560 c         1 LGF      0.577100
     34 O31         3.3240   -3.4210   15.1770 o         1 LGF     -0.595100
     35 N30         5.5650   -3.5420   14.7480 n         1 LGF     -0.450800
     36 C36         5.8880   -3.9520   16.1020 c3        1 LGF      0.051000
     37 C37         7.3360   -4.5030   16.0860 c3        1 LGF      0.131100
     38 O40         8.1940   -3.7380   16.9140 oh        1 LGF     -0.590800
     39 C38         7.8370   -4.3520   14.6430 c3        1 LGF     -0.089400
     40 C39         6.6840   -3.7290   13.8420 c3        1 LGF      0.083000
     41 H15        -0.8680    0.1450    3.3230 ha        1 LGF      0.147000
     42 H19         2.8760   -2.9650   10.0850 ha        1 LGF      0.184000
     43 H23         3.9860   -0.6700   11.0560 hc        1 LGF      0.127700
     44 H12         1.1740    0.2200   -1.2470 ha        1 LGF      0.170000
     45 H14        -2.3370    0.1120    1.3080 ha        1 LGF      0.157000
     46 H7          4.1790    1.3810    5.2810 h4        1 LGF      0.045100
     47 H41         3.8940   -1.5730    6.6110 h1        1 LGF      0.069200
     48 H42         2.9330   -0.2990    7.5110 h1        1 LGF      0.069200
     49 H21         2.1790   -3.3570    5.3410 h1        1 LGF      0.082700
     50 H22         0.4990   -3.4000    6.0730 h1        1 LGF      0.082700
     51 H11         0.7160   -2.3580    3.7080 h1        1 LGF      0.068700
     52 H12A       -0.1920   -1.3820    4.9590 h1        1 LGF      0.068700
     53 H25         2.4580   -1.2010   14.7070 h4        1 LGF      0.205000
     54 H351        0.9570    2.6850    8.8590 h1        1 LGF      0.063367
     55 H352       -0.6650    1.9880    9.3730 h1        1 LGF      0.063367
     56 H353       -0.2690    2.1710    7.5790 h1        1 LGF      0.063367
     57 H361        5.1600   -4.7320   16.4570 h1        1 LGF      0.065200
     58 H362        5.8140   -3.0620   16.7870 h1        1 LGF      0.065200
     59 H37         7.3490   -5.5760   16.4170 h1        1 LGF      0.049700
     60 HO40        7.8590   -3.8160   17.8150 ho        1 LGF      0.405000
     61 H381        8.1140   -5.3480   14.2220 hc        1 LGF      0.071200
     62 H382        8.7390   -3.6910   14.6160 hc        1 LGF      0.071200
     63 H391        6.9880   -2.7290   13.4260 h1        1 LGF      0.060200
     64 H392        6.3910   -4.3930   12.9810 h1        1 LGF      0.060200
@<TRIPOS>BOND
     1    1   11 ar  
     2    1   13 1   
     3    1   14 ar  
     4    2    3 1   
     5    2    5 2   
     6    2    6 1   
     7    3   23 1   
     8    3   26 2   
     9    4   14 ar  
    10    4   16 ar  
    11    4   41 1   
    12    5    8 1   
    13    5   42 1   
    14    6   29 2   
    15    6   30 1   
    16    7    8 1   
    17    7   27 2   
    18    7   29 1   
    19    8    9 1   
    20    8   43 1   
    21    9   12 1   
    22    9   28 2   
    23   10   11 ar  
    24   10   15 1   
    25   10   16 ar  
    26   11   44 1   
    27   12   32 2   
    28   12   33 1   
    29   14   45 1   
    30   16   17 1   
    31   17   18 2   
    32   17   19 1   
    33   18   21 1   
    34   19   20 1   
    35   19   25 1   
    36   20   21 2   
    37   20   22 1   
    38   21   46 1   
    39   22   23 1   
    40   22   47 1   
    41   22   48 1   
    42   23   24 1   
    43   24   25 1   
    44   24   49 1   
    45   24   50 1   
    46   25   51 1   
    47   25   52 1   
    48   27   28 1   
    49   28   53 1   
    50   30   31 1   
    51   31   54 1   
    52   31   55 1   
    53   31   56 1   
    54   33   34 2   
    55   33   35 1   
    56   35   36 1   
    57   35   40 1   
    58   36   37 1   
    59   36   57 1   
    60   36   58 1   
    61   37   38 1   
    62   37   39 1   
    63   37   59 1   
    64   38   60 1   
    65   39   40 1   
    66   39   61 1   
    67   39   62 1   
    68   40   63 1   
    69   40   64 1   
@<TRIPOS>SUBSTRUCTURE
     1 LGF         1 TEMP              0 ****  ****    0 ROOT
