@<TRIPOS>MOLECULE
LGF
   64    69     1     0     0
SMALL
bcc


@<TRIPOS>ATOM
      1 C13        -0.7040    0.1560   -0.0680 ca        1 LGF      0.164900
      2 C18         1.7020   -1.3140    9.3060 ce        1 LGF     -0.290800
      3 C16         1.1290   -2.0350    8.1320 c         1 LGF      0.688300
      4 C15        -0.4390    0.1520    2.3330 ca        1 LGF     -0.071000
      5 C19         2.5130   -1.9220   10.1980 c2        1 LGF     -0.013200
      6 C21         1.2660    0.0790    9.5660 ce        1 LGF      0.721900
      7 C22         2.0120   -0.0160   11.7300 cf        1 LGF      0.657300
      8 C23         3.0200   -1.1470   11.3510 c3        1 LGF     -0.141600
      9 C24         3.2080   -1.7960   12.6970 cf        1 LGF     -0.302400
     10 C11         1.5200    0.1840    0.9010 ca        1 LGF      0.196900
     11 C12         0.6890    0.1770   -0.2350 ca        1 LGF     -0.217000
     12 C27         3.9800   -2.9970   12.9050 c         1 LGF      0.557300
     13 F33        -1.5080    0.1490   -1.1560 f         1 LGF     -0.129900
     14 C14        -1.2710    0.1410    1.2220 ca        1 LGF     -0.186000
     15 F32         2.8580    0.1900    0.7240 f         1 LGF     -0.112900
     16 C10         0.9540    0.1710    2.1970 ca        1 LGF     -0.173500
     17 C9          1.8100    0.2150    3.3800 cc        1 LGF      0.454000
     18 N8          2.8170    1.1060    3.6050 nd        1 LGF     -0.637000
     19 N5          1.6940   -0.6780    4.4610 na        1 LGF     -0.180900
     20 C6          2.6780   -0.3220    5.3920 cc        1 LGF     -0.238900
     21 C7          3.3570    0.7840    4.8410 cd        1 LGF      0.308200
     22 C4          2.8860   -1.0640    6.6690 c3        1 LGF      0.170300
     23 N3          1.8660   -2.0570    6.9470 n         1 LGF     -0.455800
     24 C2          1.3190   -2.7280    5.7880 c3        1 LGF      0.069000
     25 C1          0.7980   -1.7770    4.6800 c3        1 LGF      0.011300
     26 O17         0.0690   -2.6790    8.2370 o         1 LGF     -0.569100
     27 N26         1.8160    0.0560   13.0500 ne        1 LGF     -0.550300
     28 C25         2.5400   -1.0170   13.6230 ce        1 LGF      0.168600
     29 N20         1.3950    0.7220   10.7120 nf        1 LGF     -0.717000
     30 O34         0.6920    0.6600    8.4680 os        1 LGF     -0.400400
     31 C35         0.1820    1.9940    8.5970 c3        1 LGF      0.121700
     32 O28         4.3790   -3.7270   11.9890 o         1 LGF     -0.532100
     33 C29         4.2590   -3.3510   14.3640 c         1 LGF      0.577100
     34 O31         3.3230   -3.3990   15.1890 o         1 LGF     -0.595100
     35 N30         5.5610   -3.5500   14.7540 n         1 LGF     -0.450800
     36 C36         5.8840   -3.9580   16.1090 c3        1 LGF      0.051000
     37 C37         7.3250   -4.5260   16.0910 c3        1 LGF      0.131100
     38 O40         8.1940   -3.7670   16.9120 oh        1 LGF     -0.590800
     39 C38         7.8230   -4.3880   14.6450 c3        1 LGF     -0.089400
     40 C39         6.6750   -3.7550   13.8450 c3        1 LGF      0.083000
     41 H15        -0.8830    0.1550    3.3410 ha        1 LGF      0.147000
     42 H19         2.8620   -2.9640   10.0970 ha        1 LGF      0.184000
     43 H23         4.0050   -0.6780   11.0500 hc        1 LGF      0.127700
     44 H12         1.1310    0.1910   -1.2410 ha        1 LGF      0.170000
     45 H14        -2.3650    0.1290    1.3350 ha        1 LGF      0.157000
     46 H7          4.1880    1.3470    5.2640 h4        1 LGF      0.045100
     47 H41         3.8810   -1.6000    6.6070 h1        1 LGF      0.069200
     48 H42         2.9390   -0.3110    7.5080 h1        1 LGF      0.069200
     49 H21         2.1400   -3.3700    5.3560 h1        1 LGF      0.082700
     50 H22         0.4640   -3.3930    6.0980 h1        1 LGF      0.082700
     51 H11         0.6780   -2.3640    3.7270 h1        1 LGF      0.068700
     52 H12A       -0.2130   -1.3730    4.9780 h1        1 LGF      0.068700
     53 H25         2.4860   -1.1690   14.7110 h4        1 LGF      0.205000
     54 H351       -0.2300    2.1970    7.5760 h1        1 LGF      0.063367
     55 H352       -0.6210    2.0290    9.3720 h1        1 LGF      0.063367
     56 H353        1.0070    2.7030    8.8470 h1        1 LGF      0.063367
     57 H361        5.1480   -4.7270   16.4690 h1        1 LGF      0.065200
     58 H362        5.8220   -3.0640   16.7890 h1        1 LGF      0.065200
     59 H37         7.3260   -5.5970   16.4270 h1        1 LGF      0.049700
     60 HO40        7.8610   -3.8360   17.8150 ho        1 LGF      0.405000
     61 H381        8.7330   -3.7380   14.6120 hc        1 LGF      0.071200
     62 H382        8.0860   -5.3900   14.2280 hc        1 LGF      0.071200
     63 H391        6.9900   -2.7600   13.4230 h1        1 LGF      0.060200
     64 H392        6.3710   -4.4190   12.9880 h1        1 LGF      0.060200
@<TRIPOS>BOND
     1    1   11 ar  
     2    1   13 1   
     3    1   14 ar  
     4    2    3 1   
     5    2    5 2   
     6    2    6 1   
     7    3   23 1   
     8    3   26 2   
     9    4   14 ar  
    10    4   16 ar  
    11    4   41 1   
    12    5    8 1   
    13    5   42 1   
    14    6   29 2   
    15    6   30 1   
    16    7    8 1   
    17    7   27 2   
    18    7   29 1   
    19    8    9 1   
    20    8   43 1   
    21    9   12 1   
    22    9   28 2   
    23   10   11 ar  
    24   10   15 1   
    25   10   16 ar  
    26   11   44 1   
    27   12   32 2   
    28   12   33 1   
    29   14   45 1   
    30   16   17 1   
    31   17   18 2   
    32   17   19 1   
    33   18   21 1   
    34   19   20 1   
    35   19   25 1   
    36   20   21 2   
    37   20   22 1   
    38   21   46 1   
    39   22   23 1   
    40   22   47 1   
    41   22   48 1   
    42   23   24 1   
    43   24   25 1   
    44   24   49 1   
    45   24   50 1   
    46   25   51 1   
    47   25   52 1   
    48   27   28 1   
    49   28   53 1   
    50   30   31 1   
    51   31   54 1   
    52   31   55 1   
    53   31   56 1   
    54   33   34 2   
    55   33   35 1   
    56   35   36 1   
    57   35   40 1   
    58   36   37 1   
    59   36   57 1   
    60   36   58 1   
    61   37   38 1   
    62   37   39 1   
    63   37   59 1   
    64   38   60 1   
    65   39   40 1   
    66   39   61 1   
    67   39   62 1   
    68   40   63 1   
    69   40   64 1   
@<TRIPOS>SUBSTRUCTURE
     1 LGF         1 TEMP              0 ****  ****    0 ROOT
