@<TRIPOS>MOLECULE
LGH
   53    56     1     0     0
SMALL
bcc


@<TRIPOS>ATOM
      1 C1         -0.1390   -1.6610    0.0790 ca        1 LGH     -0.167000
      2 C2          1.0250   -0.9600   -0.2370 ca        1 LGH     -0.080000
      3 C3         -0.7520   -1.4750    1.3150 ca        1 LGH     -0.069000
      4 C4         -2.0180    4.7610   -0.5380 ca        1 LGH     -0.185000
      5 C5         -1.7080    5.7260   -1.4840 ca        1 LGH     -0.046000
      6 C6          1.5750   -0.0610    0.6720 ca        1 LGH     -0.212000
      7 C7         -4.0840    6.1240   -1.8380 ca        1 LGH     -0.049000
      8 C8         -0.2100   -0.5880    2.2540 ca        1 LGH     -0.179500
      9 C9         -2.2640   -0.1610    3.8010 cc        1 LGH     -0.379200
     10 C10        -3.3570    4.4400   -0.2100 ca        1 LGH      0.184600
     11 C11        -2.7450    6.4050   -2.1430 ca        1 LGH     -0.196200
     12 C12         0.9580    0.1320    1.9160 ca        1 LGH      0.153100
     13 C13        -4.3860    5.1600   -0.8760 ca        1 LGH     -0.015600
     14 C14        -0.8430   -0.4440    3.5550 cc        1 LGH      0.422800
     15 C15        -2.3840   -0.1370    5.1800 cd        1 LGH      0.312000
     16 C17        -2.6630    3.2770    1.8120 c3        1 LGH      0.157800
     17 C18        -4.3120    2.2690    0.3470 c3        1 LGH      0.157800
     18 C19        -3.2160    2.4510    2.9990 c3        1 LGH      0.079000
     19 C20        -4.8530    1.4340    1.5300 c3        1 LGH      0.079000
     20 C21        -3.4740    0.0600    6.1330 c3        1 LGH     -0.148400
     21 C22         2.7350    1.5150    2.6860 c3        1 LGH      0.113700
     22 N23        -0.2230   -0.5650    4.7500 nd        1 LGH     -0.333300
     23 N24        -3.6810    3.5030    0.7970 nh        1 LGH     -0.640000
     24 N25        -3.8910    1.2400    2.5950 n         1 LGH     -0.451800
     25 N26        -2.4220    7.4310   -3.1650 no        1 LGH      0.318200
     26 O27        -3.3210    7.9970   -3.7270 o         1 LGH     -0.208000
     27 O28        -3.7530   -1.0120    2.1650 o         1 LGH     -0.587100
     28 O29        -1.2680    7.6680   -3.4060 o         1 LGH     -0.208000
     29 O30        -1.1020   -0.3900    5.7170 os        1 LGH     -0.115100
     30 O31         1.3990    1.0480    2.8480 os        1 LGH     -0.321900
     31 CL32       -6.0270    4.9150   -0.5120 cl        1 LGH     -0.062400
     32 H1         -0.5740   -2.3650   -0.6450 ha        1 LGH      0.142000
     33 H2          1.5130   -1.1150   -1.2120 ha        1 LGH      0.136000
     34 H3         -1.6780   -2.0220    1.5650 ha        1 LGH      0.167000
     35 H5         -0.6550    5.9540   -1.7230 ha        1 LGH      0.173000
     36 H6          2.4900    0.4900    0.4110 ha        1 LGH      0.141000
     37 H7         -4.8960    6.6730   -2.3510 ha        1 LGH      0.184000
     38 H17        -2.3270    4.2740    2.2090 h1        1 LGH      0.054450
     39 H17A       -1.7640    2.7400    1.3910 h1        1 LGH      0.054450
     40 H18        -5.1800    2.5190   -0.3230 h1        1 LGH      0.054450
     41 H18A       -3.5840    1.6400   -0.2440 h1        1 LGH      0.054450
     42 H19        -3.9620    3.0810    3.5640 h1        1 LGH      0.073950
     43 H19A       -2.3530    2.2210    3.6830 h1        1 LGH      0.073950
     44 H20        -5.1860    0.4370    1.1250 h1        1 LGH      0.073950
     45 H20A       -5.7440    1.9610    1.9750 h1        1 LGH      0.073950
     46 H21        -4.1220    0.9110    5.8010 hc        1 LGH      0.073700
     47 H21A       -3.0730    0.2790    7.1550 hc        1 LGH      0.073700
     48 H21B       -4.1010   -0.8670    6.1870 hc        1 LGH      0.073700
     49 H22         3.4490    0.6630    2.5810 h1        1 LGH      0.047033
     50 H22A        2.9280    2.0810    3.6330 h1        1 LGH      0.047033
     51 H22B        2.8020    2.1950    1.8010 h1        1 LGH      0.047033
     52 C16        -3.3200   -0.0210    2.7850 c         1 LGH      0.704700
     53 H4         -1.1870    4.2350   -0.0390 ha        1 LGH      0.154000
@<TRIPOS>BOND
     1    1    2 ar  
     2    1    3 ar  
     3    1   32 1   
     4    2    6 ar  
     5    2   33 1   
     6    3    8 ar  
     7    3   34 1   
     8    4    5 ar  
     9    4   10 ar  
    10    4   53 1   
    11    5   11 ar  
    12    5   35 1   
    13    6   12 ar  
    14    6   36 1   
    15    7   11 ar  
    16    7   13 ar  
    17    7   37 1   
    18    8   12 ar  
    19    8   14 1   
    20    9   14 1   
    21    9   15 2   
    22    9   52 1   
    23   10   13 ar  
    24   10   23 1   
    25   11   25 1   
    26   12   30 1   
    27   13   31 1   
    28   14   22 2   
    29   15   20 1   
    30   15   29 1   
    31   16   18 1   
    32   16   23 1   
    33   16   38 1   
    34   16   39 1   
    35   17   19 1   
    36   17   23 1   
    37   17   40 1   
    38   17   41 1   
    39   18   24 1   
    40   18   42 1   
    41   18   43 1   
    42   19   24 1   
    43   19   44 1   
    44   19   45 1   
    45   20   46 1   
    46   20   47 1   
    47   20   48 1   
    48   21   30 1   
    49   21   49 1   
    50   21   50 1   
    51   21   51 1   
    52   22   29 1   
    53   24   52 1   
    54   25   26 1   
    55   25   28 1   
    56   27   52 2   
@<TRIPOS>SUBSTRUCTURE
     1 LGH         1 TEMP              0 ****  ****    0 ROOT
