@<TRIPOS>MOLECULE
LGH
   53    47     1     0     0
SMALL
bcc


@<TRIPOS>ATOM
      1 C1          0.4870   -1.4230   -5.7480 c1        1 LGH     -0.132000
      2 C2          1.7980   -1.4380   -6.2160 c1        1 LGH     -0.132000
      3 C3          0.2210   -1.0510   -4.4330 c1        1 LGH     -0.132000
      4 C4         -0.7820   -0.7940    4.6560 c1        1 LGH     -0.185000
      5 C5         -1.8840   -1.1770    5.4150 c1        1 LGH     -0.038000
      6 C6          2.8430   -1.0810   -5.3700 c1        1 LGH     -0.132000
      7 C7         -3.0740    0.7850    4.6770 c1        1 LGH     -0.031000
      8 C8          1.2660   -0.6930   -3.5870 c1        1 LGH     -0.074000
      9 C9          0.0980    0.6830   -1.8740 c1        1 LGH     -0.228000
     10 C10        -0.8260    0.3800    3.9070 c1        1 LGH      0.156000
     11 C11        -3.0300   -0.3870    5.4250 c1        1 LGH     -0.168000
     12 C12         2.5780   -0.7080   -4.0560 c1        1 LGH      0.111000
     13 C13        -1.9730    1.1690    3.9180 c2        1 LGH     -0.140000
     14 C14         0.5560    0.4430   -3.1610 c1        1 LGH     -0.011000
     15 C15        -0.6020    1.8690   -1.8860 c1        1 LGH      0.023000
     16 C16         0.4610   -0.3590   -0.8040 c1        1 LGH      0.381000
     17 C17         1.1400   -0.2740    2.7840 c3        1 LGH     -0.044500
     18 C18        -0.0040    1.7280    2.1550 c3        1 LGH     -0.044500
     19 C19         0.4690   -1.0110    1.6320 c3        1 LGH     -0.059000
     20 C20        -0.6700    0.9800    1.0060 c3        1 LGH     -0.059000
     21 C21        -1.7640    2.8700   -1.8760 c2        1 LGH     -0.172000
     22 C22         4.5480   -1.9250   -3.4900 c3        1 LGH     -0.076000
     23 N23         0.1430    1.4630   -3.9480 n2        1 LGH      0.002000
     24 N24         0.3670    0.8510    3.2340 n2        1 LGH     -0.297000
     25 N25         0.0950   -0.1340    0.5790 n3        1 LGH     -0.311000
     26 N26        -4.1090   -0.5290    6.3510 no        1 LGH      0.576000
     27 O27        -5.0670    0.2320    6.2970 o         1 LGH     -0.360500
     28 O28         1.1210   -1.3390   -1.1080 o         1 LGH     -0.351000
     29 O29        -4.0730   -1.5180    7.2980 o         1 LGH     -0.360500
     30 O30        -0.5810    2.3560   -3.1550 os        1 LGH     -0.058000
     31 O31         3.8880   -0.6640   -3.5100 os        1 LGH     -0.203000
     32 CL32       -2.6750    2.7680    3.8570 cl        1 LGH     -0.003000
     33 H1         -0.2510   -1.6760   -6.3460 ha        1 LGH      0.145750
     34 H2          1.9860   -1.7010   -7.1440 ha        1 LGH      0.145750
     35 H3         -0.7030   -1.0400   -4.1030 ha        1 LGH      0.145750
     36 H4          0.0250   -1.3500    4.6490 ha        1 LGH      0.155000
     37 H5         -1.8530   -2.0040    5.9430 ha        1 LGH      0.173000
     38 H6          3.7670   -1.0910   -5.7010 ha        1 LGH      0.145750
     39 H7         -3.8820    1.3420    4.6840 ha        1 LGH      0.183000
     40 H17         2.0240    0.0450    2.4860 h1        1 LGH      0.105000
     41 H17A        1.2620   -0.8970    3.5330 h1        1 LGH      0.105000
     42 H18        -0.6280    2.4080    2.4960 h1        1 LGH      0.105000
     43 H18A        0.8050    2.1790    1.8160 h1        1 LGH      0.105000
     44 H19         1.0920   -1.6860    1.2790 h1        1 LGH      0.111500
     45 H19A       -0.3350   -1.4650    1.9700 h1        1 LGH      0.111500
     46 H20        -0.7850    1.5950    0.2500 h1        1 LGH      0.111500
     47 H20A       -1.5530    0.6670    1.3000 h1        1 LGH      0.111500
     48 H21        -2.1850    2.8740   -0.9890 ha        1 LGH      0.112667
     49 H21A       -1.4240    3.7690   -2.0820 ha        1 LGH      0.112667
     50 H21B       -2.4280    2.6080   -2.5530 ha        1 LGH      0.112667
     51 H22         3.8830   -2.6430   -3.5600 h1        1 LGH      0.086333
     52 H22A        5.0470   -2.0210   -2.6470 h1        1 LGH      0.086333
     53 H22B        5.1710   -1.9810   -4.2490 h1        1 LGH      0.086333
@<TRIPOS>BOND
     1    1    3 1   
     2    1   33 1   
     3    2    6 1   
     4    2   34 1   
     5    3   35 1   
     6    4   10 1   
     7    4   36 1   
     8    5   11 1   
     9    5   37 1   
    10    6   38 1   
    11    7   13 1   
    12    7   39 1   
    13    8   12 1   
    14    9   14 1   
    15    9   15 1   
    16   10   13 1   
    17   11   26 1   
    18   12   31 1   
    19   13   32 1   
    20   14   23 1   
    21   15   30 1   
    22   16   25 1   
    23   16   28 1   
    24   17   19 1   
    25   17   24 1   
    26   17   40 1   
    27   17   41 1   
    28   18   20 1   
    29   18   24 1   
    30   18   42 1   
    31   18   43 1   
    32   19   25 1   
    33   19   44 1   
    34   19   45 1   
    35   20   25 1   
    36   20   46 1   
    37   20   47 1   
    38   21   48 1   
    39   21   49 1   
    40   21   50 1   
    41   22   31 1   
    42   22   51 1   
    43   22   52 1   
    44   22   53 1   
    45   23   30 1   
    46   26   27 1   
    47   26   29 1   
@<TRIPOS>SUBSTRUCTURE
     1 LGH         1 TEMP              0 ****  ****    0 ROOT
