@<TRIPOS>MOLECULE
LGH
   53    56     1     0     0
SMALL
bcc


@<TRIPOS>ATOM
      1 C1          0.1230   -1.5800    0.2080 ca        1 LGH     -0.169000
      2 C2          1.2700   -0.8320   -0.0550 ca        1 LGH     -0.080000
      3 C3         -0.5500   -1.4230    1.4170 ca        1 LGH     -0.069000
      4 C4         -3.0380    4.0780   -1.5270 ca        1 LGH     -0.184000
      5 C5         -2.7730    5.0300   -2.5000 ca        1 LGH     -0.046000
      6 C6          1.7440    0.0850    0.8790 ca        1 LGH     -0.213000
      7 C7         -3.0410    6.7880   -0.8380 ca        1 LGH     -0.049000
      8 C8         -0.0860   -0.5190    2.3800 ca        1 LGH     -0.181500
      9 C9         -2.2200   -0.1620    3.8340 cc        1 LGH     -0.379200
     10 C10        -3.3070    4.4400   -0.1850 ca        1 LGH      0.185600
     11 C11        -2.7650    6.3890   -2.1540 ca        1 LGH     -0.196200
     12 C12         1.0670    0.2470    2.0960 ca        1 LGH      0.155100
     13 C13        -3.3180    5.8250    0.1310 ca        1 LGH     -0.016600
     14 C14        -0.7810   -0.4030    3.6520 cc        1 LGH      0.423800
     15 C15        -2.4030   -0.1490    5.2060 cd        1 LGH      0.312000
     16 C17        -2.6630    3.2930    1.8650 c3        1 LGH      0.158300
     17 C18        -4.1890    2.2250    0.3120 c3        1 LGH      0.158300
     18 C19        -3.2280    2.4260    3.0150 c3        1 LGH      0.078500
     19 C20        -4.7600    1.3670    1.4660 c3        1 LGH      0.078500
     20 C21        -3.5410    0.0130    6.1080 c3        1 LGH     -0.148400
     21 C22         2.7310    1.7400    2.9170 c3        1 LGH      0.113700
     22 N23        -0.2140   -0.5140    4.8730 nd        1 LGH     -0.333300
     23 N24        -3.6380    3.4810    0.7990 nh        1 LGH     -0.640000
     24 N25        -3.8400    1.1950    2.5710 n         1 LGH     -0.451800
     25 N26        -2.4690    7.4130   -3.1860 no        1 LGH      0.318200
     26 O27        -2.2460    7.0550   -4.3120 o         1 LGH     -0.208000
     27 O28        -3.5960   -1.0420    2.1160 o         1 LGH     -0.588100
     28 O29        -2.4570    8.5730   -2.8710 o         1 LGH     -0.208000
     29 O30        -1.1410   -0.3690    5.7990 os        1 LGH     -0.115100
     30 O31         1.4320    1.1710    3.0530 os        1 LGH     -0.319900
     31 Cl32       -3.7040    6.3820    1.6900 cl        1 LGH     -0.063400
     32 H1         -0.2510   -2.2990   -0.5350 ha        1 LGH      0.141000
     33 H2          1.8060   -0.9630   -1.0080 ha        1 LGH      0.136000
     34 H3         -1.4640   -2.0070    1.6250 ha        1 LGH      0.166000
     35 H5         -2.5620    4.7190   -3.5390 ha        1 LGH      0.174000
     36 H6          2.6460    0.6730    0.6580 ha        1 LGH      0.141000
     37 H7         -3.0480    7.8620   -0.5750 ha        1 LGH      0.184000
     38 H17        -1.7240    2.8080    1.4680 h1        1 LGH      0.054450
     39 H17A       -2.3840    4.2940    2.2940 h1        1 LGH      0.054450
     40 H18        -3.4150    1.6150   -0.2380 h1        1 LGH      0.054450
     41 H18A       -5.0300    2.4560   -0.3990 h1        1 LGH      0.054450
     42 H19        -4.0190    3.0180    3.5610 h1        1 LGH      0.073950
     43 H19A       -2.3830    2.2180    3.7290 h1        1 LGH      0.073950
     44 H20        -5.0460    0.3640    1.0420 h1        1 LGH      0.073950
     45 H20A       -5.6850    1.8670    1.8730 h1        1 LGH      0.073950
     46 H21        -4.1450   -0.9310    6.1290 hc        1 LGH      0.073700
     47 H21A       -3.1930    0.2370    7.1480 hc        1 LGH      0.073700
     48 H21B       -4.1950    0.8480    5.7500 hc        1 LGH      0.073700
     49 H22         3.5100    0.9450    2.8300 h1        1 LGH      0.047367
     50 H22A        2.8590    2.3190    3.8660 h1        1 LGH      0.047367
     51 H22B        2.7640    2.4210    2.0320 h1        1 LGH      0.047367
     52 C16        -3.2300   -0.0460    2.7700 c         1 LGH      0.705700
     53 H4         -3.0310    3.0160   -1.8210 ha        1 LGH      0.154000
@<TRIPOS>BOND
     1    1    2 ar  
     2    1    3 ar  
     3    1   32 1   
     4    2    6 ar  
     5    2   33 1   
     6    3    8 ar  
     7    3   34 1   
     8    4    5 ar  
     9    4   10 ar  
    10    4   53 1   
    11    5   11 ar  
    12    5   35 1   
    13    6   12 ar  
    14    6   36 1   
    15    7   11 ar  
    16    7   13 ar  
    17    7   37 1   
    18    8   12 ar  
    19    8   14 1   
    20    9   14 1   
    21    9   15 2   
    22    9   52 1   
    23   10   13 ar  
    24   10   23 1   
    25   11   25 1   
    26   12   30 1   
    27   13   31 1   
    28   14   22 2   
    29   15   20 1   
    30   15   29 1   
    31   16   18 1   
    32   16   23 1   
    33   16   38 1   
    34   16   39 1   
    35   17   19 1   
    36   17   23 1   
    37   17   40 1   
    38   17   41 1   
    39   18   24 1   
    40   18   42 1   
    41   18   43 1   
    42   19   24 1   
    43   19   44 1   
    44   19   45 1   
    45   20   46 1   
    46   20   47 1   
    47   20   48 1   
    48   21   30 1   
    49   21   49 1   
    50   21   50 1   
    51   21   51 1   
    52   22   29 1   
    53   24   52 1   
    54   25   26 1   
    55   25   28 1   
    56   27   52 2   
@<TRIPOS>SUBSTRUCTURE
     1 LGH         1 TEMP              0 ****  ****    0 ROOT
