@<TRIPOS>MOLECULE
LGH
   53    56     1     0     0
SMALL
bcc


@<TRIPOS>ATOM
      1 C1          2.9470    2.2880   -2.9180 ca        1 LGH     -0.167000
      2 C2          2.7200    3.4580   -2.1940 ca        1 LGH     -0.080000
      3 C3          3.3430    1.1250   -2.2610 ca        1 LGH     -0.069000
      4 C4         -2.5710    1.1040    0.7300 ca        1 LGH     -0.185000
      5 C5         -3.6970    1.8750    0.9760 ca        1 LGH     -0.046000
      6 C6          2.8740    3.4710   -0.8100 ca        1 LGH     -0.212000
      7 C7         -5.1060    0.0340    0.2320 ca        1 LGH     -0.049000
      8 C8          3.5200    1.1160   -0.8720 ca        1 LGH     -0.179500
      9 C9          3.3860   -1.4350   -0.3550 cc        1 LGH     -0.379200
     10 C10        -2.6670   -0.2160    0.2270 ca        1 LGH      0.184600
     11 C11        -4.9690    1.3410    0.7190 ca        1 LGH     -0.196200
     12 C12         3.2690    2.3020   -0.1460 ca        1 LGH      0.153100
     13 C13        -3.9690   -0.7380   -0.0020 ca        1 LGH     -0.015600
     14 C14         3.9780   -0.0970   -0.2140 cc        1 LGH      0.422800
     15 C15         4.1720   -2.2520    0.4390 cd        1 LGH      0.312000
     16 C17        -0.3550   -0.6900    0.8230 c3        1 LGH      0.157800
     17 C18        -1.2000   -1.3560   -1.3500 c3        1 LGH      0.157800
     18 C19         0.7290   -1.7910    0.7360 c3        1 LGH      0.079000
     19 C20        -0.1070   -2.4440   -1.4420 c3        1 LGH      0.079000
     20 C21         4.2020   -3.6750    0.7710 c3        1 LGH     -0.148400
     21 C22         3.4780    3.4450    1.9320 c3        1 LGH      0.113700
     22 N23         5.0350   -0.1890    0.6220 nd        1 LGH     -0.333300
     23 N24        -1.5280   -1.0300    0.0320 nh        1 LGH     -0.640000
     24 N25         1.0530   -2.1780   -0.6170 n         1 LGH     -0.451800
     25 N26        -6.1790    2.1640    0.9690 no        1 LGH      0.318200
     26 O27        -7.2610    1.6960    0.7360 o         1 LGH     -0.208000
     27 O28         2.3890   -1.8730   -2.4610 o         1 LGH     -0.587100
     28 O29        -6.0440    3.2790    1.3980 o         1 LGH     -0.208000
     29 O30         5.1710   -1.4380    1.0190 os        1 LGH     -0.115100
     30 O31         3.3830    2.2110    1.2260 os        1 LGH     -0.321900
     31 CL32       -4.2090   -2.3340   -0.5320 cl        1 LGH     -0.062400
     32 H1          2.8180    2.2800   -4.0110 ha        1 LGH      0.142000
     33 H2          2.4160    4.3780   -2.7160 ha        1 LGH      0.136000
     34 H3          3.5160    0.1950   -2.8320 ha        1 LGH      0.167000
     35 H5         -3.5940    2.9030    1.3650 ha        1 LGH      0.173000
     36 H6          2.6880    4.3970   -0.2490 ha        1 LGH      0.141000
     37 H7         -6.1120   -0.3850    0.0450 ha        1 LGH      0.184000
     38 H17        -0.6660   -0.5920    1.9000 h1        1 LGH      0.054450
     39 H17A        0.1020    0.2890    0.4940 h1        1 LGH      0.054450
     40 H18        -0.8510   -0.4370   -1.9050 h1        1 LGH      0.054450
     41 H18A       -2.1200   -1.7460   -1.8670 h1        1 LGH      0.054450
     42 H19         1.6420   -1.4120    1.2740 h1        1 LGH      0.073950
     43 H19A        0.3560   -2.7120    1.2710 h1        1 LGH      0.073950
     44 H20        -0.5400   -3.4290   -1.1030 h1        1 LGH      0.073950
     45 H20A        0.2000   -2.5360   -2.5220 h1        1 LGH      0.073950
     46 H21         4.6290   -4.2540   -0.0880 hc        1 LGH      0.073700
     47 H21A        4.8350   -3.8580    1.6750 hc        1 LGH      0.073700
     48 H21B        3.1630   -4.0430    0.9680 hc        1 LGH      0.073700
     49 H22         3.7460    3.1280    2.9720 h1        1 LGH      0.047033
     50 H22A        4.2750    4.0950    1.4980 h1        1 LGH      0.047033
     51 H22B        2.4920    3.9710    1.9230 h1        1 LGH      0.047033
     52 C16         2.2570   -1.8090   -1.2220 c         1 LGH      0.704700
     53 H4         -1.5820    1.5470    0.9310 ha        1 LGH      0.154000
@<TRIPOS>BOND
     1    1    2 ar  
     2    1    3 ar  
     3    1   32 1   
     4    2    6 ar  
     5    2   33 1   
     6    3    8 ar  
     7    3   34 1   
     8    4    5 ar  
     9    4   10 ar  
    10    4   53 1   
    11    5   11 ar  
    12    5   35 1   
    13    6   12 ar  
    14    6   36 1   
    15    7   11 ar  
    16    7   13 ar  
    17    7   37 1   
    18    8   12 ar  
    19    8   14 1   
    20    9   14 1   
    21    9   15 2   
    22    9   52 1   
    23   10   13 ar  
    24   10   23 1   
    25   11   25 1   
    26   12   30 1   
    27   13   31 1   
    28   14   22 2   
    29   15   20 1   
    30   15   29 1   
    31   16   18 1   
    32   16   23 1   
    33   16   38 1   
    34   16   39 1   
    35   17   19 1   
    36   17   23 1   
    37   17   40 1   
    38   17   41 1   
    39   18   24 1   
    40   18   42 1   
    41   18   43 1   
    42   19   24 1   
    43   19   44 1   
    44   19   45 1   
    45   20   46 1   
    46   20   47 1   
    47   20   48 1   
    48   21   30 1   
    49   21   49 1   
    50   21   50 1   
    51   21   51 1   
    52   22   29 1   
    53   24   52 1   
    54   25   26 1   
    55   25   28 1   
    56   27   52 2   
@<TRIPOS>SUBSTRUCTURE
     1 LGH         1 TEMP              0 ****  ****    0 ROOT
