@<TRIPOS>MOLECULE
LGJ
   59    63     1     0     0
SMALL
bcc


@<TRIPOS>ATOM
      1 C1         -0.2950    0.4230   -0.1090 ca        1 LGJ     -0.066000
      2 C2          1.0740    0.5690   -0.3320 ca        1 LGJ     -0.150000
      3 C3          0.3670   -3.2360   10.9090 ca        1 LGJ     -0.117000
      4 C4         -0.7700    0.2820    1.1920 ca        1 LGJ     -0.148000
      5 C5         -0.2420   -1.0170    4.3950 ca        1 LGJ     -0.068000
      6 C6          0.1550   -4.4340   11.5860 ca        1 LGJ     -0.100000
      7 C7         -0.7000   -2.4050   10.5810 ca        1 LGJ     -0.092000
      8 C8         -0.8690   -1.1860    5.6260 ca        1 LGJ     -0.136000
      9 C9          1.9490    0.5730    0.7470 ca        1 LGJ     -0.036000
     10 C10        -1.3660    1.0970    4.0830 ca        1 LGJ     -0.123000
     11 C11        -2.2360   -3.9950   11.6200 ca        1 LGJ     -0.059000
     12 C12        -4.5180   -0.5420    9.5110 cc        1 LGJ     -0.205300
     13 C13        -0.4810    0.1200    3.6160 cp        1 LGJ     -0.102000
     14 C14         0.1140    0.2770    2.2820 cp        1 LGJ      0.085000
     15 C15        -1.1460   -4.8130   11.9390 ca        1 LGJ     -0.103900
     16 C16        -2.0090   -2.7870   10.9330 ca        1 LGJ     -0.000200
     17 C17        -1.7620   -0.2180    6.1260 ca        1 LGJ      0.050600
     18 C18        -1.9990    0.9440    5.3230 ca        1 LGJ      0.060900
     19 C19         1.4960    0.4280    2.0700 ca        1 LGJ     -0.361500
     20 C20        -3.3390   -1.2940    9.3670 cd        1 LGJ     -0.167900
     21 C21        -4.9390   -0.7910   10.8650 cc        1 LGJ      0.203600
     22 C22        -1.3830   -6.0690   12.6500 cc        1 LGJ      0.403500
     23 C23        -1.1250   -8.2350   13.3050 c         1 LGJ      0.743500
     24 C24        -2.5110   -1.4680    8.1480 c         1 LGJ      0.707700
     25 C25         2.2650    1.8290    4.1260 c3        1 LGJ     -0.362300
     26 C26        -6.1660   -0.2190   11.5410 c3        1 LGJ      0.634600
     27 N27        -4.0640   -1.6340   11.4930 nd        1 LGJ     -0.415800
     28 N28        -2.3200   -6.2890   13.5970 nd        1 LGJ     -0.486300
     29 N29        -3.1160   -1.9370   10.6060 na        1 LGJ      0.213300
     30 N30        -0.6250   -7.2460   12.4180 n         1 LGJ     -0.497400
     31 N31        -2.2510   -7.5950   13.9440 n         1 LGJ     -0.271900
     32 N32        -2.4000   -0.3220    7.3700 n         1 LGJ     -0.459100
     33 O33        -0.7370   -9.4050   13.4290 o         1 LGJ     -0.605500
     34 O34        -1.9740   -2.5510    7.8640 o         1 LGJ     -0.559100
     35 O35         2.5600   -0.6890    4.1030 o         1 LGJ     -0.660300
     36 O36         3.9430    0.6260    2.6800 o         1 LGJ     -0.660300
     37 F37        -2.8430    1.9170    5.7560 f         1 LGJ     -0.144900
     38 F38        -7.0580   -1.1630   11.9810 f         1 LGJ     -0.226300
     39 F39        -5.8950    0.5480   12.6450 f         1 LGJ     -0.226300
     40 F40        -6.9040    0.6010   10.7230 f         1 LGJ     -0.226300
     41 S41         2.6820    0.4320    3.2710 sy        1 LGJ      1.392300
     42 H1         -0.9990    0.4190   -0.9560 ha        1 LGJ      0.142000
     43 H2          1.4600    0.6800   -1.3570 ha        1 LGJ      0.146000
     44 H4         -1.8500    0.1660    1.3740 ha        1 LGJ      0.147000
     45 H5          0.4740   -1.7830    4.0490 ha        1 LGJ      0.178000
     46 H6          1.0150   -5.0690   11.8480 ha        1 LGJ      0.143000
     47 H7         -0.5150   -1.4670   10.0330 ha        1 LGJ      0.151000
     48 H8         -0.6540   -2.0990    6.2070 ha        1 LGJ      0.184000
     49 H9          3.0340    0.6900    0.5630 ha        1 LGJ      0.170000
     50 H10        -1.5770    1.9950    3.4820 ha        1 LGJ      0.156000
     51 H11        -3.2560   -4.2990   11.9110 ha        1 LGJ      0.179000
     52 H12        -5.0290    0.0770    8.7790 ha        1 LGJ      0.188000
     53 H25         1.1690    1.9190    4.3320 h1        1 LGJ      0.118033
     54 H25A        2.5670    2.7650    3.5940 h1        1 LGJ      0.118033
     55 H25B        2.7730    1.8580    5.1230 h1        1 LGJ      0.118033
     56 HN30        0.1580   -7.3340   11.8280 hn        1 LGJ      0.363500
     57 HN31       -2.5060   -7.8280   14.8820 hn        1 LGJ      0.354500
     58 HN32       -2.9160    0.4840    7.6590 hn        1 LGJ      0.335500
     59 H3          1.3900   -2.9380   10.6290 ha        1 LGJ      0.152000
@<TRIPOS>BOND
     1    1    2 ar  
     2    1    4 ar  
     3    1   42 1   
     4    2    9 ar  
     5    2   43 1   
     6    3    6 ar  
     7    3    7 ar  
     8    3   59 1   
     9    4   14 ar  
    10    4   44 1   
    11    5    8 ar  
    12    5   13 ar  
    13    5   45 1   
    14    6   15 ar  
    15    6   46 1   
    16    7   16 ar  
    17    7   47 1   
    18    8   17 ar  
    19    8   48 1   
    20    9   19 ar  
    21    9   49 1   
    22   10   13 ar  
    23   10   18 ar  
    24   10   50 1   
    25   11   15 ar  
    26   11   16 ar  
    27   11   51 1   
    28   12   20 2   
    29   12   21 1   
    30   12   52 1   
    31   13   14 1   
    32   14   19 ar  
    33   15   22 1   
    34   16   29 1   
    35   17   18 ar  
    36   17   32 1   
    37   18   37 1   
    38   19   41 1   
    39   20   24 1   
    40   20   29 1   
    41   21   26 1   
    42   21   27 2   
    43   22   28 2   
    44   22   30 1   
    45   23   30 1   
    46   23   31 1   
    47   23   33 2   
    48   24   32 1   
    49   24   34 2   
    50   25   41 1   
    51   25   53 1   
    52   25   54 1   
    53   25   55 1   
    54   26   38 1   
    55   26   39 1   
    56   26   40 1   
    57   27   29 1   
    58   28   31 1   
    59   30   56 1   
    60   31   57 1   
    61   32   58 1   
    62   35   41 2   
    63   36   41 2   
@<TRIPOS>SUBSTRUCTURE
     1 LGJ         1 TEMP              0 ****  ****    0 ROOT
