@<TRIPOS>MOLECULE
LGJ
   59    63     1     0     0
SMALL
bcc


@<TRIPOS>ATOM
      1 C1         -0.3090    0.4230   -0.1110 ca        1 LGJ     -0.066000
      2 C2          1.0600    0.5630   -0.3390 ca        1 LGJ     -0.150000
      3 C3          0.3710   -3.2410   10.9040 ca        1 LGJ     -0.117000
      4 C4         -0.7810    0.2830    1.1900 ca        1 LGJ     -0.148000
      5 C5         -0.2500   -1.0210    4.3910 ca        1 LGJ     -0.068000
      6 C6          0.1560   -4.4380   11.5830 ca        1 LGJ     -0.100000
      7 C7         -0.6950   -2.4060   10.5780 ca        1 LGJ     -0.092000
      8 C8         -0.8740   -1.1870    5.6240 ca        1 LGJ     -0.136000
      9 C9          1.9380    0.5610    0.7390 ca        1 LGJ     -0.036000
     10 C10        -1.3650    1.0990    4.0840 ca        1 LGJ     -0.123000
     11 C11        -2.2330   -3.9900   11.6230 ca        1 LGJ     -0.059000
     12 C12        -4.5090   -0.5300    9.5200 cc        1 LGJ     -0.205300
     13 C13        -0.4860    0.1170    3.6140 cp        1 LGJ     -0.102000
     14 C14         0.1060    0.2730    2.2780 cp        1 LGJ      0.085000
     15 C15        -1.1450   -4.8120   11.9400 ca        1 LGJ     -0.103900
     16 C16        -2.0040   -2.7840   10.9350 ca        1 LGJ     -0.000200
     17 C17        -1.7610   -0.2160    6.1270 ca        1 LGJ      0.050600
     18 C18        -1.9950    0.9470    5.3250 ca        1 LGJ      0.060900
     19 C19         1.4880    0.4180    2.0630 ca        1 LGJ     -0.361500
     20 C20        -3.3330   -1.2870    9.3720 cd        1 LGJ     -0.167900
     21 C21        -4.9270   -0.7770   10.8750 cc        1 LGJ      0.203600
     22 C22        -1.3840   -6.0670   12.6530 cc        1 LGJ      0.403500
     23 C23        -1.1310   -8.2330   13.3080 c         1 LGJ      0.743500
     24 C24        -2.5090   -1.4640    8.1510 c         1 LGJ      0.707700
     25 C25         2.2690    1.8140    4.1170 c3        1 LGJ     -0.362300
     26 C26        -6.1510   -0.2020   11.5540 c3        1 LGJ      0.634600
     27 N27        -4.0530   -1.6230   11.5000 nd        1 LGJ     -0.415800
     28 N28        -2.3190   -6.2830   13.6020 nd        1 LGJ     -0.486300
     29 N29        -3.1090   -1.9300   10.6110 na        1 LGJ      0.213300
     30 N30        -0.6300   -7.2460   12.4180 ns        1 LGJ     -0.497400
     31 N31        -2.2540   -7.5890   13.9500 ns        1 LGJ     -0.271900
     32 N32        -2.3970   -0.3180    7.3730 ns        1 LGJ     -0.459100
     33 O33        -0.7470   -9.4040   13.4310 o         1 LGJ     -0.605500
     34 O34        -1.9770   -2.5480    7.8660 o         1 LGJ     -0.559100
     35 O35         2.5530   -0.7060    4.0910 o         1 LGJ     -0.660300
     36 O36         3.9380    0.6050    2.6650 o         1 LGJ     -0.660300
     37 F37        -2.8340    1.9230    5.7610 f         1 LGJ     -0.144900
     38 F38        -7.0440   -1.1430   11.9970 f         1 LGJ     -0.226300
     39 F39        -5.8730    0.5650   12.6570 f         1 LGJ     -0.226300
     40 F40        -6.8880    0.6210   10.7380 f         1 LGJ     -0.226300
     41 S41         2.6780    0.4160    3.2600 sy        1 LGJ      1.392300
     42 H1         -1.0150    0.4230   -0.9560 ha        1 LGJ      0.142000
     43 H2          1.4440    0.6730   -1.3640 ha        1 LGJ      0.146000
     44 H4         -1.8610    0.1720    1.3760 ha        1 LGJ      0.147000
     45 H5          0.4620   -1.7900    4.0430 ha        1 LGJ      0.178000
     46 H6          1.0150   -5.0760   11.8420 ha        1 LGJ      0.143000
     47 H7         -0.5080   -1.4700   10.0300 ha        1 LGJ      0.151000
     48 H8         -0.6610   -2.1020    6.2040 ha        1 LGJ      0.184000
     49 H9          3.0230    0.6740    0.5510 ha        1 LGJ      0.170000
     50 H10        -1.5740    1.9980    3.4840 ha        1 LGJ      0.156000
     51 H11        -3.2530   -4.2900   11.9180 ha        1 LGJ      0.179000
     52 H12        -5.0200    0.0900    8.7890 ha        1 LGJ      0.188000
     53 H25         1.1740    1.9090    4.3250 h1        1 LGJ      0.118033
     54 H25A        2.5750    2.7490    3.5860 h1        1 LGJ      0.118033
     55 H25B        2.7790    1.8390    5.1140 h1        1 LGJ      0.118033
     56 HN30        0.1510   -7.3380   11.8270 hn        1 LGJ      0.363500
     57 HN31       -2.5060   -7.8200   14.8880 hn        1 LGJ      0.354500
     58 HN32       -2.9080    0.4890    7.6630 hn        1 LGJ      0.335500
     59 H3          1.3940   -2.9470   10.6210 ha        1 LGJ      0.152000
@<TRIPOS>BOND
     1    1    2 ar  
     2    1    4 ar  
     3    1   42 1   
     4    2    9 ar  
     5    2   43 1   
     6    3    6 ar  
     7    3    7 ar  
     8    3   59 1   
     9    4   14 ar  
    10    4   44 1   
    11    5    8 ar  
    12    5   13 ar  
    13    5   45 1   
    14    6   15 ar  
    15    6   46 1   
    16    7   16 ar  
    17    7   47 1   
    18    8   17 ar  
    19    8   48 1   
    20    9   19 ar  
    21    9   49 1   
    22   10   13 ar  
    23   10   18 ar  
    24   10   50 1   
    25   11   15 ar  
    26   11   16 ar  
    27   11   51 1   
    28   12   20 2   
    29   12   21 1   
    30   12   52 1   
    31   13   14 1   
    32   14   19 ar  
    33   15   22 1   
    34   16   29 1   
    35   17   18 ar  
    36   17   32 1   
    37   18   37 1   
    38   19   41 1   
    39   20   24 1   
    40   20   29 1   
    41   21   26 1   
    42   21   27 2   
    43   22   28 2   
    44   22   30 1   
    45   23   30 1   
    46   23   31 1   
    47   23   33 2   
    48   24   32 1   
    49   24   34 2   
    50   25   41 1   
    51   25   53 1   
    52   25   54 1   
    53   25   55 1   
    54   26   38 1   
    55   26   39 1   
    56   26   40 1   
    57   27   29 1   
    58   28   31 1   
    59   30   56 1   
    60   31   57 1   
    61   32   58 1   
    62   35   41 2   
    63   36   41 2   
@<TRIPOS>SUBSTRUCTURE
     1 LGJ         1 TEMP              0 ****  ****    0 ROOT
