@<TRIPOS>MOLECULE
LGJ
   60    64     1     0     0
SMALL
bcc


@<TRIPOS>ATOM
      1 C1          0.1260    0.5360    0.2310 ca        1 LGJ     -0.059000
      2 C2          1.0100    1.5650    0.5490 ca        1 LGJ     -0.125000
      3 C3          1.0170   -3.7130   11.8510 ca        1 LGJ     -0.117000
      4 C4         -0.5340   -0.1500    1.2510 ca        1 LGJ     -0.135000
      5 C5         -0.3610   -1.7250    4.1670 ca        1 LGJ     -0.084000
      6 C6          0.2920   -4.8340   12.2490 ca        1 LGJ     -0.073000
      7 C7          0.3930   -2.6520   11.1970 ca        1 LGJ     -0.071000
      8 C8         -0.9560   -2.4550    5.1880 ca        1 LGJ     -0.063000
      9 C9          1.2130    1.9100    1.8830 ca        1 LGJ     -0.030000
     10 C10        -2.2790   -0.2410    4.0610 ca        1 LGJ     -0.117000
     11 C11        -1.7400   -3.8390   11.3680 ca        1 LGJ     -0.076000
     12 C12        -2.7510   -0.4450    8.6760 cc        1 LGJ     -0.137300
     13 C13        -1.0000   -0.5990    3.6240 cp        1 LGJ      0.047000
     14 C14        -0.3200    0.1960    2.5880 cp        1 LGJ      0.028000
     15 C15        -1.0890   -4.8970   12.0120 ca        1 LGJ     -0.090900
     16 C16        -0.9880   -2.7310   10.9400 ca        1 LGJ     -0.053200
     17 C17        -2.2180   -2.0740    5.6770 ca        1 LGJ     -0.099400
     18 C18        -2.8920   -0.9680    5.0940 ca        1 LGJ      0.155900
     19 C19         0.5470    1.2510    2.9270 ca        1 LGJ     -0.347500
     20 C20        -2.1360   -1.6980    8.9200 cd        1 LGJ     -0.248900
     21 C21        -2.5850    0.2770    9.8990 cc        1 LGJ      0.200600
     22 C22        -1.8640   -6.0710   12.4110 cc        1 LGJ      0.373500
     23 C23        -2.5020   -7.9380   13.5440 c         1 LGJ      0.736500
     24 C24        -1.9330   -2.8100    8.0240 c         1 LGJ      0.615700
     25 C25         0.1080    3.2740    4.4760 c3        1 LGJ     -0.368300
     26 C26        -3.0540    1.6940   10.1830 c3        1 LGJ      0.637600
     27 N27        -1.9190   -0.4930   10.8260 nd        1 LGJ     -0.354800
     28 N28        -3.0050   -6.4960   11.8220 nd        1 LGJ     -0.493300
     29 N29        -1.6480   -1.6490   10.2560 na        1 LGJ      0.251300
     30 N30        -1.4650   -6.9550   13.4520 n         1 LGJ     -0.466400
     31 N31        -3.3640   -7.6540   12.4110 n         1 LGJ     -0.267900
     32 N32        -2.8260   -2.8080    6.7850 n4        1 LGJ     -0.534200
     33 O33        -2.5730   -8.8880   14.3280 o         1 LGJ     -0.566500
     34 O34        -1.1710   -3.7630    8.1020 o         1 LGJ     -0.416100
     35 O35         0.2620    0.9450    5.4380 o         1 LGJ     -0.658800
     36 O36         2.2690    1.9680    4.6390 o         1 LGJ     -0.658800
     37 F37        -4.1200   -0.6110    5.5410 f         1 LGJ     -0.127900
     38 F38        -3.9530    1.7800   11.2130 f         1 LGJ     -0.213300
     39 F39        -2.0420    2.5560   10.5070 f         1 LGJ     -0.213300
     40 F40        -3.6850    2.2670    9.1070 f         1 LGJ     -0.213300
     41 S41         0.8910    1.7820    4.4990 sy        1 LGJ      1.393300
     42 H1         -0.0490    0.2580   -0.8220 ha        1 LGJ      0.158000
     43 H2          1.5490    2.1020   -0.2480 ha        1 LGJ      0.162000
     44 H4         -1.2210   -0.9730    0.9980 ha        1 LGJ      0.149000
     45 H5          0.6380   -2.0200    3.8000 ha        1 LGJ      0.179000
     46 H7          0.9810   -1.7700   10.8940 ha        1 LGJ      0.167000
     47 H8         -0.4230   -3.3190    5.6240 ha        1 LGJ      0.172000
     48 H9          1.9310    2.7150    2.1290 ha        1 LGJ      0.161000
     49 H10        -2.8110    0.6190    3.6220 ha        1 LGJ      0.183000
     50 H11        -2.8300   -3.8810   11.2060 ha        1 LGJ      0.164000
     51 H12        -3.2220   -0.0750    7.7670 ha        1 LGJ      0.196000
     52 H25         0.2310    3.8110    5.4530 h1        1 LGJ      0.124033
     53 H25A       -0.9930    3.2040    4.3010 h1        1 LGJ      0.124033
     54 H25B        0.5050    3.9730    3.6970 h1        1 LGJ      0.124033
     55 HN30       -0.9110   -6.6800   14.2230 hn        1 LGJ      0.355500
     56 HN31       -4.3410   -7.8620   12.4490 hn        1 LGJ      0.356500
     57 HN32       -2.9680   -3.7850    6.4870 hn        1 LGJ      0.469300
     58 H3          2.1000   -3.6620   12.0510 ha        1 LGJ      0.166000
     59 H322       -3.7360   -2.3880    7.0150 hn        1 LGJ      0.469300
     60 H6          0.8150   -5.6710   12.7410 ha        1 LGJ      0.164000
@<TRIPOS>BOND
     1    1    2 ar  
     2    1    4 ar  
     3    1   42 1   
     4    2    9 ar  
     5    2   43 1   
     6    3    6 ar  
     7    3    7 ar  
     8    3   58 1   
     9    4   14 ar  
    10    4   44 1   
    11    5    8 ar  
    12    5   13 ar  
    13    5   45 1   
    14    6   15 ar  
    15    6   60 1   
    16    7   16 ar  
    17    7   46 1   
    18    8   17 ar  
    19    8   47 1   
    20    9   19 ar  
    21    9   48 1   
    22   10   13 ar  
    23   10   18 ar  
    24   10   49 1   
    25   11   15 ar  
    26   11   16 ar  
    27   11   50 1   
    28   12   20 2   
    29   12   21 1   
    30   12   51 1   
    31   13   14 1   
    32   14   19 ar  
    33   15   22 1   
    34   16   29 1   
    35   17   18 ar  
    36   17   32 1   
    37   18   37 1   
    38   19   41 1   
    39   20   24 1   
    40   20   29 1   
    41   21   26 1   
    42   21   27 2   
    43   22   28 2   
    44   22   30 1   
    45   23   30 1   
    46   23   31 1   
    47   23   33 2   
    48   24   32 1   
    49   24   34 2   
    50   25   41 1   
    51   25   52 1   
    52   25   53 1   
    53   25   54 1   
    54   26   38 1   
    55   26   39 1   
    56   26   40 1   
    57   27   29 1   
    58   28   31 1   
    59   30   55 1   
    60   31   56 1   
    61   32   57 1   
    62   32   59 1   
    63   35   41 2   
    64   36   41 2   
@<TRIPOS>SUBSTRUCTURE
     1 LGJ         1 TEMP              0 ****  ****    0 ROOT
