@<TRIPOS>MOLECULE
LGJ
   59    47     1     0     0
SMALL
bcc


@<TRIPOS>ATOM
      1 C1         -0.4250    1.0950   -7.7220 c1        1 LGJ     -0.101667
      2 C2          0.7360    0.5320   -8.2280 c1        1 LGJ     -0.101667
      3 C3         -0.6160   -2.5780    4.9520 c1        1 LGJ     -0.101667
      4 C4         -0.7560    0.9200   -6.3870 c1        1 LGJ     -0.101667
      5 C5         -0.1110    1.4940   -3.5550 c1        1 LGJ     -0.081000
      6 C6          0.5090   -2.1560    5.6430 c1        1 LGJ     -0.100000
      7 C7         -1.2970   -1.6930    4.1310 c1        1 LGJ     -0.101667
      8 C8         -0.6440    1.6830   -2.2890 c1        1 LGJ     -0.146000
      9 C9          1.5660   -0.2050   -7.3990 c1        1 LGJ     -0.101667
     10 C10        -1.2690   -0.6020   -3.7290 c1        1 LGJ     -0.092000
     11 C11         0.2710    0.0360    4.6920 c1        1 LGJ     -0.081000
     12 C12        -3.2170    1.5770    2.2650 c1        1 LGJ     -0.137000
     13 C13        -0.4240    0.3510   -4.2750 c1        1 LGJ     -0.027000
     14 C14         0.0740    0.1820   -5.5590 c1        1 LGJ      0.085000
     15 C15         0.9530   -0.8490    5.5130 c1        1 LGJ     -0.019000
     16 C16        -0.8540   -0.3860    4.0010 c1        1 LGJ     -0.027000
     17 C17        -1.4900    0.7300   -1.7420 c1        1 LGJ      0.055000
     18 C18        -1.8020   -0.4130   -2.4620 c1        1 LGJ      0.040000
     19 C19         1.2360   -0.3800   -6.0640 c1        1 LGJ     -0.805000
     20 C20        -2.1570    0.7460    2.0440 c1        1 LGJ     -0.171500
     21 C21        -3.4130    1.6590    3.6130 c1        1 LGJ     -0.171500
     22 C22         2.1670   -0.3810    6.2890 c2        1 LGJ      0.023000
     23 C23         4.2390   -0.7050    7.1240 c1        1 LGJ      0.334000
     24 C24        -1.5610    0.4040    0.6960 c1        1 LGJ      0.383000
     25 C25         3.9940   -1.1380   -5.5310 c3        1 LGJ     -0.942000
     26 C26        -4.3780    2.3780    4.5270 c2        1 LGJ      0.515000
     27 N27        -2.4860    0.8880    4.2170 n2        1 LGJ     -0.005000
     28 N28         2.0820   -0.1830    7.5630 n1        1 LGJ     -0.064000
     29 N29        -1.7050    0.3200    3.2420 n2        1 LGJ     -0.005000
     30 N30         3.4100   -0.7070    5.8610 n2        1 LGJ     -0.336000
     31 N31         3.2420   -0.3370    8.2200 n2        1 LGJ     -0.251000
     32 N32        -2.1100    0.9690   -0.4850 n3        1 LGJ     -0.313000
     33 O33         5.4460   -0.5830    7.1860 o         1 LGJ     -0.330000
     34 O34        -0.5610   -0.2830    0.6320 o         1 LGJ     -0.329000
     35 O35         1.9150   -2.2570   -4.3110 o         1 LGJ     -0.938500
     36 O36         2.1670   -2.8400   -6.4390 o         1 LGJ     -0.938500
     37 F37        -2.3290   -1.5670   -2.0330 f         1 LGJ     -0.103000
     38 F38        -5.5490    1.7280    4.5400 f         1 LGJ     -0.154667
     39 F39        -3.8750    2.4160    5.7670 f         1 LGJ     -0.154667
     40 F40        -4.5670    3.6280    4.0830 f         1 LGJ     -0.154667
     41 S41         2.3130   -1.7010   -5.5750 s6        1 LGJ      2.855000
     42 H1         -1.0100    1.6140   -8.3060 ha        1 LGJ      0.150500
     43 H2          0.9690    0.6560   -9.1680 ha        1 LGJ      0.150500
     44 H3         -0.9280   -3.4990    5.0430 ha        1 LGJ      0.150500
     45 H4         -1.5740    1.3160   -6.0310 ha        1 LGJ      0.150500
     46 H5          0.4840    2.1650   -3.9400 ha        1 LGJ      0.163000
     47 H6          0.9890   -2.7790    6.2210 ha        1 LGJ      0.142000
     48 H7         -2.0900   -1.9910    3.6440 ha        1 LGJ      0.150500
     49 H8         -0.4240    2.4880   -1.7820 ha        1 LGJ      0.180000
     50 H9          2.3840   -0.6020   -7.7550 ha        1 LGJ      0.150500
     51 H10        -1.4890   -1.4070   -4.2360 ha        1 LGJ      0.189000
     52 H11         0.5840    0.9550    4.6010 ha        1 LGJ      0.163000
     53 H12        -3.7150    2.0640    1.5820 DU        1 LGJ      0.189000
     54 H25         4.5770   -1.8190   -5.9290 h1        1 LGJ      0.157333
     55 H25A        4.0730   -0.3040   -6.0390 h1        1 LGJ      0.157333
     56 H25B        4.2620   -0.9820   -4.6010 h1        1 LGJ      0.157333
     57 HN30        3.6140   -1.1450    5.0870 hn        1 LGJ      0.276000
     58 HN31        3.4480    0.0190    9.0350 hn        1 LGJ      0.269000
     59 HN32       -2.8790    1.4590   -0.4420 hn        1 LGJ      0.252000
@<TRIPOS>BOND
     1    1    4 1   
     2    1   42 1   
     3    2    9 1   
     4    2   43 1   
     5    3    7 1   
     6    3   44 1   
     7    4   45 1   
     8    5   13 1   
     9    5   46 1   
    10    6   15 1   
    11    6   47 1   
    12    7   48 1   
    13    8   17 1   
    14    8   49 1   
    15    9   50 1   
    16   10   18 1   
    17   10   51 1   
    18   11   16 1   
    19   11   52 1   
    20   12   20 1   
    21   12   21 1   
    22   14   19 1   
    23   15   22 1   
    24   17   32 1   
    25   18   37 1   
    26   19   41 1   
    27   20   29 1   
    28   21   27 1   
    29   22   28 1   
    30   22   30 1   
    31   23   31 1   
    32   23   33 1   
    33   24   32 1   
    34   24   34 1   
    35   25   41 1   
    36   25   54 1   
    37   25   55 1   
    38   25   56 1   
    39   26   38 1   
    40   26   39 1   
    41   26   40 1   
    42   27   29 1   
    43   30   57 1   
    44   31   58 1   
    45   32   59 1   
    46   35   41 1   
    47   36   41 1   
@<TRIPOS>SUBSTRUCTURE
     1 LGJ         1 TEMP              0 ****  ****    0 ROOT
