@<TRIPOS>MOLECULE
LGJ
   59    63     1     0     0
SMALL
bcc


@<TRIPOS>ATOM
      1 C1         -8.0640    0.3550    2.2200 ca        1 LGJ     -0.066000
      2 C2         -8.7850   -0.5450    1.4350 ca        1 LGJ     -0.150000
      3 C3          2.5760   -2.4810   -1.5210 ca        1 LGJ     -0.119000
      4 C4         -6.7340    0.6250    1.9140 ca        1 LGJ     -0.148000
      5 C5         -3.6750   -0.5960    0.7430 ca        1 LGJ     -0.068000
      6 C6          3.7160   -3.1070   -1.0210 ca        1 LGJ     -0.094000
      7 C7          2.3250   -1.1380   -1.2540 ca        1 LGJ     -0.091000
      8 C8         -2.3410   -0.2350    0.5810 ca        1 LGJ     -0.135000
      9 C9         -8.1650   -1.1620    0.3540 ca        1 LGJ     -0.036000
     10 C10        -4.3720    1.6650    0.2610 ca        1 LGJ     -0.123000
     11 C11         4.3840   -1.0310    0.0550 ca        1 LGJ     -0.062000
     12 C12         1.9820    2.9370    0.3250 cc        1 LGJ     -0.206300
     13 C13        -4.6990    0.3440    0.5850 cp        1 LGJ     -0.102000
     14 C14        -6.1060   -0.0040    0.8280 cp        1 LGJ      0.085000
     15 C15         4.6220   -2.3790   -0.2390 ca        1 LGJ     -0.106900
     16 C16         3.2280   -0.4100   -0.4570 ca        1 LGJ     -0.002200
     17 C17        -1.9800    1.0860    0.2500 ca        1 LGJ      0.050600
     18 C18        -3.0350    2.0410    0.0870 ca        1 LGJ      0.060900
     19 C19        -6.8220   -0.9090    0.0250 ca        1 LGJ     -0.360500
     20 C20         1.7510    1.5570    0.1840 cd        1 LGJ     -0.164900
     21 C21         3.3810    3.0990    0.0310 cc        1 LGJ      0.204600
     22 C22         5.8230   -3.0250    0.2890 cc        1 LGJ      0.389500
     23 C23         7.6430   -4.3870    0.3980 c         1 LGJ      0.734500
     24 C24         0.4900    0.8150    0.4340 c         1 LGJ      0.706700
     25 C25        -5.8750   -0.4740   -2.3600 c3        1 LGJ     -0.362300
     26 C26         4.1550    4.3990    0.0400 c3        1 LGJ      0.634600
     27 N27         3.9500    1.8930   -0.2720 nd        1 LGJ     -0.421800
     28 N28         6.4240   -2.7540    1.4680 nd        1 LGJ     -0.480300
     29 N29         2.9870    0.9760   -0.1790 na        1 LGJ      0.215300
     30 N30         6.5000   -4.0730   -0.3980 n         1 LGJ     -0.477400
     31 N31         7.4590   -3.6120    1.6070 n         1 LGJ     -0.270900
     32 N32        -0.6550    1.4990    0.0470 n         1 LGJ     -0.460100
     33 O33         8.5190   -5.2270    0.1600 o         1 LGJ     -0.597500
     34 O34         0.4800   -0.3160    0.9450 o         1 LGJ     -0.556100
     35 O35        -5.0180   -2.4140   -0.9720 o         1 LGJ     -0.659800
     36 O36        -7.2220   -2.5450   -1.8630 o         1 LGJ     -0.659800
     37 F37        -2.7500    3.3280   -0.2400 f         1 LGJ     -0.145900
     38 F38         5.2040    4.4250    0.9240 f         1 LGJ     -0.226300
     39 F39         4.7090    4.7320   -1.1690 f         1 LGJ     -0.226300
     40 F40         3.3880    5.4860    0.3800 f         1 LGJ     -0.226300
     41 S41        -6.2070   -1.7490   -1.3030 sy        1 LGJ      1.392300
     42 H1         -8.5440    0.8490    3.0790 ha        1 LGJ      0.142000
     43 H2         -9.8370   -0.7680    1.6690 ha        1 LGJ      0.146000
     44 H4         -6.1600    1.3340    2.5310 ha        1 LGJ      0.147000
     45 H5         -3.9210   -1.6480    0.9730 ha        1 LGJ      0.179000
     46 H6          3.8870   -4.1740   -1.2300 ha        1 LGJ      0.151000
     47 H7          1.4120   -0.6630   -1.6480 ha        1 LGJ      0.151000
     48 H8         -1.5640   -1.0080    0.7180 ha        1 LGJ      0.184000
     49 H9         -8.7430   -1.8740   -0.2660 ha        1 LGJ      0.170000
     50 H10        -5.1620    2.4230    0.1420 ha        1 LGJ      0.156000
     51 H11         5.0980   -0.4700    0.6810 ha        1 LGJ      0.176000
     52 H12         1.2860    3.7210    0.6100 ha        1 LGJ      0.188000
     53 H25        -5.3560    0.3900   -1.8730 h1        1 LGJ      0.118033
     54 H25A       -5.2070   -0.8060   -3.1960 h1        1 LGJ      0.118033
     55 H25B       -6.7970   -0.0620   -2.8410 h1        1 LGJ      0.118033
     56 HN30        6.4480   -4.2200   -1.3720 hn        1 LGJ      0.352500
     57 HN31        8.2460   -3.2880    2.1290 hn        1 LGJ      0.352500
     58 HN32       -0.5430    2.4280   -0.3030 hn        1 LGJ      0.334500
     59 H3          1.8590   -3.0530   -2.1310 ha        1 LGJ      0.152000
@<TRIPOS>BOND
     1    1    2 ar  
     2    1    4 ar  
     3    1   42 1   
     4    2    9 ar  
     5    2   43 1   
     6    3    6 ar  
     7    3    7 ar  
     8    3   59 1   
     9    4   14 ar  
    10    4   44 1   
    11    5    8 ar  
    12    5   13 ar  
    13    5   45 1   
    14    6   15 ar  
    15    6   46 1   
    16    7   16 ar  
    17    7   47 1   
    18    8   17 ar  
    19    8   48 1   
    20    9   19 ar  
    21    9   49 1   
    22   10   13 ar  
    23   10   18 ar  
    24   10   50 1   
    25   11   15 ar  
    26   11   16 ar  
    27   11   51 1   
    28   12   20 2   
    29   12   21 1   
    30   12   52 1   
    31   13   14 1   
    32   14   19 ar  
    33   15   22 1   
    34   16   29 1   
    35   17   18 ar  
    36   17   32 1   
    37   18   37 1   
    38   19   41 1   
    39   20   24 1   
    40   20   29 1   
    41   21   26 1   
    42   21   27 2   
    43   22   28 2   
    44   22   30 1   
    45   23   30 1   
    46   23   31 1   
    47   23   33 2   
    48   24   32 1   
    49   24   34 2   
    50   25   41 1   
    51   25   53 1   
    52   25   54 1   
    53   25   55 1   
    54   26   38 1   
    55   26   39 1   
    56   26   40 1   
    57   27   29 1   
    58   28   31 1   
    59   30   56 1   
    60   31   57 1   
    61   32   58 1   
    62   35   41 2   
    63   36   41 2   
@<TRIPOS>SUBSTRUCTURE
     1 LGJ         1 TEMP              0 ****  ****    0 ROOT
