@<TRIPOS>MOLECULE
LGK
   63    52     1     0     0
SMALL
bcc


@<TRIPOS>ATOM
      1 C1          4.5170   -0.1810   -5.6610 c1        1 LGK     -0.108375
      2 C2          5.6500   -0.9600   -5.8000 c1        1 LGK     -0.108375
      3 C3         -4.1590    4.2860    1.3970 c1        1 LGK     -0.108375
      4 C4          3.7300   -0.3040   -4.5410 c1        1 LGK     -0.108375
      5 C5          3.3290    0.0430   -1.6210 c1        1 LGK     -0.066000
      6 C6          2.2050   -2.0100   -2.1890 c1        1 LGK     -0.108375
      7 C7         -5.4290    3.7270    1.2640 c1        1 LGK     -0.098000
      8 C8         -3.0970    3.4990    1.8000 c1        1 LGK     -0.108375
      9 C9          2.4630    0.1970   -0.4920 c1        1 LGK     -0.126000
     10 C10         1.3470   -1.8590   -1.0720 c1        1 LGK     -0.108375
     11 C11         5.9940   -1.8660   -4.8120 c1        1 LGK     -0.108375
     12 C12        -4.5690    1.6040    1.9350 c1        1 LGK     -0.066000
     13 C13         3.1940   -1.0470   -2.4500 c1        1 LGK     -0.042000
     14 C14         4.0730   -1.2140   -3.5470 c1        1 LGK      0.090000
     15 C15        -5.6260    2.3860    1.5350 c1        1 LGK     -0.028000
     16 C16        -0.5240    0.3450    3.3930 c1        1 LGK     -0.080000
     17 C17        -3.2920    2.1660    2.0690 c1        1 LGK     -0.042000
     18 C18         1.4850   -0.7530   -0.2320 c1        1 LGK      0.078000
     19 C19         5.2050   -1.9920   -3.6870 c1        1 LGK     -0.808000
     20 C20        -1.2130    0.6020    2.1650 c1        1 LGK     -0.168000
     21 C21        -1.1480    1.0690    4.3890 c1        1 LGK     -0.168000
     22 C22        -6.9290    1.6280    1.3820 c2        1 LGK      0.026000
     23 C23        -0.5510    0.0350    0.8250 c1        1 LGK      0.391000
     24 C24        -8.9650    1.3040    0.4690 c1        1 LGK      0.331000
     25 C25         0.7210   -0.5950    3.3330 c2        1 LGK     -0.115000
     26 C26         0.9560   -1.2570    2.0890 c3        1 LGK     -0.019000
     27 C27         6.1690   -4.6700   -3.4330 c3        1 LGK     -0.941000
     28 C28        -1.0680    1.3310    5.9370 c2        1 LGK      0.516000
     29 N29        -2.2060    1.7690    3.8140 n2        1 LGK     -0.001500
     30 N30        -7.7760    1.5710    2.3740 n1        1 LGK     -0.069000
     31 N31        -2.2340    1.4680    2.4310 n2        1 LGK     -0.001500
     32 N32        -7.4930    1.4950    0.1650 n2        1 LGK     -0.334000
     33 N33        -9.0460    1.3830    1.9930 n2        1 LGK     -0.248000
     34 N34         0.6870   -0.5400    0.9360 n3        1 LGK     -0.282000
     35 O35        -0.9570    0.3730   -0.2290 o         1 LGK     -0.342000
     36 O36        -9.7750    0.7950   -0.2580 o         1 LGK     -0.330000
     37 O37         7.3780   -2.5770   -2.2760 o         1 LGK     -0.940000
     38 O38         5.4030   -3.2010   -1.3680 o         1 LGK     -0.940000
     39 F39        -2.0810    2.1480    6.3090 f         1 LGK     -0.156333
     40 F40        -1.1710    0.1450    6.6070 f         1 LGK     -0.156333
     41 F41         0.1210    1.9180    6.2350 f         1 LGK     -0.156333
     42 S42         6.0440   -3.0990   -2.6570 s6        1 LGK      2.856000
     43 H1          4.2810    0.4470   -6.3460 ha        1 LGK      0.149625
     44 H2          6.2090   -0.8710   -6.5970 ha        1 LGK      0.149625
     45 H3         -4.0260    5.1920    1.2150 ha        1 LGK      0.149625
     46 H4          2.9230    0.2520   -4.4420 ha        1 LGK      0.149625
     47 H5          4.0380    0.7310   -1.8100 ha        1 LGK      0.175500
     48 H6          2.1100   -2.7750   -2.7700 ha        1 LGK      0.149625
     49 H7         -6.1690    4.2750    0.9840 ha        1 LGK      0.140000
     50 H8         -2.1710    3.9060    1.8970 ha        1 LGK      0.149625
     51 H9          2.5640    1.0120    0.1270 ha        1 LGK      0.164000
     52 H10         0.6340   -2.5520   -0.8820 ha        1 LGK      0.149625
     53 H11         6.7930   -2.4150   -4.9110 ha        1 LGK      0.149625
     54 H12        -4.7090    0.6510    2.1280 ha        1 LGK      0.175500
     55 H25         1.5310   -0.0500    3.5490 ha        1 LGK      0.122000
     56 H25A        0.6130   -1.3100    4.0590 ha        1 LGK      0.122000
     57 H26         1.9360   -1.5330    2.0640 h1        1 LGK      0.097500
     58 H26A        0.3950   -2.0920    2.0710 h1        1 LGK      0.097500
     59 H27         5.5210   -4.7200   -4.1890 h1        1 LGK      0.156667
     60 H27A        7.0830   -4.7930   -3.7780 h1        1 LGK      0.156667
     61 H27B        5.9730   -5.3610   -2.7970 h1        1 LGK      0.156667
     62 HN32       -7.1400    1.7940   -0.6290 hn        1 LGK      0.275000
     63 HN33       -9.7510    1.0470    2.5340 hn        1 LGK      0.266000
@<TRIPOS>BOND
     1    1    4 1   
     2    1   43 1   
     3    2   11 1   
     4    2   44 1   
     5    3    8 1   
     6    3   45 1   
     7    4   46 1   
     8    5   13 1   
     9    5   47 1   
    10    6   10 1   
    11    6   48 1   
    12    7   15 1   
    13    7   49 1   
    14    8   50 1   
    15    9   18 1   
    16    9   51 1   
    17   10   52 1   
    18   11   53 1   
    19   12   17 1   
    20   12   54 1   
    21   14   19 1   
    22   15   22 1   
    23   16   20 1   
    24   16   21 1   
    25   18   34 1   
    26   19   42 1   
    27   20   31 1   
    28   21   29 1   
    29   22   30 1   
    30   22   32 1   
    31   23   34 1   
    32   23   35 1   
    33   24   33 1   
    34   24   36 1   
    35   25   26 1   
    36   25   55 1   
    37   25   56 1   
    38   26   34 1   
    39   26   57 1   
    40   26   58 1   
    41   27   42 1   
    42   27   59 1   
    43   27   60 1   
    44   27   61 1   
    45   28   39 1   
    46   28   40 1   
    47   28   41 1   
    48   29   31 1   
    49   32   62 1   
    50   33   63 1   
    51   37   42 1   
    52   38   42 1   
@<TRIPOS>SUBSTRUCTURE
     1 LGK         1 TEMP              0 ****  ****    0 ROOT
