@<TRIPOS>MOLECULE
LGK
   63    68     1     0     0
SMALL
bcc


@<TRIPOS>ATOM
      1 C1         -6.9020   -3.8500   -0.4020 ca        1 LGK     -0.067000
      2 C2         -8.0990   -3.3120    0.0730 ca        1 LGK     -0.152000
      3 C3          3.4920   -2.5620   -1.8200 ca        1 LGK     -0.124000
      4 C4         -5.7610   -3.0570   -0.4490 ca        1 LGK     -0.150000
      5 C5         -3.4300   -1.3880    0.6170 ca        1 LGK     -0.083000
      6 C6         -4.4070    0.1320   -0.9840 ca        1 LGK     -0.083000
      7 C7          4.6150   -2.9320   -1.0830 ca        1 LGK     -0.094000
      8 C8          2.9260   -1.2980   -1.6730 ca        1 LGK     -0.073000
      9 C9         -2.2120   -0.7280    0.5190 ca        1 LGK     -0.150000
     10 C10        -3.1890    0.7940   -1.1030 ca        1 LGK     -0.150000
     11 C11        -8.1360   -1.9890    0.4940 ca        1 LGK     -0.036000
     12 C12         4.6270   -0.7520   -0.0080 ca        1 LGK     -0.064000
     13 C13        -4.5440   -0.9610   -0.1210 cp        1 LGK     -0.118000
     14 C14        -5.7990   -1.7170   -0.0320 cp        1 LGK      0.090000
     15 C15         5.1840   -2.0240   -0.1810 ca        1 LGK     -0.113900
     16 C16         1.5110    2.6650   -0.3440 cc        1 LGK     -0.148600
     17 C17         3.4920   -0.3890   -0.7590 ca        1 LGK     -0.008200
     18 C18        -2.0710    0.3810   -0.3450 ca        1 LGK      0.069600
     19 C19        -6.9970   -1.1650    0.4540 ca        1 LGK     -0.364500
     20 C20         1.5730    1.2600   -0.4880 cd        1 LGK     -0.170900
     21 C21         2.8790    3.0950   -0.3880 cc        1 LGK      0.212600
     22 C22         6.3610   -2.4020    0.6000 cc        1 LGK      0.391500
     23 C23         0.3770    0.3950   -0.4530 c         1 LGK      0.750100
     24 C24         8.3630   -3.3500    1.1210 c         1 LGK      0.733500
     25 C25         0.2340    3.3580   -0.1710 c3        1 LGK     -0.029100
     26 C26        -0.9130    2.5050   -0.7270 c3        1 LGK      0.096000
     27 C27        -6.1760    0.4500    2.3260 c3        1 LGK     -0.362300
     28 C28         3.4200    4.5050   -0.2870 c3        1 LGK      0.635600
     29 N29         3.7040    2.0110   -0.5460 nd        1 LGK     -0.428800
     30 N30         6.6440   -2.0120    1.8610 nd        1 LGK     -0.484300
     31 N31         2.9340    0.9230   -0.6060 na        1 LGK      0.228300
     32 N32         7.3630   -3.2840    0.1040 n         1 LGK     -0.477400
     33 N33         7.7840   -2.6340    2.2380 n         1 LGK     -0.268900
     34 N34        -0.8420    1.0840   -0.4300 n         1 LGK     -0.379000
     35 O36         9.4230   -3.9880    1.0950 o         1 LGK     -0.597500
     36 O37        -6.7640    1.3430    0.0260 o         1 LGK     -0.662300
     37 O38        -8.5290    0.5930    1.4350 o         1 LGK     -0.662300
     38 F39         4.2090    4.7230    0.8150 f         1 LGK     -0.227967
     39 F40         4.1970    4.8860   -1.3510 f         1 LGK     -0.227967
     40 F41         2.4480    5.4710   -0.2110 f         1 LGK     -0.227967
     41 S42        -7.2070    0.4220    0.9870 sy        1 LGK      1.392300
     42 H1         -6.8600   -4.8980   -0.7380 ha        1 LGK      0.140000
     43 H2         -9.0080   -3.9300    0.1130 ha        1 LGK      0.145000
     44 H3          3.0380   -3.2770   -2.5240 ha        1 LGK      0.151000
     45 H4         -4.8130   -3.4760   -0.8230 ha        1 LGK      0.147000
     46 H5         -3.5210   -2.2590    1.2850 ha        1 LGK      0.156500
     47 H6         -5.2750    0.4920   -1.5640 ha        1 LGK      0.156500
     48 H7          5.0370   -3.9420   -1.2020 ha        1 LGK      0.150000
     49 H8          2.0240   -1.0320   -2.2480 ha        1 LGK      0.161000
     50 H9         -1.3500   -1.0910    1.1020 ha        1 LGK      0.152000
     51 H10        -3.1180    1.6440   -1.7990 ha        1 LGK      0.152000
     52 H11        -9.0880   -1.5680    0.8730 ha        1 LGK      0.169000
     53 H12         5.0790   -0.0480    0.7110 ha        1 LGK      0.175000
     54 H25         0.0680    3.5670    0.9220 hc        1 LGK      0.082700
     55 H25A        0.2350    4.3470   -0.7050 hc        1 LGK      0.082700
     56 H26        -1.8790    2.9040   -0.3020 h1        1 LGK      0.061200
     57 H26A       -0.9420    2.6370   -1.8490 h1        1 LGK      0.061200
     58 H27        -5.1710    0.0000    2.1270 h1        1 LGK      0.118367
     59 H27A       -5.9850    1.5000    2.6650 h1        1 LGK      0.118367
     60 H27B       -6.6000   -0.0910    3.2070 h1        1 LGK      0.118367
     61 HN32        7.5420   -3.4340   -0.8550 hn        1 LGK      0.352500
     62 HN33        8.3690   -2.1450    2.8840 hn        1 LGK      0.350500
     63 O35         0.4440   -0.8460   -0.4110 o         1 LGK     -0.614500
@<TRIPOS>BOND
     1    1    2 ar  
     2    1    4 ar  
     3    1   42 1   
     4    2   11 ar  
     5    2   43 1   
     6    3    7 ar  
     7    3    8 ar  
     8    3   44 1   
     9    4   14 ar  
    10    4   45 1   
    11    5    9 ar  
    12    5   13 ar  
    13    5   46 1   
    14    6   10 ar  
    15    6   13 ar  
    16    6   47 1   
    17    7   15 ar  
    18    7   48 1   
    19    8   17 ar  
    20    8   49 1   
    21    9   18 ar  
    22    9   50 1   
    23   10   18 ar  
    24   10   51 1   
    25   11   19 ar  
    26   11   52 1   
    27   12   15 ar  
    28   12   17 ar  
    29   12   53 1   
    30   13   14 1   
    31   14   19 ar  
    32   15   22 1   
    33   16   20 2   
    34   16   21 1   
    35   16   25 1   
    36   17   31 1   
    37   18   34 1   
    38   19   41 1   
    39   20   23 1   
    40   20   31 1   
    41   21   28 1   
    42   21   29 2   
    43   22   30 2   
    44   22   32 1   
    45   23   34 1   
    46   23   63 2   
    47   24   32 1   
    48   24   33 1   
    49   24   35 2   
    50   25   26 1   
    51   25   54 1   
    52   25   55 1   
    53   26   34 1   
    54   26   56 1   
    55   26   57 1   
    56   27   41 1   
    57   27   58 1   
    58   27   59 1   
    59   27   60 1   
    60   28   38 1   
    61   28   39 1   
    62   28   40 1   
    63   29   31 1   
    64   30   33 1   
    65   32   61 1   
    66   33   62 1   
    67   36   41 2   
    68   37   41 2   
@<TRIPOS>SUBSTRUCTURE
     1 LGK         1 TEMP              0 ****  ****    0 ROOT
