@<TRIPOS>MOLECULE
LGK
   63    78     1     0     0
SMALL
bcc


@<TRIPOS>ATOM
      1 C1          0.0000    0.0000    0.0000 c3        1 LGK     -0.245000
      2 C2          1.3830    0.0000    0.0000 c2        1 LGK     -0.268000
      3 C3         -8.1170   -1.6910    6.4150 c3        1 LGK      0.403000
      4 C4         -0.6930    0.0020    1.1930 c2        1 LGK      0.093000
      5 C5         -1.5120    1.1050    4.0440 c2        1 LGK     -0.174000
      6 C6         -0.6550   -1.0970    4.5390 c2        1 LGK     -0.052000
      7 C7         -9.3150   -1.0070    6.4440 c2        1 LGK     -0.026000
      8 C8         -7.0720   -1.2970    7.2280 c2        1 LGK     -0.003000
      9 C9         -2.1990    1.1030    5.2390 c2        1 LGK     -0.270000
     10 C10        -1.3450   -1.0940    5.7330 c2        1 LGK     -0.099000
     11 C11         2.0790    0.0000    1.1960 c2        1 LGK     -0.074000
     12 C12        -8.4190    0.4850    8.1140 c2        1 LGK     -0.133000
     13 C13        -0.7360    0.0030    3.6860 c3        1 LGK      0.035000
     14 C14         0.0030    0.0020    2.4000 c2        1 LGK     -0.090000
     15 C15        -9.4740    0.0880    7.2950 c2        1 LGK     -0.140000
     16 C16        -4.1450    0.7140    9.6550 c2        1 LGK     -0.077000
     17 C17        -7.2190   -0.2080    8.0800 c3        1 LGK     -0.165000
     18 C18        -2.1180    0.0050    6.0880 c3        1 LGK      0.140000
     19 C19         1.3970    0.0010    2.3950 c2        1 LGK     -0.377000
     20 C20        -4.8560    0.2770    8.5410 c2        1 LGK     -0.276000
     21 C21        -5.0440    0.8750   10.6880 c2        1 LGK     -0.136000
     22 C22       -10.7570    0.8240    7.3270 c3        1 LGK     -0.197000
     23 C23        -4.1670   -0.0000    7.2710 c2        1 LGK      0.279000
     24 C24       -12.8360    1.4240    6.8720 c3        1 LGK      0.431000
     25 C25        -2.6570    0.9430    9.5970 DU        1 LGK     -0.300000
     26 C26        -2.0550    0.0120    8.5440 c3        1 LGK     -0.438000
     27 C27         1.8340    1.5720    4.7040 c3        1 LGK     -0.591000
     28 C28        -4.7060    1.3310   12.0850 c3        1 LGK      0.457000
     29 N29        -6.2450    0.5650   10.2520 n2        1 LGK     -0.065000
     30 N30       -11.0230    1.8570    8.0750 n2        1 LGK      0.076000
     31 N31        -6.1570    0.1880    8.9020 na        1 LGK      0.479000
     32 N32       -11.8710    0.5360    6.5630 ny        1 LGK     -0.338000
     33 N33       -12.3400    2.2580    7.8090 n7        1 LGK     -0.351000
     34 N34        -2.8140    0.0060    7.2990 n         1 LGK      0.192000
     35 O36       -13.9540    1.4690    6.3900 o         1 LGK     -0.282000
     36 O37         1.7420   -1.0940    4.6400 o         1 LGK     -0.819000
     37 O38         3.6520    0.0150    3.5240 o         1 LGK     -0.819000
     38 F39        -4.7950    2.7260   12.1540 f         1 LGK     -0.117667
     39 F40        -5.6050    0.7620   12.9920 f         1 LGK     -0.117667
     40 F41        -3.4040    0.9300   12.4040 f         1 LGK     -0.117667
     41 S42         2.2860    0.0020    3.9170 s6        1 LGK      2.329000
     42 H1         -0.6570    0.0310    0.8610 hc        1 LGK      0.049000
     43 H2          0.4100   -0.0000   -0.4770 DU        1 LGK      0.249000
     44 H3         -7.2510   -1.5460    5.7810 hc        1 LGK      0.213000
     45 H4         -1.5750   -0.3050    1.7430 ha        1 LGK      0.135000
     46 H5         -1.6080    0.7150    3.0370 DU        1 LGK      0.208000
     47 H6         -0.9490   -0.1220    4.1690 ha        1 LGK     -0.004000
     48 H7         -8.2660   -1.1150    6.1970 DU        1 LGK     -0.012000
     49 H8         -8.0540   -1.3050    6.7710 DU        1 LGK     -0.267000
     50 H9         -3.0040    0.5000    5.6410 DU        1 LGK      0.252000
     51 H10        -1.8110   -0.1190    5.6650 ha        1 LGK     -0.083000
     52 H11         1.5190   -0.3260    2.0630 ha        1 LGK      0.082000
     53 H12        -7.4900    0.4460    7.5590 DU        1 LGK      0.186000
     54 H25        -3.7270    1.0150    9.4490 ha        1 LGK      0.173000
     55 H25A       -2.2190    0.7270   10.5640 ha        1 LGK      0.173000
     56 H26        -2.2580    1.0020    8.9360 DU        1 LGK      0.264000
     57 H26A       -2.0320   -0.9950    8.9420 h1        1 LGK      0.097000
     58 H27         1.1850    1.2920    5.5250 h1        1 LGK      0.119667
     59 H27A        2.6000    2.3120    4.5020 h1        1 LGK      0.119667
     60 H27B        0.8860    1.9150    4.3070 h1        1 LGK      0.119667
     61 HN32      -10.8740    0.6010    6.5060 DU        1 LGK      0.319000
     62 HN33      -12.2160    1.4740    7.2000 DU        1 LGK      0.293000
     63 O35        -4.7830   -0.2240    6.2470 o         1 LGK     -0.442000
@<TRIPOS>BOND
     1    1    2 1   
     2    1    4 1   
     3    1   42 1   
     4    1   43 1   
     5    2   11 1   
     6    2   43 1   
     7    3    7 1   
     8    3    8 1   
     9    3   44 1   
    10    3   48 1   
    11    4   14 1   
    12    4   45 1   
    13    5    9 1   
    14    5   13 1   
    15    5   46 1   
    16    6   10 1   
    17    6   13 1   
    18    6   47 1   
    19    7   15 1   
    20    7   48 1   
    21    8   17 1   
    22    8   49 1   
    23    9   18 1   
    24    9   50 1   
    25   10   18 1   
    26   10   51 1   
    27   11   19 1   
    28   11   52 1   
    29   12   15 1   
    30   12   17 1   
    31   12   53 1   
    32   13   14 1   
    33   13   46 1   
    34   14   19 1   
    35   15   22 1   
    36   16   20 1   
    37   16   21 1   
    38   16   25 1   
    39   17   31 1   
    40   17   53 1   
    41   18   34 1   
    42   18   50 1   
    43   19   41 1   
    44   20   23 1   
    45   20   31 1   
    46   21   28 1   
    47   21   29 1   
    48   22   30 1   
    49   22   32 1   
    50   22   61 1   
    51   23   34 1   
    52   23   63 1   
    53   24   32 1   
    54   24   33 1   
    55   24   35 1   
    56   24   62 1   
    57   25   26 1   
    58   25   54 1   
    59   25   55 1   
    60   25   56 1   
    61   26   34 1   
    62   26   56 1   
    63   26   57 1   
    64   27   41 1   
    65   27   58 1   
    66   27   59 1   
    67   27   60 1   
    68   28   38 1   
    69   28   39 1   
    70   28   40 1   
    71   29   31 1   
    72   30   33 1   
    73   32   61 1   
    74   32   62 1   
    75   33   62 1   
    76   36   41 1   
    77   37   41 1   
    78   48   49 1   
@<TRIPOS>SUBSTRUCTURE
     1 LGK         1 TEMP              0 ****  ****    0 ROOT
