@<TRIPOS>MOLECULE
LGK
   63    66     1     0     0
SMALL
bcc


@<TRIPOS>ATOM
      1 C1         -0.5900    2.2700    0.3040 c2        1 LGK      0.012000
      2 C2          0.1730    1.2660   -0.2350 c2        1 LGK     -0.233000
      3 C3         -8.2750   -2.3570    9.7900 c2        1 LGK     -0.084000
      4 C4         -1.1460    2.1450    1.6150 c2        1 LGK     -0.203000
      5 C5         -2.0270    1.8130    4.4480 c2        1 LGK     -0.051000
      6 C6         -0.4010   -0.7180    7.5380 c1        1 LGK      0.202000
      7 C7         -9.2230   -1.2440    7.7580 c2        1 LGK     -0.121000
      8 C8         -8.2720   -1.3840    8.8770 c2        1 LGK     -0.079000
      9 C9         -2.6510    1.6390    5.7370 c2        1 LGK     -0.174000
     10 C10        -0.9590    0.1020    6.6750 c2        1 LGK     -0.479000
     11 C11         0.4760    0.1140    0.5100 c1        1 LGK     -0.134000
     12 C12        -7.7050    0.5040    7.6160 c2        1 LGK     -0.035000
     13 C13        -1.5690    0.8190    3.6640 c2        1 LGK     -0.172000
     14 C14        -0.9600    1.0170    2.3650 c2        1 LGK      0.050000
     15 C15        -8.8870   -0.1370    7.0170 c2        1 LGK     -0.063000
     16 C16        -4.2490    0.5450   10.4880 c2        1 LGK     -0.080000
     17 C17        -7.3370   -0.2330    8.7200 c2        1 LGK     -0.014000
     18 C18        -2.2120    0.8460    6.7520 c2        1 LGK      0.134000
     19 C19        -0.1600   -0.1020    1.8080 c3        1 LGK     -0.779000
     20 C20        -4.9560    0.3900    9.2750 c2        1 LGK     -0.124000
     21 C21        -5.2160    0.2670   11.5090 c2        1 LGK     -0.210000
     22 C22        -9.5720    0.3690    5.8310 c2        1 LGK     -0.064000
     23 C23        -4.3350    0.5970    7.9510 c2        1 LGK      0.387000
     24 C24       -11.2420   -0.3810    4.1480 c1        1 LGK      0.076000
     25 C25        -2.8330    0.9160   10.4960 c3        1 LGK     -0.109000
     26 C26        -2.1700    0.4950    9.1780 c3        1 LGK     -0.034000
     27 C27         2.5030   -0.1470    2.2470 c3        1 LGK     -0.949000
     28 C28        -5.0240    0.2800   13.0100 c3        1 LGK      0.516000
     29 N29        -6.4260   -0.0370   10.9370 n2        1 LGK     -0.005000
     30 N30        -8.8200    1.3540    5.0640 n2        1 LGK      0.031000
     31 N31        -6.2750    0.0340    9.6130 na        1 LGK      0.016000
     32 N32       -10.7920   -0.0570    5.4960 n7        1 LGK     -0.109000
     33 N33        -8.8990    1.5970    3.8920 n2        1 LGK     -0.082000
     34 N34        -2.9410    0.7450    7.9720 n         1 LGK     -0.288000
     35 O36       -11.7760    0.3390    3.3440 o         1 LGK     -0.248000
     36 O37         0.8800   -0.5050    4.1300 o         1 LGK     -0.940000
     37 O38         1.0620   -2.2350    2.5290 o         1 LGK     -0.940000
     38 F39        -5.7490    1.2480   13.6590 f         1 LGK     -0.157333
     39 F40        -5.3750   -0.8920   13.6320 f         1 LGK     -0.157333
     40 F41        -3.7270    0.4990   13.4060 f         1 LGK     -0.157333
     41 S42         1.0900   -0.8650    2.7890 s6        1 LGK      2.848000
     42 H1         -0.7900    3.2020   -0.2510 ha        1 LGK      0.137000
     43 H2          0.5930    1.3540   -1.2490 ha        1 LGK      0.155000
     44 H3         -7.5410   -2.4260   10.6050 ha        1 LGK      0.136500
     45 H4         -1.7550    2.9800    1.9950 ha        1 LGK      0.146000
     46 H5         -1.9850    2.8660    4.1100 ha        1 LGK      0.130000
     47 H6         -1.6250   -0.2300    4.0080 ha        1 LGK      0.149000
     48 H7        -10.0340   -1.9540    7.5960 ha        1 LGK      0.150000
     49 H8         -9.0330   -3.1540    9.7730 ha        1 LGK      0.136500
     50 H9         -3.5830    2.2260    5.8580 ha        1 LGK      0.164000
     51 H10        -0.3680    0.2440    5.7280 ha        1 LGK      0.256000
     52 H11        -0.9130   -0.9360    1.5760 h1        1 LGK      0.242000
     53 H12        -7.2140    1.3900    7.2070 ha        1 LGK      0.196000
     54 H25        -2.7370    2.0280   10.6400 hc        1 LGK      0.122500
     55 H25A       -2.2880    0.4180   11.3430 hc        1 LGK      0.122500
     56 H26        -1.1950    1.0600    9.0940 h1        1 LGK      0.108500
     57 H26A       -1.9350   -0.6130    9.2410 h1        1 LGK      0.108500
     58 H27         3.3960   -0.5420    2.7960 h1        1 LGK      0.171667
     59 H27A        2.6970   -0.3410    1.1550 h1        1 LGK      0.171667
     60 H27B        2.5260    0.9620    2.3740 h1        1 LGK      0.171667
     61 HN32      -11.2300   -0.6740    6.1660 hn        1 LGK      0.226000
     62 HN33       -9.5220    1.1010    3.2610 hn        1 LGK      0.137000
     63 O35        -5.0000    0.6880    6.9050 o         1 LGK     -0.334000
@<TRIPOS>BOND
     1    1    2 1   
     2    1    4 1   
     3    1   42 1   
     4    2   11 1   
     5    2   43 1   
     6    3    8 1   
     7    3   44 1   
     8    3   49 1   
     9    4   14 1   
    10    4   45 1   
    11    5    9 1   
    12    5   13 1   
    13    5   46 1   
    14    6   10 1   
    15    7    8 1   
    16    7   15 1   
    17    7   48 1   
    18    8   17 1   
    19    9   18 1   
    20    9   50 1   
    21   10   18 1   
    22   10   51 1   
    23   11   19 1   
    24   12   15 1   
    25   12   17 1   
    26   12   53 1   
    27   13   14 1   
    28   13   47 1   
    29   14   19 1   
    30   15   22 1   
    31   16   20 1   
    32   16   21 1   
    33   16   25 1   
    34   17   31 1   
    35   18   34 1   
    36   19   41 1   
    37   19   52 1   
    38   20   23 1   
    39   20   31 1   
    40   21   28 1   
    41   21   29 1   
    42   22   30 1   
    43   22   32 1   
    44   23   34 1   
    45   23   63 1   
    46   24   32 1   
    47   24   35 1   
    48   25   26 1   
    49   25   54 1   
    50   25   55 1   
    51   26   34 1   
    52   26   56 1   
    53   26   57 1   
    54   27   41 1   
    55   27   58 1   
    56   27   59 1   
    57   27   60 1   
    58   28   38 1   
    59   28   39 1   
    60   28   40 1   
    61   29   31 1   
    62   30   33 1   
    63   32   61 1   
    64   33   62 1   
    65   36   41 1   
    66   37   41 1   
@<TRIPOS>SUBSTRUCTURE
     1 LGK         1 TEMP              0 ****  ****    0 ROOT
