@<TRIPOS>MOLECULE
LGK
   63    68     1     0     0
SMALL
bcc


@<TRIPOS>ATOM
      1 C1          0.3240   -0.8340    0.1800 ca        1 LGK     -0.067000
      2 C2          1.6490   -0.4070    0.0710 ca        1 LGK     -0.152000
      3 C3         -8.3880   -1.3870    6.1370 ca        1 LGK     -0.124000
      4 C4         -0.3330   -0.7350    1.4010 ca        1 LGK     -0.150000
      5 C5         -1.6190    0.6250    3.8200 ca        1 LGK     -0.083000
      6 C6         -0.1070   -0.9180    4.8950 ca        1 LGK     -0.083000
      7 C7         -9.5350   -0.6030    6.2370 ca        1 LGK     -0.094000
      8 C8         -7.3060   -1.1830    6.9900 ca        1 LGK     -0.073000
      9 C9         -2.4080    0.6690    4.9620 ca        1 LGK     -0.150000
     10 C10        -0.8950   -0.8950    6.0420 ca        1 LGK     -0.150000
     11 C11         2.2940    0.1130    1.1860 ca        1 LGK     -0.036000
     12 C12        -8.5250    0.6380    8.0670 ca        1 LGK     -0.064000
     13 C13        -0.4560   -0.1550    3.7750 cp        1 LGK     -0.118000
     14 C14         0.3220   -0.2180    2.5310 cp        1 LGK      0.090000
     15 C15        -9.6040    0.4060    7.2050 ca        1 LGK     -0.113900
     16 C16        -4.2090    0.3480    9.7340 cc        1 LGK     -0.148600
     17 C17        -7.3710   -0.1620    7.9560 ca        1 LGK     -0.008200
     18 C18        -2.0550   -0.0930    6.0990 ca        1 LGK      0.069600
     19 C19         1.6540    0.2210    2.4330 ca        1 LGK     -0.364500
     20 C20        -4.9060    0.0990    8.5300 cd        1 LGK     -0.170900
     21 C21        -5.2340    0.4380   10.7340 cc        1 LGK      0.212600
     22 C22       -10.8020    1.2380    7.3180 cc        1 LGK      0.391500
     23 C23        -4.2320   -0.0200    7.2210 c         1 LGK      0.750100
     24 C24       -13.0000    1.8240    7.3220 c         1 LGK      0.733500
     25 C25        -2.7510    0.4830    9.7580 c3        1 LGK     -0.029100
     26 C26        -2.1340   -0.2200    8.5430 c3        1 LGK      0.096000
     27 C27         1.7110    2.2680    4.0420 c3        1 LGK     -0.362300
     28 C28        -5.0730    0.6890   12.2190 c3        1 LGK      0.635600
     29 N29        -6.4650    0.2550   10.1590 nd        1 LGK     -0.428800
     30 N30       -10.8400    2.5420    7.6620 nd        1 LGK     -0.484300
     31 N31        -6.2740    0.0540    8.8540 na        1 LGK      0.228300
     32 N32       -12.1090    0.7460    7.0360 n         1 LGK     -0.477400
     33 N33       -12.1270    2.9500    7.5840 n         1 LGK     -0.268900
     34 N34        -2.8330   -0.0320    7.2840 n         1 LGK     -0.379000
     35 O36       -14.2350    1.8240    7.2350 o         1 LGK     -0.597500
     36 O37         2.5720    0.0090    4.8070 o         1 LGK     -0.662300
     37 O38         3.8450    1.2220    3.2040 o         1 LGK     -0.662300
     38 F39        -5.6440    1.8580   12.6530 f         1 LGK     -0.227967
     39 F40        -5.6210   -0.2840   13.0160 f         1 LGK     -0.227967
     40 F41        -3.7650    0.7700   12.6320 f         1 LGK     -0.227967
     41 S42         2.5770    0.8600    3.6920 sy        1 LGK      1.392300
     42 H1         -0.1980   -1.2470   -0.6970 ha        1 LGK      0.140000
     43 H2          2.1790   -0.4820   -0.8890 ha        1 LGK      0.145000
     44 H3         -8.3280   -2.1760    5.3710 ha        1 LGK      0.151000
     45 H4         -1.3790   -1.0700    1.4940 ha        1 LGK      0.147000
     46 H5         -1.9140    1.2150    2.9370 ha        1 LGK      0.156500
     47 H6          0.8130   -1.5290    4.8840 ha        1 LGK      0.156500
     48 H7        -10.3730   -0.7710    5.5420 ha        1 LGK      0.150000
     49 H8         -6.3980   -1.7980    6.8790 ha        1 LGK      0.161000
     50 H9         -3.3230    1.2830    4.9670 ha        1 LGK      0.152000
     51 H10        -0.5930   -1.5150    6.9000 ha        1 LGK      0.152000
     52 H11         3.3440    0.4530    1.0930 ha        1 LGK      0.169000
     53 H12        -8.5880    1.4410    8.8200 ha        1 LGK      0.175000
     54 H25        -2.3190    0.0300   10.6910 hc        1 LGK      0.082700
     55 H25A       -2.4770    1.5740    9.7560 hc        1 LGK      0.082700
     56 H26        -1.0800    0.1630    8.4200 h1        1 LGK      0.061200
     57 H26A       -2.0810   -1.3270    8.7630 h1        1 LGK      0.061200
     58 H27         2.0270    2.7020    5.0250 h1        1 LGK      0.118367
     59 H27A        1.8690    3.0710    3.2810 h1        1 LGK      0.118367
     60 H27B        0.6060    2.1090    4.1140 h1        1 LGK      0.118367
     61 HN32      -12.3630   -0.2060    7.0820 hn        1 LGK      0.352500
     62 HN33      -12.4080    3.6730    8.2140 hn        1 LGK      0.350500
     63 O35        -4.8540   -0.0710    6.1460 o         1 LGK     -0.614500
@<TRIPOS>BOND
     1    1    2 ar  
     2    1    4 ar  
     3    1   42 1   
     4    2   11 ar  
     5    2   43 1   
     6    3    7 ar  
     7    3    8 ar  
     8    3   44 1   
     9    4   14 ar  
    10    4   45 1   
    11    5    9 ar  
    12    5   13 ar  
    13    5   46 1   
    14    6   10 ar  
    15    6   13 ar  
    16    6   47 1   
    17    7   15 ar  
    18    7   48 1   
    19    8   17 ar  
    20    8   49 1   
    21    9   18 ar  
    22    9   50 1   
    23   10   18 ar  
    24   10   51 1   
    25   11   19 ar  
    26   11   52 1   
    27   12   15 ar  
    28   12   17 ar  
    29   12   53 1   
    30   13   14 1   
    31   14   19 ar  
    32   15   22 1   
    33   16   20 2   
    34   16   21 1   
    35   16   25 1   
    36   17   31 1   
    37   18   34 1   
    38   19   41 1   
    39   20   23 1   
    40   20   31 1   
    41   21   28 1   
    42   21   29 2   
    43   22   30 2   
    44   22   32 1   
    45   23   34 1   
    46   23   63 2   
    47   24   32 1   
    48   24   33 1   
    49   24   35 2   
    50   25   26 1   
    51   25   54 1   
    52   25   55 1   
    53   26   34 1   
    54   26   56 1   
    55   26   57 1   
    56   27   41 1   
    57   27   58 1   
    58   27   59 1   
    59   27   60 1   
    60   28   38 1   
    61   28   39 1   
    62   28   40 1   
    63   29   31 1   
    64   30   33 1   
    65   32   61 1   
    66   33   62 1   
    67   36   41 2   
    68   37   41 2   
@<TRIPOS>SUBSTRUCTURE
     1 LGK         1 TEMP              0 ****  ****    0 ROOT
