@<TRIPOS>MOLECULE
LGL
   72    74     1     0     0
SMALL
bcc


@<TRIPOS>ATOM
      1 C1         -0.5570    0.0080   -0.6410 c2        1 LGL     -0.117000
      2 C2          0.7560   -0.1620   -0.6290 c1        1 LGL     -0.159000
      3 C3         -8.1270   -2.0690    6.9540 c3        1 LGL     -0.194000
      4 C4         -1.1830   -0.5480    0.6080 c3        1 LGL     -0.107000
      5 C5         -2.0600    0.4490    3.3200 c2        1 LGL     -0.093000
      6 C6         -0.3660   -1.1380    4.1300 c2        1 LGL     -0.431000
      7 C7         -9.4310   -1.4530    7.0770 c1        1 LGL     -0.128000
      8 C8          1.6450   -0.4090    0.3250 c2        1 LGL     -0.080000
      9 C9         -6.9960   -1.4300    7.6560 c2        1 LGL     -0.062000
     10 C10        -2.8240    0.5150    4.5440 c2        1 LGL     -0.178000
     11 C11         0.9090   -1.2740    4.4310 c1        1 LGL      0.162000
     12 C12        -8.4970    0.3450    8.4400 c2        1 LGL      0.048000
     13 C13        -0.9450   -0.2820    3.1020 c2        1 LGL     -0.003000
     14 C14        -0.2750   -0.2760    1.7990 c2        1 LGL     -0.029000
     15 C15        -9.5660   -0.2420    7.8070 c2        1 LGL     -0.134000
     16 C16        -4.0850    1.3010    9.5050 c2        1 LGL     -0.074000
     17 C17         1.0740   -0.1170    1.6560 c2        1 LGL     -0.069000
     18 C18        -7.1840   -0.2700    8.3520 c2        1 LGL     -0.017000
     19 C19        -2.2500    0.5390    5.7680 c2        1 LGL     -0.027000
     20 C20        -4.8120    0.6240    8.5020 c2        1 LGL     -0.131000
     21 C21        -5.0000    1.4110   10.6050 c2        1 LGL     -0.207000
     22 C22       -10.9330    0.3290    7.8590 c2        1 LGL     -0.097000
     23 C23        -4.2590    0.3240    7.1660 c2        1 LGL      0.384000
     24 C24       -13.0320    0.2430    6.5620 c1        1 LGL      0.087000
     25 C25        -2.7100    1.7480    9.2760 c3        1 LGL     -0.117000
     26 C26         3.1240    2.8020    4.8780 c2        1 LGL     -0.161000
     27 C27         4.1530    3.2270    5.6180 c2        1 LGL     -0.172000
     28 C28        -2.0630    0.9200    8.1590 c3        1 LGL     -0.023000
     29 C29         2.8930    1.3550    4.5800 c3        1 LGL     -0.077000
     30 C30         5.1830    2.3510    6.2080 c3        1 LGL     -0.190000
     31 C31         2.0320    0.1550    2.7340 c2        1 LGL     -0.040000
     32 C32        -4.7600    2.0400   11.9610 c3        1 LGL      0.516000
     33 N33        -6.2010    0.8380   10.2720 n2        1 LGL      0.008000
     34 N34       -11.0420    1.6380    8.4740 n2        1 LGL      0.003000
     35 N35        -6.0930    0.3740    9.0270 na        1 LGL     -0.018000
     36 N36       -11.9530   -0.3440    7.3160 n3        1 LGL     -0.082000
     37 N37       -11.9910    2.3730    8.4980 n2        1 LGL     -0.091000
     38 N38        -2.9040    0.6300    7.0060 n         1 LGL     -0.270000
     39 N39         1.8980    1.1380    3.5570 n2        1 LGL     -0.153000
     40 O41       -14.1500    0.5250    6.9070 o         1 LGL     -0.246000
     41 F42        -5.5430    3.1370   12.2150 f         1 LGL     -0.155000
     42 F43        -4.9850    1.1960   13.0190 f         1 LGL     -0.155000
     43 F44        -3.4740    2.4850   12.1470 f         1 LGL     -0.155000
     44 H1         -2.1710   -0.0360    0.7550 hc        1 LGL      0.117000
     45 H2         -1.1540    0.5710   -1.3610 ha        1 LGL      0.156000
     46 H3         -8.2190   -3.1480    7.2870 hc        1 LGL      0.184500
     47 H4         -1.3750   -1.6530    0.5590 hc        1 LGL      0.117000
     48 H5         -2.4730    1.0710    2.5030 ha        1 LGL      0.139000
     49 H6         -1.1090   -1.7270    4.7120 ha        1 LGL      0.196000
     50 H7         -7.8900   -2.1150    5.8430 hc        1 LGL      0.184500
     51 H8          2.6310   -0.8690    0.2310 ha        1 LGL      0.160000
     52 H9         -6.0070   -1.9070    7.5580 ha        1 LGL      0.160000
     53 H10        -3.9190    0.5690    4.4080 ha        1 LGL      0.163000
     54 H11        -1.1420    0.5300    5.8590 h4        1 LGL      0.155000
     55 H12        -8.6010    1.2800    9.0230 ha        1 LGL      0.186000
     56 H25        -2.7140    2.8390    8.9990 hc        1 LGL      0.123500
     57 H25A       -2.0890    1.6410   10.2060 hc        1 LGL      0.123500
     58 H26         0.3010    2.3350    6.5110 ha        1 LGL      0.000500
     59 H26A        0.8350    2.4220    6.1010 ha        1 LGL      0.000500
     60 H27         2.3930    3.5170    4.4660 ha        1 LGL      0.142000
     61 H27A        4.2760    4.3050    5.8150 ha        1 LGL      0.124000
     62 H28        -1.1480    1.4790    7.8060 h1        1 LGL      0.101500
     63 H28A       -1.7240   -0.0650    8.5970 h1        1 LGL      0.101500
     64 H29         2.5050    0.8550    5.5220 h1        1 LGL      0.095500
     65 H29A        3.8860    0.8670    4.3410 h1        1 LGL      0.095500
     66 H30         5.7450    2.8820    7.0140 hc        1 LGL      0.081000
     67 H30A        5.9160    2.0330    5.4220 hc        1 LGL      0.081000
     68 H31         4.7260    1.4290    6.6470 hc        1 LGL      0.081000
     69 H31A        2.9100   -0.5340    2.7230 h4        1 LGL      0.120000
     70 HN36      -11.6840   -1.2480    6.9240 hn        1 LGL      0.265000
     71 HN37      -12.8750    2.1520    8.0490 hn        1 LGL      0.132000
     72 O40        -4.9540   -0.1550    6.2490 o         1 LGL     -0.355000
@<TRIPOS>BOND
     1    1    2 1   
     2    1    4 1   
     3    1   45 1   
     4    2    8 1   
     5    3    7 1   
     6    3    9 1   
     7    3   46 1   
     8    3   50 1   
     9    4   14 1   
    10    4   44 1   
    11    4   47 1   
    12    5   10 1   
    13    5   13 1   
    14    5   48 1   
    15    6   11 1   
    16    6   13 1   
    17    6   49 1   
    18    7   15 1   
    19    8   17 1   
    20    8   51 1   
    21    9   18 1   
    22    9   52 1   
    23   10   19 1   
    24   10   53 1   
    25   12   15 1   
    26   12   18 1   
    27   12   55 1   
    28   13   14 1   
    29   14   17 1   
    30   15   22 1   
    31   16   20 1   
    32   16   21 1   
    33   16   25 1   
    34   17   31 1   
    35   18   35 1   
    36   19   38 1   
    37   19   54 1   
    38   20   23 1   
    39   20   35 1   
    40   21   32 1   
    41   21   33 1   
    42   22   34 1   
    43   22   36 1   
    44   23   38 1   
    45   23   72 1   
    46   24   36 1   
    47   24   40 1   
    48   25   28 1   
    49   25   56 1   
    50   25   57 1   
    51   26   27 1   
    52   26   29 1   
    53   26   60 1   
    54   27   30 1   
    55   27   61 1   
    56   28   38 1   
    57   28   62 1   
    58   28   63 1   
    59   29   39 1   
    60   29   64 1   
    61   29   65 1   
    62   30   66 1   
    63   30   67 1   
    64   30   68 1   
    65   31   39 1   
    66   31   69 1   
    67   32   41 1   
    68   32   42 1   
    69   32   43 1   
    70   33   35 1   
    71   34   37 1   
    72   36   70 1   
    73   37   71 1   
    74   58   59 1   
@<TRIPOS>SUBSTRUCTURE
     1 LGL         1 TEMP              0 ****  ****    0 ROOT
