@<TRIPOS>MOLECULE
LGL
   72    78     1     0     0
SMALL
bcc


@<TRIPOS>ATOM
      1 C1         -6.8750   -3.9870   -1.1960 ca        1 LGL     -0.130000
      2 C2         -8.0590   -3.3830   -0.7720 ca        1 LGL     -0.128000
      3 C3          3.7680   -2.7740   -1.4550 ca        1 LGL     -0.124000
      4 C4         -5.6920   -3.2540   -1.2200 ca        1 LGL     -0.119000
      5 C5         -3.3990   -1.4230    0.0520 ca        1 LGL     -0.098000
      6 C6         -4.1760   -0.2410   -1.9020 ca        1 LGL     -0.098000
      7 C7          4.8230   -2.9960   -0.5730 ca        1 LGL     -0.094000
      8 C8         -8.0510   -2.0510   -0.3670 ca        1 LGL     -0.131000
      9 C9          3.1730   -1.5190   -1.5580 ca        1 LGL     -0.073000
     10 C10        -2.1850   -0.7470   -0.0110 ca        1 LGL     -0.142500
     11 C11        -2.9640    0.4350   -1.9850 ca        1 LGL     -0.142500
     12 C12         4.7040   -0.6780    0.1490 ca        1 LGL     -0.064000
     13 C13        -4.4090   -1.1750   -0.8850 cp        1 LGL     -0.037000
     14 C14        -5.6770   -1.9090   -0.8220 cp        1 LGL     -0.022000
     15 C15         5.2930   -1.9450    0.2240 ca        1 LGL     -0.114900
     16 C16         1.5850    2.5580   -0.9920 cc        1 LGL     -0.152600
     17 C17        -6.8660   -1.3050   -0.3830 ca        1 LGL     -0.064300
     18 C18         3.6380   -0.4660   -0.7480 ca        1 LGL     -0.007200
     19 C19        -1.9490    0.1970   -1.0320 ca        1 LGL      0.050600
     20 C20         1.6790    1.1500   -0.9200 cd        1 LGL     -0.166900
     21 C21         2.9440    3.0150   -0.9620 cc        1 LGL      0.212600
     22 C22         6.3990   -2.1650    1.1550 cc        1 LGL      0.393500
     23 C23         0.4950    0.2660   -0.8780 c         1 LGL      0.748100
     24 C24         8.3610   -2.9640    1.9880 c         1 LGL      0.733500
     25 C25         0.2870    3.2330   -1.0520 c3        1 LGL     -0.029100
     26 C26        -7.2140    2.0670    2.9850 c3        1 LGL     -0.097400
     27 C27        -7.7950    0.7270    3.4150 c3        1 LGL     -0.097400
     28 C28        -0.7830    2.2760   -1.5940 c3        1 LGL      0.099000
     29 C29        -6.3400    1.7750    1.7540 c3        1 LGL      0.154800
     30 C30        -7.2190   -0.3160    2.4440 c3        1 LGL      0.154800
     31 C31        -6.9040    0.1350    0.0460 c3        1 LGL      0.207100
     32 C32         3.4540    4.4390   -1.0190 c3        1 LGL      0.635600
     33 N33         3.7960    1.9440   -0.8750 nd        1 LGL     -0.431800
     34 N34         6.5620   -1.5780    2.3600 nd        1 LGL     -0.484300
     35 N35         3.0490    0.8380   -0.8490 na        1 LGL      0.227300
     36 N36         7.4560   -3.0830    0.8900 n         1 LGL     -0.478400
     37 N37         7.6730   -2.1020    2.9250 n         1 LGL     -0.268900
     38 N38        -0.7240    0.9160   -1.0890 n         1 LGL     -0.377000
     39 N39        -6.4310    0.3530    1.4070 n3        1 LGL     -0.710600
     40 O41         9.4290   -3.5670    2.1520 o         1 LGL     -0.599500
     41 F42         4.1230    4.8400    0.1100 f         1 LGL     -0.228967
     42 F43         4.3290    4.6840   -2.0470 f         1 LGL     -0.228967
     43 F44         2.4660    5.3790   -1.1830 f         1 LGL     -0.228967
     44 H1         -6.8750   -5.0400   -1.5120 ha        1 LGL      0.133000
     45 H2         -8.9960   -3.9580   -0.7560 ha        1 LGL      0.132000
     46 H3          3.3900   -3.6010   -2.0770 ha        1 LGL      0.151000
     47 H4         -4.7570   -3.7280   -1.5560 ha        1 LGL      0.138000
     48 H5         -3.5710   -2.1530    0.8580 ha        1 LGL      0.141000
     49 H6         -4.9580   -0.0430   -2.6510 ha        1 LGL      0.141000
     50 H7          5.2680   -4.0000   -0.4960 ha        1 LGL      0.149000
     51 H8         -8.9870   -1.5780   -0.0320 ha        1 LGL      0.131000
     52 H9          2.3240   -1.3700   -2.2440 ha        1 LGL      0.162000
     53 H10        -1.4010   -0.9710    0.7300 ha        1 LGL      0.144500
     54 H11        -2.8080    1.1510   -2.8060 ha        1 LGL      0.144500
     55 H12         5.0760    0.1400    0.7890 ha        1 LGL      0.174000
     56 H25         0.0040    3.5900   -0.0240 hc        1 LGL      0.080700
     57 H25A        0.3310    4.1350   -1.7200 hc        1 LGL      0.080700
     58 H26        -8.0240    2.7920    2.7280 hc        1 LGL      0.046200
     59 H26A       -6.5980    2.5190    3.7990 hc        1 LGL      0.046200
     60 H27        -7.5080    0.4810    4.4660 hc        1 LGL      0.046200
     61 H27A       -8.9110    0.7380    3.3620 hc        1 LGL      0.046200
     62 H28        -1.7940    2.7020   -1.3350 h1        1 LGL      0.057200
     63 H28A       -0.6940    2.2470   -2.7200 h1        1 LGL      0.057200
     64 H29        -6.6370    2.4430    0.9000 h1        1 LGL      0.046700
     65 H29A       -5.2600    1.9800    1.9890 h1        1 LGL      0.046700
     66 H30        -6.5160   -1.0030    2.9900 h1        1 LGL      0.046700
     67 H30A       -8.0420   -0.9450    2.0080 h1        1 LGL      0.046700
     68 H31        -6.2240    0.7250   -0.6360 h1        1 LGL      0.038700
     69 H31A       -7.9560    0.5250   -0.1040 h1        1 LGL      0.038700
     70 HN36        7.7190   -3.3780   -0.0140 hn        1 LGL      0.352500
     71 HN37        8.1900   -1.5030    3.5360 hn        1 LGL      0.350500
     72 O40         0.5740   -0.9520   -0.6380 o         1 LGL     -0.615500
@<TRIPOS>BOND
     1    1    2 ar  
     2    1    4 ar  
     3    1   44 1   
     4    2    8 ar  
     5    2   45 1   
     6    3    7 ar  
     7    3    9 ar  
     8    3   46 1   
     9    4   14 ar  
    10    4   47 1   
    11    5   10 ar  
    12    5   13 ar  
    13    5   48 1   
    14    6   11 ar  
    15    6   13 ar  
    16    6   49 1   
    17    7   15 ar  
    18    7   50 1   
    19    8   17 ar  
    20    8   51 1   
    21    9   18 ar  
    22    9   52 1   
    23   10   19 ar  
    24   10   53 1   
    25   11   19 ar  
    26   11   54 1   
    27   12   15 ar  
    28   12   18 ar  
    29   12   55 1   
    30   13   14 1   
    31   14   17 ar  
    32   15   22 1   
    33   16   20 2   
    34   16   21 1   
    35   16   25 1   
    36   17   31 1   
    37   18   35 1   
    38   19   38 1   
    39   20   23 1   
    40   20   35 1   
    41   21   32 1   
    42   21   33 2   
    43   22   34 2   
    44   22   36 1   
    45   23   38 1   
    46   23   72 2   
    47   24   36 1   
    48   24   37 1   
    49   24   40 2   
    50   25   28 1   
    51   25   56 1   
    52   25   57 1   
    53   26   27 1   
    54   26   29 1   
    55   26   58 1   
    56   26   59 1   
    57   27   30 1   
    58   27   60 1   
    59   27   61 1   
    60   28   38 1   
    61   28   62 1   
    62   28   63 1   
    63   29   39 1   
    64   29   64 1   
    65   29   65 1   
    66   30   39 1   
    67   30   66 1   
    68   30   67 1   
    69   31   39 1   
    70   31   68 1   
    71   31   69 1   
    72   32   41 1   
    73   32   42 1   
    74   32   43 1   
    75   33   35 1   
    76   34   37 1   
    77   36   70 1   
    78   37   71 1   
@<TRIPOS>SUBSTRUCTURE
     1 LGL         1 TEMP              0 ****  ****    0 ROOT
