@<TRIPOS>MOLECULE
LGL
   72    62     1     0     0
SMALL
bcc


@<TRIPOS>ATOM
      1 C1          2.7630    0.7710   -5.3110 c1        1 LGL     -0.114500
      2 C2          4.1260    0.9860   -5.4570 c1        1 LGL     -0.114500
      3 C3         -7.0750    1.0160    1.5430 c1        1 LGL     -0.114500
      4 C4          2.2050    0.6880   -4.0430 c1        1 LGL     -0.114500
      5 C5          1.4450    1.9100   -1.4390 c1        1 LGL     -0.114500
      6 C6          1.8470   -0.4520   -1.2290 c1        1 LGL     -0.096500
      7 C7         -7.8130   -0.1350    1.3070 c1        1 LGL     -0.071000
      8 C8          4.9320    1.1180   -4.3350 c1        1 LGL     -0.114500
      9 C9         -5.8090    0.9260    2.0970 c1        1 LGL     -0.114500
     10 C10         0.5760    1.8580   -0.3550 c1        1 LGL     -0.114500
     11 C11         0.9780   -0.5040   -0.1460 c1        1 LGL     -0.160000
     12 C12        -6.0150   -1.4640    2.1820 c1        1 LGL     -0.096500
     13 C13         2.0800    0.7550   -1.8750 c1        1 LGL     -0.005000
     14 C14         3.0090    0.8200   -2.9210 c1        1 LGL     -0.045000
     15 C15        -7.2830   -1.3740    1.6270 c1        1 LGL     -0.029000
     16 C16        -2.1210    0.5530    3.7700 c1        1 LGL     -0.082000
     17 C17         4.3740    1.0350   -3.0670 c1        1 LGL     -0.060000
     18 C18        -5.2780   -0.3150    2.4170 c1        1 LGL     -0.005000
     19 C19         0.3430    0.6510    0.2910 c1        1 LGL      0.059000
     20 C20        -2.6640    0.0120    2.5670 c1        1 LGL     -0.165000
     21 C21        -3.1340    0.6460    4.6830 c1        1 LGL     -0.165000
     22 C22        -7.7490   -2.7470    1.1870 c2        1 LGL      0.029000
     23 C23        -1.6850   -0.1430    1.3320 c1        1 LGL      0.388000
     24 C24        -9.3750   -4.2210    0.6560 c1        1 LGL      0.331000
     25 C25        -0.5830    0.7890    3.8150 c2        1 LGL     -0.115000
     26 C26         8.9840    0.8090   -2.2470 c3        1 LGL     -0.175500
     27 C27         8.5410   -0.5090   -2.8810 c3        1 LGL     -0.175500
     28 C28         0.1630    0.3020    2.7020 c3        1 LGL     -0.019000
     29 C29         7.6670    1.6460   -2.0500 c3        1 LGL     -0.081000
     30 C30         7.2160   -0.5190   -2.7660 c3        1 LGL     -0.081000
     31 C31         5.5020    1.1170   -2.0540 c3        1 LGL     -0.041000
     32 C32        -3.2060    0.5440    6.1950 c2        1 LGL      0.516000
     33 N33        -4.2930    0.1790    4.0860 n2        1 LGL     -0.007500
     34 N34        -7.4850   -3.1690   -0.0050 n1        1 LGL     -0.074000
     35 N35        -3.9820   -0.2110    2.7700 n2        1 LGL     -0.007500
     36 N36        -8.8670   -3.2890    1.7300 n2        1 LGL     -0.335000
     37 N37        -8.3660   -4.0640   -0.4800 n2        1 LGL     -0.248000
     38 N38        -0.4450    0.3830    1.4590 n3        1 LGL     -0.279000
     39 N39         6.7560    1.0130   -2.7280 n3        1 LGL     -0.245000
     40 O40        -2.1310   -0.3850    0.2290 o         1 LGL     -0.344000
     41 O41       -10.1190   -5.1670    0.8240 o         1 LGL     -0.328000
     42 F42        -4.4370    0.8740    6.6060 f         1 LGL     -0.157000
     43 F43        -2.9310   -0.7120    6.5710 f         1 LGL     -0.157000
     44 F44        -2.3140    1.3790    6.7420 f         1 LGL     -0.157000
     45 H1          2.1960    0.6780   -6.1010 ha        1 LGL      0.146875
     46 H2          4.5190    1.0440   -6.3500 ha        1 LGL      0.146875
     47 H3         -7.4490    1.8900    1.3170 ha        1 LGL      0.146875
     48 H4          1.2460    0.5370   -3.9400 ha        1 LGL      0.146875
     49 H5          1.6090    2.7580   -1.8930 ha        1 LGL      0.146875
     50 H6          2.2930   -1.2640   -1.5370 ha        1 LGL      0.147000
     51 H7         -8.7050   -0.0710    0.9160 ha        1 LGL      0.162000
     52 H8          5.8900    1.2690   -4.4380 ha        1 LGL      0.146875
     53 H9         -5.2900    1.7360    2.2630 ha        1 LGL      0.146875
     54 H10         0.1300    2.6690   -0.0480 ha        1 LGL      0.146875
     55 H11         0.8140   -1.3520    0.3090 ha        1 LGL      0.135000
     56 H12        -5.6420   -2.3370    2.4070 ha        1 LGL      0.147000
     57 H25        -0.4260    1.7530    3.8870 ha        1 LGL      0.121000
     58 H25A       -0.2340    0.3610    4.6250 ha        1 LGL      0.121000
     59 H26         9.4110    0.6420   -1.3830 hc        1 LGL      0.085500
     60 H26A        9.5980    1.2820   -2.8440 hc        1 LGL      0.085500
     61 H27         8.9310   -1.2670   -2.3980 hc        1 LGL      0.085500
     62 H27A        8.8010   -0.5360   -3.8260 hc        1 LGL      0.085500
     63 H28         0.3790   -0.6400    2.8710 h1        1 LGL      0.097500
     64 H28A        1.0050    0.8050    2.6590 h1        1 LGL      0.097500
     65 H29         7.7840    2.5530   -2.4020 h1        1 LGL      0.085250
     66 H29A        7.4230    1.6770   -1.1020 h1        1 LGL      0.085250
     67 H30         6.9540   -0.9690   -1.9380 h1        1 LGL      0.085250
     68 H30A        6.8150   -0.9710   -3.5370 h1        1 LGL      0.085250
     69 H31         5.4550    1.9740   -1.5810 h1        1 LGL      0.084000
     70 H31A        5.4160    0.3840   -1.4100 h1        1 LGL      0.084000
     71 HN36       -9.0590   -3.3420    2.6200 hn        1 LGL      0.278000
     72 HN37       -8.2120   -4.6660   -1.1470 hn        1 LGL      0.264000
@<TRIPOS>BOND
     1    1    4 1   
     2    1   45 1   
     3    2    8 1   
     4    2   46 1   
     5    3    9 1   
     6    3   47 1   
     7    4   48 1   
     8    5   10 1   
     9    5   49 1   
    10    6   13 1   
    11    6   50 1   
    12    7   15 1   
    13    7   51 1   
    14    8   52 1   
    15    9   53 1   
    16   10   54 1   
    17   11   19 1   
    18   11   55 1   
    19   12   18 1   
    20   12   56 1   
    21   14   17 1   
    22   15   22 1   
    23   16   20 1   
    24   16   21 1   
    25   17   31 1   
    26   19   38 1   
    27   20   35 1   
    28   21   33 1   
    29   22   34 1   
    30   22   36 1   
    31   23   38 1   
    32   23   40 1   
    33   24   37 1   
    34   24   41 1   
    35   25   28 1   
    36   25   57 1   
    37   25   58 1   
    38   26   27 1   
    39   26   29 1   
    40   26   59 1   
    41   26   60 1   
    42   27   30 1   
    43   27   61 1   
    44   27   62 1   
    45   28   38 1   
    46   28   63 1   
    47   28   64 1   
    48   29   39 1   
    49   29   65 1   
    50   29   66 1   
    51   30   39 1   
    52   30   67 1   
    53   30   68 1   
    54   31   39 1   
    55   31   69 1   
    56   31   70 1   
    57   32   42 1   
    58   32   43 1   
    59   32   44 1   
    60   33   35 1   
    61   36   71 1   
    62   37   72 1   
@<TRIPOS>SUBSTRUCTURE
     1 LGL         1 TEMP              0 ****  ****    0 ROOT
