@<TRIPOS>MOLECULE
LGL
   72    76     1     0     0
SMALL
bcc


@<TRIPOS>ATOM
      1 C1         -0.1720    1.3310   -0.1440 c2        1 LGL     -0.121000
      2 C2          1.0970    1.0660    0.1250 c1        1 LGL     -0.164000
      3 C3         -8.4260   -1.9930    6.5830 c3        1 LGL     -0.195000
      4 C4         -1.0850    0.6130    0.8110 c3        1 LGL     -0.102000
      5 C5         -1.4820   -0.5750    4.1230 c2        1 LGL     -0.160000
      6 C6          0.6890   -0.8500    6.7510 c1        1 LGL      0.134000
      7 C7         -9.4830   -1.0140    6.4290 c1        1 LGL     -0.123000
      8 C8          1.7370    0.5930    1.1870 c2        1 LGL     -0.092000
      9 C9         -7.3220   -1.6710    7.5100 c2        1 LGL     -0.066000
     10 C10        -2.5190   -0.6980    5.1770 c3        1 LGL     -0.130000
     11 C11        -0.5680   -0.8030    6.6870 c1        1 LGL     -0.657000
     12 C12        -8.3590    0.5040    7.9770 c2        1 LGL      0.039000
     13 C13        -1.4330    0.4520    3.2680 c2        1 LGL     -0.098000
     14 C14        -0.4550    0.5840    2.1960 c2        1 LGL     -0.074000
     15 C15        -9.3980    0.2240    7.1230 c2        1 LGL     -0.125000
     16 C16        -4.1830    0.2230    9.9620 c2        1 LGL     -0.051000
     17 C17         0.8900    0.6740    2.3960 c2        1 LGL     -0.056000
     18 C18        -7.2990   -0.4720    8.1620 c2        1 LGL     -0.018000
     19 C19        -1.9130   -0.7300    6.5580 c2        1 LGL      0.363000
     20 C20        -4.8500   -0.2420    8.8050 c2        1 LGL     -0.155000
     21 C21        -5.2360    0.5790   10.8680 c2        1 LGL     -0.211000
     22 C22       -10.5100    1.1730    6.8860 c2        1 LGL     -0.108000
     23 C23        -4.1540   -0.6830    7.5880 c2        1 LGL      0.394000
     24 C24       -12.2210    1.6190    5.1690 c1        1 LGL      0.093000
     25 C25        -2.7210    0.2740   10.0250 c3        1 LGL     -0.124000
     26 C26         3.6420    2.5900    5.7440 c3        1 LGL     -0.178500
     27 C27         3.9730    3.1200    4.3550 c3        1 LGL     -0.178500
     28 C28        -2.1180   -0.6940    9.0020 c3        1 LGL     -0.042000
     29 C29         2.2080    2.0410    5.6540 c3        1 LGL     -0.091000
     30 C30         2.7310    2.8380    3.4910 c3        1 LGL     -0.091000
     31 C31         1.5630    0.6940    3.7320 c3        1 LGL     -0.045000
     32 C32        -5.1140    1.1300   12.2750 c3        1 LGL      0.517000
     33 N33        -6.4560    0.3450   10.2830 n2        1 LGL      0.022000
     34 N34       -10.3380    2.4930    7.4580 n2        1 LGL      0.004000
     35 N35        -6.2310   -0.1390    9.0630 na        1 LGL     -0.014000
     36 N36       -11.5570    0.7940    6.1420 n7        1 LGL     -0.077000
     37 N37       -11.0140    3.4720    7.2900 n2        1 LGL     -0.091000
     38 N38        -2.7360   -0.6740    7.6760 n         1 LGL     -0.266000
     39 N39         1.7660    2.0410    4.2540 n3        1 LGL     -0.230000
     40 O41       -13.2440    2.2470    5.2430 o         1 LGL     -0.236000
     41 F42        -5.6140    2.3980   12.4200 f         1 LGL     -0.152333
     42 F43        -5.7630    0.3840   13.2250 f         1 LGL     -0.152333
     43 F44        -3.8200    1.2110   12.7250 f         1 LGL     -0.152333
     44 H1         -2.0520    1.1810    0.8520 hc        1 LGL      0.109000
     45 H2         -0.5690    2.0570   -0.8560 ha        1 LGL      0.152000
     46 H3         -8.9060   -2.9710    6.8930 hc        1 LGL      0.186000
     47 H4         -1.3160   -0.4400    0.5010 hc        1 LGL      0.109000
     48 H5         -0.7480   -1.3970    4.0870 ha        1 LGL      0.145000
     49 H6         -2.1680    1.2770    3.3180 ha        1 LGL      0.130000
     50 H7         -7.9990   -2.1830    5.5480 hc        1 LGL      0.186000
     51 H8          2.7040    0.0840    1.2230 ha        1 LGL      0.157000
     52 H9         -6.5210   -2.4210    7.6200 ha        1 LGL      0.158000
     53 H10        -3.0950   -1.6560    5.0210 hc        1 LGL      0.131500
     54 H11        -3.2640    0.1440    5.1110 hc        1 LGL      0.131500
     55 H12        -8.3000    1.4550    8.5380 ha        1 LGL      0.186000
     56 H25        -2.3730    1.3260    9.8250 hc        1 LGL      0.131500
     57 H25A       -2.3500   -0.0110   11.0470 hc        1 LGL      0.131500
     58 H26         4.3520    1.7810    6.0440 hc        1 LGL      0.084000
     59 H26A        3.7020    3.3980    6.5120 hc        1 LGL      0.084000
     60 H27         4.8700    2.6060    3.9330 hc        1 LGL      0.084000
     61 H27A        4.1880    4.2150    4.3800 hc        1 LGL      0.084000
     62 H28        -1.0190   -0.4520    8.9020 h1        1 LGL      0.128000
     63 H28A       -2.2090   -1.7470    9.3990 h1        1 LGL      0.128000
     64 H29         1.5050    2.7230    6.2070 h1        1 LGL      0.093000
     65 H29A        2.1390    1.0210    6.1250 h1        1 LGL      0.093000
     66 H30         3.0210    2.3340    2.5300 h1        1 LGL      0.093000
     67 H30A        2.2180    3.8050    3.2320 h1        1 LGL      0.093000
     68 H31         2.5350    0.1220    3.6420 h1        1 LGL      0.089000
     69 H31A        0.9190    0.1410    4.4810 h1        1 LGL      0.089000
     70 HN36      -11.5000   -0.1740    5.8200 hn        1 LGL      0.266000
     71 HN37      -11.8240    3.4870    6.6770 hn        1 LGL      0.131000
     72 O40        -4.7490   -1.0360    6.5580 o         1 LGL     -0.324000
@<TRIPOS>BOND
     1    1    2 1   
     2    1    4 1   
     3    1   45 1   
     4    2    8 1   
     5    3    7 1   
     6    3    9 1   
     7    3   46 1   
     8    3   50 1   
     9    4   14 1   
    10    4   44 1   
    11    4   47 1   
    12    5   10 1   
    13    5   13 1   
    14    5   48 1   
    15    6   11 1   
    16    7   15 1   
    17    8   17 1   
    18    8   51 1   
    19    9   18 1   
    20    9   52 1   
    21   10   19 1   
    22   10   53 1   
    23   10   54 1   
    24   11   19 1   
    25   12   15 1   
    26   12   18 1   
    27   12   55 1   
    28   13   14 1   
    29   13   49 1   
    30   14   17 1   
    31   15   22 1   
    32   16   20 1   
    33   16   21 1   
    34   16   25 1   
    35   17   31 1   
    36   18   35 1   
    37   19   38 1   
    38   20   23 1   
    39   20   35 1   
    40   21   32 1   
    41   21   33 1   
    42   22   34 1   
    43   22   36 1   
    44   23   38 1   
    45   23   72 1   
    46   24   36 1   
    47   24   40 1   
    48   25   28 1   
    49   25   56 1   
    50   25   57 1   
    51   26   27 1   
    52   26   29 1   
    53   26   58 1   
    54   26   59 1   
    55   27   30 1   
    56   27   60 1   
    57   27   61 1   
    58   28   38 1   
    59   28   62 1   
    60   28   63 1   
    61   29   39 1   
    62   29   64 1   
    63   29   65 1   
    64   30   39 1   
    65   30   66 1   
    66   30   67 1   
    67   31   39 1   
    68   31   68 1   
    69   31   69 1   
    70   32   41 1   
    71   32   42 1   
    72   32   43 1   
    73   33   35 1   
    74   34   37 1   
    75   36   70 1   
    76   37   71 1   
@<TRIPOS>SUBSTRUCTURE
     1 LGL         1 TEMP              0 ****  ****    0 ROOT
