@<TRIPOS>MOLECULE
LGM
   72    75     1     0     0
SMALL
bcc


@<TRIPOS>ATOM
      1 C1          3.0810   -1.8250    0.6560 c2        1 LGM     -0.111000
      2 C2          3.4350   -0.5510    0.6070 c1        1 LGM     -0.122000
      3 C3         -7.4280    1.0710    5.1590 c3        1 LGM     -0.192000
      4 C4          3.0490   -2.3060    2.0790 c3        1 LGM     -0.104000
      5 C5         -0.6060    3.1990    9.5180 c1        1 LGM     -0.204000
      6 C6          1.4260   -1.0230    5.2230 c1        1 LGM     -0.546000
      7 C7         -8.7480    1.5040    5.5710 c1        1 LGM     -0.137000
      8 C8          3.4180    0.4550    1.4710 c2        1 LGM     -0.130000
      9 C9         -6.5820    0.3980    6.1630 c2        1 LGM     -0.071000
     10 C10        -1.0280    2.3840    8.7510 c1        1 LGM     -0.184000
     11 C11         0.8540   -0.4080    6.1730 c1        1 LGM      0.117000
     12 C12        -8.3290    0.7270    7.8480 c2        1 LGM      0.062000
     13 C13         1.9760   -1.7100    4.2270 c2        1 LGM      0.224000
     14 C14         2.5060   -1.2040    2.9870 c2        1 LGM     -0.164000
     15 C15        -9.1470    1.3300    6.9210 c2        1 LGM     -0.151000
     16 C16        -4.4520   -0.9870    9.7390 c2        1 LGM     -0.135000
     17 C17         2.5820    0.1240    2.6440 c2        1 LGM      0.060000
     18 C18        -7.0140    0.2540    7.4520 c2        1 LGM     -0.005000
     19 C19        -1.5140    1.4150    7.7930 c3        1 LGM      0.057000
     20 C20        -4.8190   -0.1820    8.6420 c2        1 LGM     -0.114000
     21 C21        -5.6700   -1.6420   10.1520 c2        1 LGM     -0.098000
     22 C22       -10.5050    1.8210    7.2570 c2        1 LGM     -0.077000
     23 C23        -3.8610    0.6960    7.9420 c2        1 LGM      0.386000
     24 C24       -12.1640    3.4650    6.4350 c1        1 LGM      0.077000
     25 C25        -3.0820   -1.0130   10.2520 c3        1 LGM     -0.105000
     26 C26        -1.0850    3.1070    3.7730 c3        1 LGM     -0.170000
     27 C27        -0.9780    2.9150    2.2650 c3        1 LGM     -0.170000
     28 C28        -2.0890   -0.5400    9.1810 c3        1 LGM     -0.015000
     29 C29         0.0180    2.2370    4.3920 c3        1 LGM     -0.081000
     30 C30         0.1010    1.8430    2.0450 c3        1 LGM     -0.081000
     31 C31        -5.8100   -2.5880   11.2740 c3        1 LGM     -0.147000
     32 C32         2.0420    1.2720    3.4390 c3        1 LGM     -0.049000
     33 N33        -6.6960   -1.2410    9.3390 n2        1 LGM     -0.057000
     34 N34       -10.8710    1.7450    8.6590 n2        1 LGM      0.002000
     35 N35        -6.1970   -0.3710    8.4450 na        1 LGM     -0.044000
     36 N36       -11.2830    2.3250    6.2970 n3        1 LGM     -0.090000
     37 N37       -11.8150    2.2440    9.2110 n2        1 LGM     -0.092000
     38 N38        -2.5340    0.5220    8.3050 n         1 LGM     -0.316000
     39 N39         0.5960    1.3870    3.3460 n3        1 LGM     -0.242000
     40 O41       -13.3540    3.4740    6.6330 o         1 LGM     -0.262000
     41 H1          2.3600   -3.1920    2.1160 hc        1 LGM      0.115500
     42 H2          2.7290   -2.4590   -0.1600 ha        1 LGM      0.163000
     43 H3         -7.5480    0.4020    4.2530 hc        1 LGM      0.180000
     44 H4          4.0510   -2.6300    2.4640 hc        1 LGM      0.115500
     45 H5         -0.2290    3.9250   10.1920 ha        1 LGM      0.221000
     46 H6          2.0600   -2.8140    4.3490 ha        1 LGM      0.121000
     47 H7         -6.8840    1.9950    4.7830 hc        1 LGM      0.180000
     48 H8          4.0050    1.3770    1.4510 ha        1 LGM      0.169000
     49 H9         -5.5820    0.0640    5.8370 ha        1 LGM      0.163000
     50 H10        -1.9380    1.9720    6.9010 h1        1 LGM      0.144500
     51 H11        -0.6360    0.7830    7.4310 h1        1 LGM      0.144500
     52 H12        -8.6410    0.5830    8.8990 ha        1 LGM      0.184000
     53 H25        -3.0100   -0.3510   11.1590 hc        1 LGM      0.104000
     54 H25A       -2.7910   -2.0500   10.5680 hc        1 LGM      0.104000
     55 H26        -2.0870    2.7840    4.1490 hc        1 LGM      0.089750
     56 H26A       -0.9430    4.1780    4.0570 hc        1 LGM      0.089750
     57 H27        -1.9530    2.5810    1.8330 hc        1 LGM      0.089750
     58 H27A       -0.6900    3.8680    1.7590 hc        1 LGM      0.089750
     59 H28        -1.1500   -0.1930    9.7020 h1        1 LGM      0.094500
     60 H28A       -1.8160   -1.4260    8.5340 h1        1 LGM      0.094500
     61 H29        -0.3960    1.5460    5.1810 h1        1 LGM      0.085250
     62 H29A        0.7880    2.8930    4.8860 h1        1 LGM      0.085250
     63 H30         0.9230    2.2480    1.3920 h1        1 LGM      0.085250
     64 H30A       -0.3370    0.9470    1.5270 h1        1 LGM      0.085250
     65 H31        -4.8140   -3.0400   11.5070 hc        1 LGM      0.093333
     66 H31A       -6.1820   -2.0510   12.1830 hc        1 LGM      0.093333
     67 H31B       -6.5310   -3.4080   11.0310 hc        1 LGM      0.093333
     68 H32         2.3040    1.1090    4.5290 h1        1 LGM      0.094500
     69 H32A        2.5670    2.2170    3.1020 h1        1 LGM      0.094500
     70 HN36      -10.8570    2.2990    5.3680 hn        1 LGM      0.265000
     71 HN37      -12.4950    2.8240    8.7290 hn        1 LGM      0.133000
     72 O40        -4.2050    1.5340    7.0820 o         1 LGM     -0.386000
@<TRIPOS>BOND
     1    1    2 1   
     2    1    4 1   
     3    1   42 1   
     4    2    8 1   
     5    3    7 1   
     6    3    9 1   
     7    3   43 1   
     8    3   47 1   
     9    4   14 1   
    10    4   41 1   
    11    4   44 1   
    12    5   10 1   
    13    5   45 1   
    14    6   11 1   
    15    6   13 1   
    16    7   15 1   
    17    8   17 1   
    18    8   48 1   
    19    9   18 1   
    20    9   49 1   
    21   10   19 1   
    22   12   15 1   
    23   12   18 1   
    24   12   52 1   
    25   13   14 1   
    26   13   46 1   
    27   14   17 1   
    28   15   22 1   
    29   16   20 1   
    30   16   21 1   
    31   16   25 1   
    32   17   32 1   
    33   18   35 1   
    34   19   38 1   
    35   19   50 1   
    36   19   51 1   
    37   20   23 1   
    38   20   35 1   
    39   21   31 1   
    40   21   33 1   
    41   22   34 1   
    42   22   36 1   
    43   23   38 1   
    44   23   72 1   
    45   24   36 1   
    46   24   40 1   
    47   25   28 1   
    48   25   53 1   
    49   25   54 1   
    50   26   27 1   
    51   26   29 1   
    52   26   55 1   
    53   26   56 1   
    54   27   30 1   
    55   27   57 1   
    56   27   58 1   
    57   28   38 1   
    58   28   59 1   
    59   28   60 1   
    60   29   39 1   
    61   29   61 1   
    62   29   62 1   
    63   30   39 1   
    64   30   63 1   
    65   30   64 1   
    66   31   65 1   
    67   31   66 1   
    68   31   67 1   
    69   32   39 1   
    70   32   68 1   
    71   32   69 1   
    72   33   35 1   
    73   34   37 1   
    74   36   70 1   
    75   37   71 1   
@<TRIPOS>SUBSTRUCTURE
     1 LGM         1 TEMP              0 ****  ****    0 ROOT
