@<TRIPOS>MOLECULE
LGM
   72    75     1     0     0
SMALL
bcc


@<TRIPOS>ATOM
      1 C1          0.7650    0.4820   -0.1580 c2        1 LGM     -0.119000
      2 C2          2.0390    0.3520    0.1810 c1        1 LGM     -0.162000
      3 C3         -8.1420   -1.6370    6.3940 c3        1 LGM     -0.192000
      4 C4         -0.1210   -0.3160    0.7570 c3        1 LGM     -0.108000
      5 C5         -1.4780    0.4360    3.5100 c2        1 LGM     -0.085000
      6 C6         -0.4720   -1.7610    3.9540 c2        1 LGM     -0.433000
      7 C7         -9.3770   -0.9010    6.5660 c1        1 LGM     -0.134000
      8 C8          2.6700   -0.0440    1.2800 c2        1 LGM     -0.090000
      9 C9         -6.9890   -1.2470    7.2290 c2        1 LGM     -0.071000
     10 C10        -2.3930    0.4030    4.6330 c2        1 LGM     -0.209000
     11 C11         0.3830   -2.7530    3.8410 c1        1 LGM      0.189000
     12 C12        -8.3230    0.5530    8.2200 c2        1 LGM      0.057000
     13 C13        -0.5490   -0.5040    3.2320 c2        1 LGM     -0.017000
     14 C14         0.4370   -0.2730    2.1690 c2        1 LGM     -0.039000
     15 C15        -9.4170    0.1930    7.4700 c2        1 LGM     -0.146000
     16 C16        -3.9020    0.8040    9.5910 c2        1 LGM     -0.133000
     17 C17         1.7540   -0.0390    2.4370 c2        1 LGM     -0.115000
     18 C18        -7.0800   -0.1870    8.0870 c2        1 LGM     -0.007000
     19 C19        -1.9120    0.3100    5.8940 c2        1 LGM     -0.031000
     20 C20        -4.6340    0.3610    8.4700 c2        1 LGM     -0.123000
     21 C21        -4.8670    0.9030   10.6580 c2        1 LGM     -0.096000
     22 C22       -10.7160    0.9000    7.5660 c2        1 LGM     -0.084000
     23 C23        -4.0310    0.1700    7.1360 c2        1 LGM      0.381000
     24 C24       -12.7480    1.2710    6.2060 c1        1 LGM      0.080000
     25 C25        -2.4690    1.0830    9.5040 c3        1 LGM     -0.105000
     26 C26         1.3060    2.8210    6.0550 c3        1 LGM     -0.230000
     27 C27         2.2070    3.5820    5.0690 c3        1 LGM     -0.185000
     28 C28        -1.8520    0.3340    8.3160 c3        1 LGM     -0.026000
     29 C29         1.3040    1.3770    5.6010 c1        1 LGM     -0.099000
     30 C30         2.6960    2.5090    4.0760 c3        1 LGM     -0.101000
     31 C31        -4.5930    1.3350   12.0410 c3        1 LGM     -0.148000
     32 C32         2.3380    0.0280    3.8150 c3        1 LGM      0.019000
     33 N33        -6.0990    0.5380   10.1860 n2        1 LGM     -0.051000
     34 N34       -10.7230    2.0910    8.3960 n2        1 LGM      0.002000
     35 N35        -5.9670    0.2190    8.8890 na        1 LGM     -0.040000
     36 N36       -11.7680    0.4490    6.8780 n7        1 LGM     -0.087000
     37 N37       -11.5820    2.9240    8.4970 n2        1 LGM     -0.093000
     38 N38        -2.6400    0.3170    7.0900 n         1 LGM     -0.267000
     39 N39         2.0750    1.2530    4.5280 n3        1 LGM     -0.177000
     40 O41       -13.8460    1.6010    6.5810 o         1 LGM     -0.257000
     41 H1         -1.1410    0.1560    0.7490 hc        1 LGM      0.120500
     42 H2          0.3360    1.1530   -0.9050 ha        1 LGM      0.155000
     43 H3         -8.3680   -2.7360    6.5500 hc        1 LGM      0.181500
     44 H4         -0.2360   -1.3890    0.4510 hc        1 LGM      0.120500
     45 H5         -1.5630    1.3330    2.8690 ha        1 LGM      0.135000
     46 H6         -1.2790   -1.9010    4.7160 ha        1 LGM      0.206000
     47 H7         -7.8530   -1.5400    5.3000 hc        1 LGM      0.181500
     48 H8          3.6790   -0.4530    1.3700 ha        1 LGM      0.159000
     49 H9         -6.0540   -1.8170    7.0960 ha        1 LGM      0.160000
     50 H10        -3.4650    0.4980    4.3930 ha        1 LGM      0.167000
     51 H11        -0.8030    0.2640    6.0480 h4        1 LGM      0.188000
     52 H12        -8.3540    1.3970    8.9350 ha        1 LGM      0.184000
     53 H25        -2.3060    2.1890    9.3900 hc        1 LGM      0.108000
     54 H25A       -1.9370    0.7570   10.4380 hc        1 LGM      0.108000
     55 H26         0.2600    3.2130    6.0460 hc        1 LGM      0.113500
     56 H26A        1.6940    2.8810    7.1010 hc        1 LGM      0.113500
     57 H27         1.6400    4.3800    4.5350 hc        1 LGM      0.093000
     58 H27A        3.0710    4.0550    5.5910 hc        1 LGM      0.093000
     59 H28        -0.8490    0.8000    8.0940 h1        1 LGM      0.102500
     60 H28A       -1.6710   -0.7380    8.6250 h1        1 LGM      0.102500
     61 H29         0.8320   -0.8250    7.7540 ha        1 LGM      0.000000
     62 H29A        1.0620   -0.4350    7.2480 ha        1 LGM      0.000000
     63 H30         3.8130    2.4100    4.0930 h1        1 LGM      0.097000
     64 H30A        2.3740    2.7390    3.0260 h1        1 LGM      0.097000
     65 H31        -3.5060    1.1980   12.2660 hc        1 LGM      0.095000
     66 H31A       -4.8500    2.4180   12.1620 hc        1 LGM      0.095000
     67 H31B       -5.1910    0.7470   12.7800 hc        1 LGM      0.095000
     68 H32         1.9220   -0.8250    4.4330 h1        1 LGM      0.113500
     69 H32A        3.4590   -0.0960    3.7420 h1        1 LGM      0.113500
     70 HN36      -11.5750   -0.4010    6.3450 hn        1 LGM      0.266000
     71 HN37      -12.4480    2.8930    7.9670 hn        1 LGM      0.132000
     72 O40        -4.7110   -0.0850    6.1240 o         1 LGM     -0.362000
@<TRIPOS>BOND
     1    1    2 1   
     2    1    4 1   
     3    1   42 1   
     4    2    8 1   
     5    3    7 1   
     6    3    9 1   
     7    3   43 1   
     8    3   47 1   
     9    4   14 1   
    10    4   41 1   
    11    4   44 1   
    12    5   10 1   
    13    5   13 1   
    14    5   45 1   
    15    6   11 1   
    16    6   13 1   
    17    6   46 1   
    18    7   15 1   
    19    8   17 1   
    20    8   48 1   
    21    9   18 1   
    22    9   49 1   
    23   10   19 1   
    24   10   50 1   
    25   12   15 1   
    26   12   18 1   
    27   12   52 1   
    28   13   14 1   
    29   14   17 1   
    30   15   22 1   
    31   16   20 1   
    32   16   21 1   
    33   16   25 1   
    34   17   32 1   
    35   18   35 1   
    36   19   38 1   
    37   19   51 1   
    38   20   23 1   
    39   20   35 1   
    40   21   31 1   
    41   21   33 1   
    42   22   34 1   
    43   22   36 1   
    44   23   38 1   
    45   23   72 1   
    46   24   36 1   
    47   24   40 1   
    48   25   28 1   
    49   25   53 1   
    50   25   54 1   
    51   26   27 1   
    52   26   29 1   
    53   26   55 1   
    54   26   56 1   
    55   27   30 1   
    56   27   57 1   
    57   27   58 1   
    58   28   38 1   
    59   28   59 1   
    60   28   60 1   
    61   29   39 1   
    62   30   39 1   
    63   30   63 1   
    64   30   64 1   
    65   31   65 1   
    66   31   66 1   
    67   31   67 1   
    68   32   39 1   
    69   32   68 1   
    70   32   69 1   
    71   33   35 1   
    72   34   37 1   
    73   36   70 1   
    74   37   71 1   
    75   61   62 1   
@<TRIPOS>SUBSTRUCTURE
     1 LGM         1 TEMP              0 ****  ****    0 ROOT
