@<TRIPOS>MOLECULE
LGM
   72    62     1     0     0
SMALL
bcc


@<TRIPOS>ATOM
      1 C1          6.5230    1.2200    2.2990 c1        1 LGM     -0.119625
      2 C2          7.2000    0.3130    1.4850 c1        1 LGM     -0.119625
      3 C3         -5.9000   -2.9900    2.4640 c1        1 LGM     -0.119625
      4 C4          5.2940    1.7380    1.8930 c1        1 LGM     -0.119625
      5 C5          2.8060    2.8220    0.5680 c1        1 LGM     -0.119625
      6 C6          2.7340    0.8570    1.9630 c1        1 LGM     -0.099000
      7 C7         -7.0570   -2.2520    2.2240 c1        1 LGM     -0.082000
      8 C8          6.6490   -0.0760    0.2660 c1        1 LGM     -0.119625
      9 C9         -4.6510   -2.3840    2.3460 c1        1 LGM     -0.119625
     10 C10         1.4790    3.0960    0.8870 c1        1 LGM     -0.119625
     11 C11         1.4070    1.1320    2.2820 c1        1 LGM     -0.125000
     12 C12        -5.7150   -0.3040    1.7500 c1        1 LGM     -0.099000
     13 C13         3.4340    1.7020    1.1050 c1        1 LGM      0.007000
     14 C14         4.7430    1.3500    0.6760 c1        1 LGM     -0.042000
     15 C15        -6.9650   -0.9100    1.8670 c1        1 LGM     -0.032000
     16 C16        -2.3560    0.3320   -0.4170 c1        1 LGM     -0.138000
     17 C17         5.4220    0.4400   -0.1390 c1        1 LGM     -0.062000
     18 C18        -4.5590   -1.0410    1.9890 c1        1 LGM      0.007000
     19 C19         0.7800    2.2510    1.7440 c1        1 LGM      0.061000
     20 C20        -2.3670    0.2020    1.0060 c1        1 LGM     -0.106500
     21 C21        -3.4410   -0.3440   -0.9090 c1        1 LGM     -0.106500
     22 C22        -8.2310   -0.0880    1.6140 c2        1 LGM      0.026000
     23 C23        -1.0990    0.7330    1.7940 c1        1 LGM      0.387000
     24 C24       -10.3760    0.1100    0.9220 c1        1 LGM      0.326000
     25 C25        -1.0350    0.8330   -1.0800 c2        1 LGM     -0.105000
     26 C26         6.0980   -0.8480   -4.3580 c3        1 LGM     -0.175500
     27 C27         4.5630   -0.8900   -4.2980 c3        1 LGM     -0.175500
     28 C28         0.0920    0.9710   -0.2160 c3        1 LGM     -0.014000
     29 C29         6.5870   -1.1020   -2.8750 c3        1 LGM     -0.082000
     30 C30         4.2760   -1.3810   -3.0870 c3        1 LGM     -0.082000
     31 C31        -3.5600   -1.2800   -2.1110 c2        1 LGM     -0.147000
     32 C32         5.3670    0.3890   -1.6890 c3        1 LGM     -0.042000
     33 N33        -4.1300   -0.8920    0.1670 n2        1 LGM     -0.047500
     34 N34        -8.8940    0.4040    2.6120 n1        1 LGM     -0.075000
     35 N35        -3.4490   -0.5430    1.3490 n2        1 LGM     -0.047500
     36 N36        -8.9860   -0.3250    0.5100 n2        1 LGM     -0.324000
     37 N37       -10.2030    0.5870    2.3660 n2        1 LGM     -0.248000
     38 N38        -0.1620    1.4050    1.0770 n3        1 LGM     -0.291000
     39 N39         5.5120   -0.9920   -2.1360 n3        1 LGM     -0.243000
     40 O40        -1.1420    0.8560    3.0040 o         1 LGM     -0.345000
     41 O41       -11.2830    0.4200    0.1690 o         1 LGM     -0.329000
     42 H1          6.9120    1.4940    3.1570 ha        1 LGM      0.141750
     43 H2          8.0660   -0.0520    1.7710 ha        1 LGM      0.141750
     44 H3         -5.9650   -3.9370    2.7150 ha        1 LGM      0.141750
     45 H4          4.8190    2.3750    2.4640 ha        1 LGM      0.141750
     46 H5          3.2970    3.4170   -0.0350 ha        1 LGM      0.141750
     47 H6          3.1760    0.0680    2.3420 ha        1 LGM      0.150500
     48 H7         -7.9360   -2.6790    2.3070 ha        1 LGM      0.156000
     49 H8          7.1250   -0.7140   -0.3050 ha        1 LGM      0.141750
     50 H9         -3.8360   -2.9040    2.5150 ha        1 LGM      0.141750
     51 H10         1.0350    3.8870    0.5070 ha        1 LGM      0.141750
     52 H11         0.9150    0.5360    2.8850 ha        1 LGM      0.154000
     53 H12        -5.6510    0.6390    1.4990 ha        1 LGM      0.150500
     54 H25        -1.2140    1.7100   -1.4900 ha        1 LGM      0.105500
     55 H25A       -0.7950    0.2040   -1.7940 ha        1 LGM      0.105500
     56 H26         6.4030    0.0340   -4.6700 hc        1 LGM      0.085250
     57 H26A        6.4350   -1.5550   -4.9540 hc        1 LGM      0.085250
     58 H27         4.2100   -1.4820   -5.0000 hc        1 LGM      0.085250
     59 H27A        4.1920    0.0160   -4.3960 hc        1 LGM      0.085250
     60 H28         0.7160    1.6080   -0.6320 h1        1 LGM      0.092500
     61 H28A        0.5380    0.0980   -0.1600 h1        1 LGM      0.092500
     62 H29         6.9690   -2.0080   -2.7920 h1        1 LGM      0.086500
     63 H29A        7.2490   -0.4280   -2.6150 h1        1 LGM      0.086500
     64 H30         3.4500   -0.9780   -2.7480 h1        1 LGM      0.086500
     65 H30A        4.1800   -2.3610   -3.1340 h1        1 LGM      0.086500
     66 H31        -2.9910   -2.0710   -1.9690 ha        1 LGM      0.093333
     67 H31A       -3.2700   -0.8090   -2.9220 ha        1 LGM      0.093333
     68 H31B       -4.4950   -1.5630   -2.2130 ha        1 LGM      0.093333
     69 H32         4.5040    0.7440   -1.9980 h1        1 LGM      0.082000
     70 H32A        6.0980    0.9330   -2.0620 h1        1 LGM      0.082000
     71 HN36       -8.6770   -0.3930   -0.3480 hn        1 LGM      0.272000
     72 HN37      -10.8650    0.6510    2.9940 hn        1 LGM      0.261000
@<TRIPOS>BOND
     1    1    4 1   
     2    1   42 1   
     3    2    8 1   
     4    2   43 1   
     5    3    9 1   
     6    3   44 1   
     7    4   45 1   
     8    5   10 1   
     9    5   46 1   
    10    6   13 1   
    11    6   47 1   
    12    7   15 1   
    13    7   48 1   
    14    8   49 1   
    15    9   50 1   
    16   10   51 1   
    17   11   19 1   
    18   11   52 1   
    19   12   18 1   
    20   12   53 1   
    21   14   17 1   
    22   15   22 1   
    23   16   20 1   
    24   16   21 1   
    25   17   32 1   
    26   19   38 1   
    27   20   35 1   
    28   21   33 1   
    29   22   34 1   
    30   22   36 1   
    31   23   38 1   
    32   23   40 1   
    33   24   37 1   
    34   24   41 1   
    35   25   28 1   
    36   25   54 1   
    37   25   55 1   
    38   26   27 1   
    39   26   29 1   
    40   26   56 1   
    41   26   57 1   
    42   27   30 1   
    43   27   58 1   
    44   27   59 1   
    45   28   38 1   
    46   28   60 1   
    47   28   61 1   
    48   29   39 1   
    49   29   62 1   
    50   29   63 1   
    51   30   39 1   
    52   30   64 1   
    53   30   65 1   
    54   31   66 1   
    55   31   67 1   
    56   31   68 1   
    57   32   39 1   
    58   32   69 1   
    59   32   70 1   
    60   33   35 1   
    61   36   71 1   
    62   37   72 1   
@<TRIPOS>SUBSTRUCTURE
     1 LGM         1 TEMP              0 ****  ****    0 ROOT
