@<TRIPOS>MOLECULE
LGM
   72    75     1     0     0
SMALL
bcc


@<TRIPOS>ATOM
      1 C1          0.7260    0.4150   -0.1940 c2        1 LGM     -0.119000
      2 C2          2.0020    0.3030    0.1440 c1        1 LGM     -0.162000
      3 C3         -8.1480   -1.6190    6.4310 c3        1 LGM     -0.192000
      4 C4         -0.1520   -0.3690    0.7420 c3        1 LGM     -0.108000
      5 C5         -1.5070    0.4340    3.4810 c2        1 LGM     -0.085000
      6 C6         -0.4820   -1.7440    3.9720 c2        1 LGM     -0.433000
      7 C7         -9.3880   -0.8870    6.5900 c1        1 LGM     -0.134000
      8 C8          2.6390   -0.0630    1.2510 c2        1 LGM     -0.090000
      9 C9         -6.9950   -1.2030    7.2530 c2        1 LGM     -0.071000
     10 C10        -2.4190    0.4190    4.6070 c2        1 LGM     -0.209000
     11 C11         0.3820   -2.7320    3.8790 c1        1 LGM      0.189000
     12 C12        -8.3380    0.6100    8.2090 c2        1 LGM      0.057000
     13 C13        -0.5710   -0.5050    3.2220 c2        1 LGM     -0.017000
     14 C14         0.4100   -0.2900    2.1510 c2        1 LGM     -0.039000
     15 C15        -9.4320    0.2260    7.4700 c2        1 LGM     -0.146000
     16 C16        -3.9160    0.9200    9.5590 c2        1 LGM     -0.133000
     17 C17         1.7260   -0.0400    2.4100 c2        1 LGM     -0.115000
     18 C18        -7.0910   -0.1250    8.0880 c2        1 LGM     -0.007000
     19 C19        -1.9330    0.3580    5.8680 c2        1 LGM     -0.031000
     20 C20        -4.6470    0.4480    8.4510 c2        1 LGM     -0.123000
     21 C21        -4.8780    1.0370   10.6280 c2        1 LGM     -0.096000
     22 C22       -10.7360    0.9270    7.5540 c2        1 LGM     -0.084000
     23 C23        -4.0470    0.2310    7.1200 c2        1 LGM      0.381000
     24 C24       -12.7740    1.2550    6.1920 c1        1 LGM      0.080000
     25 C25        -2.4840    1.2060    9.4630 c3        1 LGM     -0.105000
     26 C26         1.2640    2.8980    5.9630 c3        1 LGM     -0.230000
     27 C27         2.1560    3.6430    4.9580 c3        1 LGM     -0.185000
     28 C28        -1.8660    0.4350    8.2900 c3        1 LGM     -0.026000
     29 C29         1.2730    1.4440    5.5420 c1        1 LGM     -0.099000
     30 C30         2.6510    2.5530    3.9870 c3        1 LGM     -0.101000
     31 C31        -4.6020    1.5010   12.0000 c3        1 LGM     -0.148000
     32 C32         2.3140    0.0640    3.7840 c3        1 LGM      0.019000
     33 N33        -6.1090    0.6520   10.1680 n2        1 LGM     -0.051000
     34 N34       -10.7470    2.1360    8.3570 n2        1 LGM      0.002000
     35 N35        -5.9780    0.3060    8.8770 na        1 LGM     -0.040000
     36 N36       -11.7870    0.4540    6.8790 n3        1 LGM     -0.087000
     37 N37       -11.6110    2.9650    8.4420 n2        1 LGM     -0.093000
     38 N38        -2.6570    0.3870    7.0670 n         1 LGM     -0.267000
     39 N39         2.0420    1.3020    4.4700 n3        1 LGM     -0.177000
     40 O41       -13.8720    1.5860    6.5640 o         1 LGM     -0.257000
     41 H1         -1.1750    0.0940    0.7260 hc        1 LGM      0.120500
     42 H2          0.2890    1.0640   -0.9540 ha        1 LGM      0.155000
     43 H3         -8.3670   -2.7150    6.6120 hc        1 LGM      0.181500
     44 H4         -0.2590   -1.4500    0.4600 hc        1 LGM      0.120500
     45 H5         -1.6000    1.3150    2.8200 ha        1 LGM      0.135000
     46 H6         -1.2860   -1.8740    4.7380 ha        1 LGM      0.206000
     47 H7         -7.8630   -1.5440    5.3340 hc        1 LGM      0.181500
     48 H8          3.6510   -0.4620    1.3460 ha        1 LGM      0.159000
     49 H9         -6.0580   -1.7700    7.1300 ha        1 LGM      0.160000
     50 H10        -3.4910    0.5010    4.3680 ha        1 LGM      0.167000
     51 H11        -0.8230    0.3240    6.0200 h4        1 LGM      0.188000
     52 H12        -8.3720    1.4690    8.9050 ha        1 LGM      0.184000
     53 H25        -2.3290    2.3110    9.3230 hc        1 LGM      0.108000
     54 H25A       -1.9470    0.9050   10.4010 hc        1 LGM      0.108000
     55 H26         0.2150    3.2810    5.9490 hc        1 LGM      0.113500
     56 H26A        1.6550    2.9850    7.0060 hc        1 LGM      0.113500
     57 H27         1.5810    4.4250    4.4080 hc        1 LGM      0.093000
     58 H27A        3.0180    4.1360    5.4660 hc        1 LGM      0.093000
     59 H28        -0.8660    0.9040    8.0540 h1        1 LGM      0.102500
     60 H28A       -1.6770   -0.6280    8.6210 h1        1 LGM      0.102500
     61 H29         0.8260   -0.7150    7.7430 ha        1 LGM      0.000000
     62 H29A        1.0520   -0.3350    7.2280 ha        1 LGM      0.000000
     63 H30         3.7690    2.4640    4.0030 h1        1 LGM      0.097000
     64 H30A        2.3240    2.7560    2.9330 h1        1 LGM      0.097000
     65 H31        -3.5130    1.3760   12.2240 hc        1 LGM      0.095000
     66 H31A       -4.8670    2.5840   12.0970 hc        1 LGM      0.095000
     67 H31B       -5.1940    0.9250   12.7540 hc        1 LGM      0.095000
     68 H32         1.9060   -0.7780    4.4220 h1        1 LGM      0.113500
     69 H32A        3.4350   -0.0530    3.7110 h1        1 LGM      0.113500
     70 HN36      -11.5890   -0.4070    6.3650 hn        1 LGM      0.266000
     71 HN37      -12.4790    2.9180    7.9160 hn        1 LGM      0.132000
     72 O40        -4.7290   -0.0510    6.1160 o         1 LGM     -0.362000
@<TRIPOS>BOND
     1    1    2 1   
     2    1    4 1   
     3    1   42 1   
     4    2    8 1   
     5    3    7 1   
     6    3    9 1   
     7    3   43 1   
     8    3   47 1   
     9    4   14 1   
    10    4   41 1   
    11    4   44 1   
    12    5   10 1   
    13    5   13 1   
    14    5   45 1   
    15    6   11 1   
    16    6   13 1   
    17    6   46 1   
    18    7   15 1   
    19    8   17 1   
    20    8   48 1   
    21    9   18 1   
    22    9   49 1   
    23   10   19 1   
    24   10   50 1   
    25   12   15 1   
    26   12   18 1   
    27   12   52 1   
    28   13   14 1   
    29   14   17 1   
    30   15   22 1   
    31   16   20 1   
    32   16   21 1   
    33   16   25 1   
    34   17   32 1   
    35   18   35 1   
    36   19   38 1   
    37   19   51 1   
    38   20   23 1   
    39   20   35 1   
    40   21   31 1   
    41   21   33 1   
    42   22   34 1   
    43   22   36 1   
    44   23   38 1   
    45   23   72 1   
    46   24   36 1   
    47   24   40 1   
    48   25   28 1   
    49   25   53 1   
    50   25   54 1   
    51   26   27 1   
    52   26   29 1   
    53   26   55 1   
    54   26   56 1   
    55   27   30 1   
    56   27   57 1   
    57   27   58 1   
    58   28   38 1   
    59   28   59 1   
    60   28   60 1   
    61   29   39 1   
    62   30   39 1   
    63   30   63 1   
    64   30   64 1   
    65   31   65 1   
    66   31   66 1   
    67   31   67 1   
    68   32   39 1   
    69   32   68 1   
    70   32   69 1   
    71   33   35 1   
    72   34   37 1   
    73   36   70 1   
    74   37   71 1   
    75   61   62 1   
@<TRIPOS>SUBSTRUCTURE
     1 LGM         1 TEMP              0 ****  ****    0 ROOT
