@<TRIPOS>MOLECULE
LGM
   72    78     1     0     0
SMALL
bcc


@<TRIPOS>ATOM
      1 C1         -6.3040   -3.9300   -1.2710 ca        1 LGM     -0.130000
      2 C2         -7.5320   -3.4210   -0.8470 ca        1 LGM     -0.129000
      3 C3          4.2270   -1.9560   -1.4250 ca        1 LGM     -0.124000
      4 C4         -5.1770   -3.1130   -1.2720 ca        1 LGM     -0.120000
      5 C5         -3.0270   -1.1500    0.0450 ca        1 LGM     -0.098000
      6 C6         -3.8800    0.0150   -1.8870 ca        1 LGM     -0.098000
      7 C7          5.3160   -2.1020   -0.5690 ca        1 LGM     -0.102000
      8 C8         -7.6220   -2.1000   -0.4170 ca        1 LGM     -0.131000
      9 C9          3.5360   -0.7490   -1.5030 ca        1 LGM     -0.081000
     10 C10        -1.8630   -0.3890    0.0010 ca        1 LGM     -0.144500
     11 C11        -2.7180    0.7760   -1.9500 ca        1 LGM     -0.144500
     12 C12         5.0330    0.1940    0.1760 ca        1 LGM     -0.070000
     13 C13        -4.0480   -0.9550   -0.8910 cp        1 LGM     -0.041000
     14 C14        -5.2610   -1.7780   -0.8490 cp        1 LGM     -0.020000
     15 C15         5.7210   -1.0230    0.2270 ca        1 LGM     -0.117900
     16 C16         1.6660    3.1920   -0.8940 cc        1 LGM     -0.211600
     17 C17        -6.4940   -1.2700   -0.4100 ca        1 LGM     -0.065300
     18 C18         3.9330    0.3330   -0.6950 ca        1 LGM      0.008800
     19 C19        -1.6900    0.5910   -0.9990 ca        1 LGM      0.055600
     20 C20         1.8610    1.7960   -0.8470 cd        1 LGM     -0.159900
     21 C21         2.9880    3.7630   -0.8420 cc        1 LGM      0.322600
     22 C22         6.8640   -1.1630    1.1280 cc        1 LGM      0.401500
     23 C23         0.7430    0.8310   -0.8220 c         1 LGM      0.748100
     24 C24         8.9050   -1.8130    1.8990 c         1 LGM      0.733500
     25 C25         0.3260    3.7770   -0.9620 c3        1 LGM     -0.017100
     26 C26        -7.1190    2.0040    3.0170 c3        1 LGM     -0.097400
     27 C27        -7.6150    0.6200    3.4130 c3        1 LGM     -0.097400
     28 C28        -0.6710    2.7540   -1.5220 c3        1 LGM      0.100000
     29 C29        -6.2120    1.7960    1.7930 c3        1 LGM      0.154800
     30 C30        -6.9570   -0.3630    2.4310 c3        1 LGM      0.154800
     31 C31         3.3170    5.2000   -0.8540 c3        1 LGM     -0.122400
     32 C32        -6.6390    0.1540    0.0460 c3        1 LGM      0.208100
     33 N33         3.9100    2.7530   -0.7690 nd        1 LGM     -0.487800
     34 N34         7.0170   -0.5700    2.3310 nd        1 LGM     -0.490300
     35 N35         3.2470    1.5850   -0.7710 na        1 LGM      0.205300
     36 N36         7.9810   -1.9940    0.8280 n         1 LGM     -0.481400
     37 N37         8.1810   -1.0110    2.8620 n         1 LGM     -0.267900
     38 N38        -0.5200    1.3950   -1.0350 n         1 LGM     -0.379000
     39 N39        -6.2020    0.3780    1.4180 n3        1 LGM     -0.710600
     40 O41        10.0210   -2.3340    2.0270 o         1 LGM     -0.603500
     41 H1         -6.2260   -4.9750   -1.6060 ha        1 LGM      0.133000
     42 H2         -8.4250   -4.0620   -0.8490 ha        1 LGM      0.131000
     43 H3          3.9000   -2.8050   -2.0460 ha        1 LGM      0.147000
     44 H4         -4.2080   -3.5130   -1.6080 ha        1 LGM      0.139000
     45 H5         -3.1480   -1.9080    0.8340 ha        1 LGM      0.139500
     46 H6         -4.6710    0.1730   -2.6360 ha        1 LGM      0.139500
     47 H7          5.8380   -3.0690   -0.5110 ha        1 LGM      0.145000
     48 H8         -8.5920   -1.7010   -0.0820 ha        1 LGM      0.130000
     49 H9          2.6640   -0.6620   -2.1720 ha        1 LGM      0.161000
     50 H10        -1.0680   -0.5720    0.7420 ha        1 LGM      0.144500
     51 H11        -2.6110    1.5180   -2.7560 ha        1 LGM      0.144500
     52 H12         5.3550    1.0330    0.8160 ha        1 LGM      0.172000
     53 H25         0.0050    4.1050    0.0650 hc        1 LGM      0.066700
     54 H25A        0.3130    4.6810   -1.6260 hc        1 LGM      0.066700
     55 H26        -7.9710    2.6790    2.7630 hc        1 LGM      0.045950
     56 H26A       -6.5440    2.4790    3.8480 hc        1 LGM      0.045950
     57 H27        -7.3260    0.3730    4.4630 hc        1 LGM      0.045950
     58 H27A       -8.7280    0.5590    3.3430 hc        1 LGM      0.045950
     59 H28        -1.7120    3.1040   -1.2650 h1        1 LGM      0.052700
     60 H28A       -0.5740    2.7460   -2.6480 h1        1 LGM      0.052700
     61 H29        -6.5420    2.4590    0.9480 h1        1 LGM      0.046450
     62 H29A       -5.1500    2.0680    2.0460 h1        1 LGM      0.046450
     63 H30        -6.2170   -1.0120    2.9740 h1        1 LGM      0.046450
     64 H30A       -7.7300   -1.0360    1.9710 h1        1 LGM      0.046450
     65 H31         3.4720    5.5660    0.1930 hc        1 LGM      0.053700
     66 H31A        4.2480    5.4030   -1.4390 hc        1 LGM      0.053700
     67 H31B        2.4720    5.7720   -1.3110 hc        1 LGM      0.053700
     68 H32        -5.9910    0.8040   -0.6130 h1        1 LGM      0.038700
     69 H32A       -7.7120    0.4730   -0.1130 h1        1 LGM      0.038700
     70 HN36        8.2310   -2.2850   -0.0810 hn        1 LGM      0.353500
     71 HN37        8.6720   -0.3720    3.4540 hn        1 LGM      0.347500
     72 O40         0.8990   -0.3820   -0.5940 o         1 LGM     -0.621500
@<TRIPOS>BOND
     1    1    2 ar  
     2    1    4 ar  
     3    1   41 1   
     4    2    8 ar  
     5    2   42 1   
     6    3    7 ar  
     7    3    9 ar  
     8    3   43 1   
     9    4   14 ar  
    10    4   44 1   
    11    5   10 ar  
    12    5   13 ar  
    13    5   45 1   
    14    6   11 ar  
    15    6   13 ar  
    16    6   46 1   
    17    7   15 ar  
    18    7   47 1   
    19    8   17 ar  
    20    8   48 1   
    21    9   18 ar  
    22    9   49 1   
    23   10   19 ar  
    24   10   50 1   
    25   11   19 ar  
    26   11   51 1   
    27   12   15 ar  
    28   12   18 ar  
    29   12   52 1   
    30   13   14 1   
    31   14   17 ar  
    32   15   22 1   
    33   16   20 2   
    34   16   21 1   
    35   16   25 1   
    36   17   32 1   
    37   18   35 1   
    38   19   38 1   
    39   20   23 1   
    40   20   35 1   
    41   21   31 1   
    42   21   33 2   
    43   22   34 2   
    44   22   36 1   
    45   23   38 1   
    46   23   72 2   
    47   24   36 1   
    48   24   37 1   
    49   24   40 2   
    50   25   28 1   
    51   25   53 1   
    52   25   54 1   
    53   26   27 1   
    54   26   29 1   
    55   26   55 1   
    56   26   56 1   
    57   27   30 1   
    58   27   57 1   
    59   27   58 1   
    60   28   38 1   
    61   28   59 1   
    62   28   60 1   
    63   29   39 1   
    64   29   61 1   
    65   29   62 1   
    66   30   39 1   
    67   30   63 1   
    68   30   64 1   
    69   31   65 1   
    70   31   66 1   
    71   31   67 1   
    72   32   39 1   
    73   32   68 1   
    74   32   69 1   
    75   33   35 1   
    76   34   37 1   
    77   36   70 1   
    78   37   71 1   
@<TRIPOS>SUBSTRUCTURE
     1 LGM         1 TEMP              0 ****  ****    0 ROOT
