@<TRIPOS>MOLECULE
LGP
   34    35     1     0     0
SMALL
bcc


@<TRIPOS>ATOM
      1 P          -1.1230   -0.5230    3.3260 p5        1 LGP      1.311900
      2 OP1        -0.4990   -0.1040    4.6240 o         1 LGP     -0.911167
      3 OP2        -2.5790   -0.2600    3.1140 o         1 LGP     -0.911167
      4 OP3        -0.5610   -1.7860    2.7060 o         1 LGP     -0.911167
      5 O5'        -0.3980    0.5600    2.1550 os        1 LGP     -0.583200
      6 C5'         0.9050    0.9030    2.3930 c3        1 LGP      0.196400
      7 C4'         1.9420   -0.0610    1.7690 c3        1 LGP      0.056100
      8 O4'         1.7630   -0.3140    0.3660 os        1 LGP     -0.470600
      9 C3'         3.3520    0.5250    1.8750 c3        1 LGP      0.140400
     10 O3'         3.5760    1.6550    1.0490 oh        1 LGP     -0.640800
     11 C1'         0.5730   -1.0330    0.0540 c3        1 LGP      0.181100
     12 N9         -0.2010   -0.2880   -0.9240 na        1 LGP     -0.147900
     13 C8         -1.1380    0.7340   -0.6780 cc        1 LGP      0.477400
     14 N7         -1.6300    1.2950   -1.8100 nd        1 LGP     -0.666000
     15 C5         -0.9860    0.6310   -2.8500 cd        1 LGP      0.200800
     16 C6         -1.0930    0.7890   -4.2830 c         1 LGP      0.640000
     17 O6         -1.8020    1.5810   -4.9360 o         1 LGP     -0.667500
     18 N1         -0.2730   -0.0930   -5.0290 n         1 LGP     -0.491400
     19 C2          0.5910   -1.0230   -4.4140 cd        1 LGP      0.559800
     20 N2          1.4010   -1.8090   -5.3220 nh        1 LGP     -0.863800
     21 N3          0.7090   -1.1980   -3.0920 nc        1 LGP     -0.597100
     22 C4         -0.0730   -0.3570   -2.3140 cc        1 LGP      0.028800
     23 H5'         1.1040    0.9190    3.5050 h1        1 LGP      0.010700
     24 H5''        1.1000    1.9280    1.9590 h1        1 LGP      0.010700
     25 H4'         1.9030   -1.0500    2.3070 h1        1 LGP      0.087700
     26 H3'1        3.5350    0.8640    2.9290 h1        1 LGP      0.022200
     27 H3'2        4.1140   -0.2510    1.5910 h1        1 LGP      0.022200
     28 HO3'        2.8690    1.6740    0.3910 ho        1 LGP      0.422000
     29 H1'1       -0.0690   -1.2440    1.0080 h2        1 LGP      0.138700
     30 H1'2        0.9190   -1.9830   -0.4470 h2        1 LGP      0.138700
     31 H8         -1.4100    0.9970    0.3690 h5        1 LGP      0.154100
     32 HN1        -0.2620    0.0040   -6.0180 hn        1 LGP      0.318500
     33 HN21        2.2370   -2.1170   -4.8610 hn        1 LGP      0.371800
     34 HN22        0.8740   -2.6100   -5.6200 hn        1 LGP      0.371800
@<TRIPOS>BOND
     1    1    2 1   
     2    1    3 1   
     3    1    4 1   
     4    1    5 1   
     5    5    6 1   
     6    6    7 1   
     7    6   23 1   
     8    6   24 1   
     9    7    8 1   
    10    7    9 1   
    11    7   25 1   
    12    8   11 1   
    13    9   10 1   
    14    9   26 1   
    15    9   27 1   
    16   10   28 1   
    17   11   12 1   
    18   11   29 1   
    19   11   30 1   
    20   12   13 1   
    21   12   22 1   
    22   13   14 2   
    23   13   31 1   
    24   14   15 1   
    25   15   16 1   
    26   15   22 2   
    27   16   17 2   
    28   16   18 1   
    29   18   19 1   
    30   18   32 1   
    31   19   20 1   
    32   19   21 2   
    33   20   33 1   
    34   20   34 1   
    35   21   22 1   
@<TRIPOS>SUBSTRUCTURE
     1 LGP         1 TEMP              0 ****  ****    0 ROOT
