@<TRIPOS>MOLECULE
LGS
   50    51     1     0     0
SMALL
bcc


@<TRIPOS>ATOM
      1 O4          0.1890   -0.5360   -0.1770 oh        1 LGS     -0.597800
      2 C4          1.5910   -0.3280   -0.1650 c3        1 LGS      0.126100
      3 C5          2.0040   -0.3090    1.3230 c3        1 LGS      0.177500
      4 C6          2.0000   -1.7510    1.8870 c3        1 LGS      0.125400
      5 O6          3.3740   -2.0600    2.1780 os        1 LGS     -0.457400
      6 C3          1.9490    1.0010   -0.8440 c3        1 LGS      0.109100
      7 O3          1.5730    0.8700   -2.2050 oh        1 LGS     -0.608800
      8 C2          3.4540    1.2430   -0.7050 c3        1 LGS      0.090100
      9 O2          3.7240    2.4910   -1.3150 oh        1 LGS     -0.605800
     10 C1          3.8340    1.3110    0.8050 c3        1 LGS      0.404300
     11 O1          5.2370    1.5030    0.7750 oh        1 LGS     -0.599800
     12 N1          3.3490    0.1960    1.6070 nh        1 LGS     -0.763600
     13 C7          4.1680   -0.8980    2.0250 c2        1 LGS      0.774500
     14 N2          5.4260   -0.8640    2.3460 n2        1 LGS     -0.675900
     15 C8          6.0930   -2.0140    2.8860 c3        1 LGS      0.140800
     16 C9          6.2340   -3.2170    1.9520 c3        1 LGS     -0.097400
     17 C10         7.0180   -4.3180    2.6320 c3        1 LGS     -0.077400
     18 C11         7.1750   -5.5170    1.7220 c3        1 LGS     -0.078400
     19 C12         7.9580   -6.6220    2.3990 c3        1 LGS     -0.079400
     20 C13         8.1160   -7.8210    1.4890 c3        1 LGS     -0.079400
     21 C14         8.8990   -8.9260    2.1660 c3        1 LGS     -0.080400
     22 C15         9.0590  -10.1230    1.2640 c3        1 LGS     -0.092100
     23 H4         -0.0960   -0.4240   -1.0950 ho        1 LGS      0.430000
     24 HA          2.1000   -1.1710   -0.7120 h1        1 LGS      0.061700
     25 H5          1.2710    0.3380    1.8830 h1        1 LGS      0.097700
     26 H3          1.3740    1.8510   -0.3790 h1        1 LGS      0.065700
     27 H61C        1.4250   -1.8210    2.8430 h1        1 LGS      0.073700
     28 H62C        1.6400   -2.5070    1.1470 h1        1 LGS      0.073700
     29 HB          1.9070    1.6530   -2.6620 ho        1 LGS      0.432000
     30 H2          4.0400    0.4320   -1.2170 h1        1 LGS      0.072700
     31 HC          4.6680    2.6620   -1.1930 ho        1 LGS      0.433000
     32 H81C        7.1230   -1.6440    3.1610 h1        1 LGS      0.049200
     33 H82C        5.5870   -2.3630    3.8340 h1        1 LGS      0.049200
     34 H91C        5.2150   -3.5920    1.6700 hc        1 LGS      0.050700
     35 H92C        6.7550   -2.9090    1.0080 hc        1 LGS      0.050700
     36 H101        8.0310   -3.9340    2.9260 hc        1 LGS      0.040200
     37 H102        6.4950   -4.6280    3.5750 hc        1 LGS      0.040200
     38 H111        7.7000   -5.2080    0.7790 hc        1 LGS      0.040200
     39 H112        6.1630   -5.9000    1.4260 hc        1 LGS      0.040200
     40 H121        7.4330   -6.9310    3.3410 hc        1 LGS      0.039700
     41 H122        8.9700   -6.2380    2.6960 hc        1 LGS      0.039700
     42 H131        7.1040   -8.2040    1.1930 hc        1 LGS      0.039700
     43 H132        8.6410   -7.5120    0.5470 hc        1 LGS      0.039700
     44 H141        8.3730   -9.2330    3.1080 hc        1 LGS      0.038700
     45 H142        9.9100   -8.5400    2.4630 hc        1 LGS      0.038700
     46 H151        9.6020   -9.8420    0.3290 hc        1 LGS      0.032367
     47 H152        9.6380  -10.9250    1.7810 hc        1 LGS      0.032367
     48 H153        8.0620  -10.5360    0.9770 hc        1 LGS      0.032367
     49 H154        3.3450    2.2290    1.2620 h2        1 LGS      0.065700
     50 H155        5.5750    1.5400    1.6800 ho        1 LGS      0.445000
@<TRIPOS>BOND
     1    1    2 1   
     2    1   23 1   
     3    2    3 1   
     4    2    6 1   
     5    2   24 1   
     6    3    4 1   
     7    3   12 1   
     8    3   25 1   
     9    4    5 1   
    10    4   27 1   
    11    4   28 1   
    12    5   13 1   
    13    6    7 1   
    14    6    8 1   
    15    6   26 1   
    16    7   29 1   
    17    8    9 1   
    18    8   10 1   
    19    8   30 1   
    20    9   31 1   
    21   10   11 1   
    22   10   12 1   
    23   10   49 1   
    24   11   50 1   
    25   12   13 1   
    26   13   14 2   
    27   14   15 1   
    28   15   16 1   
    29   15   32 1   
    30   15   33 1   
    31   16   17 1   
    32   16   34 1   
    33   16   35 1   
    34   17   18 1   
    35   17   36 1   
    36   17   37 1   
    37   18   19 1   
    38   18   38 1   
    39   18   39 1   
    40   19   20 1   
    41   19   40 1   
    42   19   41 1   
    43   20   21 1   
    44   20   42 1   
    45   20   43 1   
    46   21   22 1   
    47   21   44 1   
    48   21   45 1   
    49   22   46 1   
    50   22   47 1   
    51   22   48 1   
@<TRIPOS>SUBSTRUCTURE
     1 LGS         1 TEMP              0 ****  ****    0 ROOT
