@<TRIPOS>MOLECULE
LGS
   50    50     1     0     0
SMALL
bcc


@<TRIPOS>ATOM
      1 O4         -5.1310   -0.7420   -3.9620 oh        1 LGS     -0.314000
      2 C4         -3.3430   -1.1650   -4.0740 c3        1 LGS     -0.014000
      3 C5         -2.6460   -1.0760   -2.4770 c3        1 LGS     -0.067000
      4 C6         -1.3780   -1.5760   -2.4830 c3        1 LGS     -0.027000
      5 O6         -0.5370   -0.4090   -2.2400 os        1 LGS     -0.241000
      6 C3         -3.1390   -0.8700   -4.3500 c3        1 LGS     -0.003000
      7 O3         -1.4040   -1.3660   -4.5570 oh        1 LGS     -0.316000
      8 C2         -3.1830    0.5850   -3.7280 c3        1 LGS     -0.033000
      9 O2         -4.2850    1.0140   -3.8130 oh        1 LGS     -0.329000
     10 C1         -2.6470    0.5990   -1.9020 c3        1 LGS      0.112000
     11 O1         -2.4190    2.1430   -1.4280 oh        1 LGS     -0.317000
     12 N1         -2.5070    0.5160   -1.8820 n3        1 LGS     -0.240000
     13 C7         -1.3940    0.5670   -1.4180 c2        1 LGS      0.192000
     14 N2         -0.9410    1.4760   -0.5650 n1        1 LGS     -0.272000
     15 C8          0.4800    1.6130   -0.3420 c2        1 LGS     -0.063000
     16 C9          0.7430    1.8900    1.1360 c3        1 LGS     -0.175000
     17 C10         2.2110    1.5660    1.4620 c3        1 LGS     -0.156000
     18 C11         2.3470    1.2730    2.9390 c3        1 LGS     -0.157000
     19 C12         3.4830    0.2980    3.1560 c3        1 LGS     -0.158000
     20 C13         3.4430   -0.2160    4.5850 c3        1 LGS     -0.158000
     21 C14         4.1340   -1.5740    4.6560 c3        1 LGS     -0.159000
     22 C15         3.8030   -2.2440    5.9820 c3        1 LGS     -0.210000
     23 H4         -5.6310   -1.4660   -4.2020 ho        1 LGS      0.213000
     24 HA         -3.2390   -2.0810   -4.4310 h1        1 LGS      0.123000
     25 H5         -3.1970   -1.6040   -1.8560 h1        1 LGS      0.141000
     26 H3         -3.5940   -0.8710   -5.2350 h1        1 LGS      0.120000
     27 H61C       -1.2960   -2.1570   -1.7000 h1        1 LGS      0.107500
     28 H62C       -1.1940   -1.8760   -3.3940 h1        1 LGS      0.107500
     29 HB         -1.1340   -1.1680   -5.3800 ho        1 LGS      0.208000
     30 H2         -2.5730    1.1690   -4.2430 h1        1 LGS      0.120000
     31 HC         -4.2530    1.8650   -4.0480 ho        1 LGS      0.224000
     32 H81C        0.8200    2.3470   -0.8740 ha        1 LGS      0.089000
     33 H82C        0.9290    0.7890   -0.6010 ha        1 LGS      0.089000
     34 H91C        0.1580    1.3310    1.6810 hc        1 LGS      0.092000
     35 H92C        0.5680    2.8250    1.3270 hc        1 LGS      0.092000
     36 H101        2.7770    2.3350    1.2260 hc        1 LGS      0.078500
     37 H102        2.4960    0.7780    0.9430 hc        1 LGS      0.078500
     38 H111        1.5120    0.8830    3.2720 hc        1 LGS      0.080000
     39 H112        2.5350    2.1050    3.4190 hc        1 LGS      0.080000
     40 H121        4.3320    0.7480    2.9980 hc        1 LGS      0.078500
     41 H122        3.3920   -0.4470    2.5430 hc        1 LGS      0.078500
     42 H131        2.5250   -0.3060    4.8690 hc        1 LGS      0.079000
     43 H132        3.9020    0.4120    5.1670 hc        1 LGS      0.079000
     44 H141        5.0960   -1.4520    4.5870 hc        1 LGS      0.077500
     45 H142        3.8230   -2.1360    3.9230 hc        1 LGS      0.077500
     46 H151        4.0420   -1.6420    6.7230 hc        1 LGS      0.071667
     47 H152        4.3150   -3.0840    6.0630 hc        1 LGS      0.071667
     48 H153        2.8430   -2.4420    6.0190 hc        1 LGS      0.071667
     49 H154       -3.3640    0.1820   -1.3420 h2        1 LGS      0.133000
     50 H155       -2.2820    2.6590   -2.1480 ho        1 LGS      0.241000
@<TRIPOS>BOND
     1    1    2 1   
     2    1   23 1   
     3    2    3 1   
     4    2    6 1   
     5    2   24 1   
     6    3    4 1   
     7    3   12 1   
     8    3   25 1   
     9    4    5 1   
    10    4   27 1   
    11    4   28 1   
    12    5   13 1   
    13    6    7 1   
    14    6    8 1   
    15    6   26 1   
    16    7   29 1   
    17    8    9 1   
    18    8   10 1   
    19    8   30 1   
    20    9   31 1   
    21   10   11 1   
    22   10   12 1   
    23   10   49 1   
    24   11   50 1   
    25   12   13 1   
    26   13   14 1   
    27   15   16 1   
    28   15   32 1   
    29   15   33 1   
    30   16   17 1   
    31   16   34 1   
    32   16   35 1   
    33   17   18 1   
    34   17   36 1   
    35   17   37 1   
    36   18   19 1   
    37   18   38 1   
    38   18   39 1   
    39   19   20 1   
    40   19   40 1   
    41   19   41 1   
    42   20   21 1   
    43   20   42 1   
    44   20   43 1   
    45   21   22 1   
    46   21   44 1   
    47   21   45 1   
    48   22   46 1   
    49   22   47 1   
    50   22   48 1   
@<TRIPOS>SUBSTRUCTURE
     1 LGS         1 TEMP              0 ****  ****    0 ROOT
