@<TRIPOS>MOLECULE
LGS
   50    51     1     0     0
SMALL
bcc


@<TRIPOS>ATOM
      1 O4          0.2140   -0.5020   -0.1420 oh        1 LGS     -0.597800
      2 C4          1.6180   -0.3070   -0.1440 c3        1 LGS      0.126100
      3 C5          2.0440   -0.2800    1.3400 c3        1 LGS      0.177500
      4 C6          2.0320   -1.7170    1.9160 c3        1 LGS      0.125400
      5 O6          3.4050   -2.0370    2.1970 os        1 LGS     -0.457400
      6 C3          1.9820    1.0140   -0.8360 c3        1 LGS      0.109100
      7 O3          1.5930    0.8750   -2.1920 oh        1 LGS     -0.608800
      8 C2          3.4900    1.2430   -0.7120 c3        1 LGS      0.090100
      9 O2          3.7660    2.4840   -1.3340 oh        1 LGS     -0.605800
     10 C1          3.8840    1.3190    0.7940 c3        1 LGS      0.404300
     11 O1          5.2880    1.4980    0.7500 oh        1 LGS     -0.599800
     12 N1          3.3960    0.2140    1.6090 nh        1 LGS     -0.763600
     13 C7          4.2090   -0.8840    2.0280 c2        1 LGS      0.774500
     14 N2          5.4690   -0.8590    2.3380 n2        1 LGS     -0.675900
     15 C8          6.1300   -2.0110    2.8810 c3        1 LGS      0.140800
     16 C9          6.2530   -3.2220    1.9540 c3        1 LGS     -0.097400
     17 C10         7.0320   -4.3250    2.6360 c3        1 LGS     -0.077400
     18 C11         7.1730   -5.5320    1.7330 c3        1 LGS     -0.078400
     19 C12         7.9500   -6.6390    2.4130 c3        1 LGS     -0.079400
     20 C13         8.0910   -7.8450    1.5100 c3        1 LGS     -0.079400
     21 C14         8.8680   -8.9540    2.1890 c3        1 LGS     -0.080400
     22 C15         9.0120  -10.1570    1.2930 c3        1 LGS     -0.092100
     23 H4         -0.0780   -0.3950   -1.0590 ho        1 LGS      0.430000
     24 HA          2.1140   -1.1590   -0.6880 h1        1 LGS      0.061700
     25 H5          1.3220    0.3790    1.9020 h1        1 LGS      0.097700
     26 H3          1.4190    1.8720   -0.3730 h1        1 LGS      0.065700
     27 H61C        1.4650   -1.7750    2.8780 h1        1 LGS      0.073700
     28 H62C        1.6570   -2.4760    1.1860 h1        1 LGS      0.073700
     29 HB          1.9300    1.6520   -2.6590 ho        1 LGS      0.432000
     30 H2          4.0650    0.4220   -1.2230 h1        1 LGS      0.072700
     31 HC          4.7130    2.6470   -1.2220 ho        1 LGS      0.433000
     32 H81C        7.1660   -1.6490    3.1450 h1        1 LGS      0.049200
     33 H82C        5.6290   -2.3480    3.8350 h1        1 LGS      0.049200
     34 H91C        6.7700   -2.9260    1.0050 hc        1 LGS      0.050700
     35 H92C        5.2280   -3.5900    1.6830 hc        1 LGS      0.050700
     36 H101        6.5130   -4.6240    3.5840 hc        1 LGS      0.040200
     37 H102        8.0500   -3.9480    2.9210 hc        1 LGS      0.040200
     38 H111        6.1550   -5.9070    1.4470 hc        1 LGS      0.040200
     39 H112        7.6940   -5.2340    0.7850 hc        1 LGS      0.040200
     40 H121        7.4280   -6.9370    3.3600 hc        1 LGS      0.039700
     41 H122        8.9670   -6.2620    2.7000 hc        1 LGS      0.039700
     42 H131        7.0740   -8.2210    1.2220 hc        1 LGS      0.039700
     43 H132        8.6140   -7.5470    0.5630 hc        1 LGS      0.039700
     44 H141        8.3450   -9.2500    3.1360 hc        1 LGS      0.038700
     45 H142        9.8840   -8.5750    2.4780 hc        1 LGS      0.038700
     46 H151        8.0100  -10.5630    1.0140 hc        1 LGS      0.032367
     47 H152        9.5540   -9.8870    0.3540 hc        1 LGS      0.032367
     48 H153        9.5870  -10.9610    1.8130 hc        1 LGS      0.032367
     49 H154        3.4080    2.2450    1.2480 h2        1 LGS      0.065700
     50 H155        5.6350    1.5380    1.6520 ho        1 LGS      0.445000
@<TRIPOS>BOND
     1    1    2 1   
     2    1   23 1   
     3    2    3 1   
     4    2    6 1   
     5    2   24 1   
     6    3    4 1   
     7    3   12 1   
     8    3   25 1   
     9    4    5 1   
    10    4   27 1   
    11    4   28 1   
    12    5   13 1   
    13    6    7 1   
    14    6    8 1   
    15    6   26 1   
    16    7   29 1   
    17    8    9 1   
    18    8   10 1   
    19    8   30 1   
    20    9   31 1   
    21   10   11 1   
    22   10   12 1   
    23   10   49 1   
    24   11   50 1   
    25   12   13 1   
    26   13   14 2   
    27   14   15 1   
    28   15   16 1   
    29   15   32 1   
    30   15   33 1   
    31   16   17 1   
    32   16   34 1   
    33   16   35 1   
    34   17   18 1   
    35   17   36 1   
    36   17   37 1   
    37   18   19 1   
    38   18   38 1   
    39   18   39 1   
    40   19   20 1   
    41   19   40 1   
    42   19   41 1   
    43   20   21 1   
    44   20   42 1   
    45   20   43 1   
    46   21   22 1   
    47   21   44 1   
    48   21   45 1   
    49   22   46 1   
    50   22   47 1   
    51   22   48 1   
@<TRIPOS>SUBSTRUCTURE
     1 LGS         1 TEMP              0 ****  ****    0 ROOT
