@<TRIPOS>MOLECULE
LGS
   50    51     1     0     0
SMALL
bcc


@<TRIPOS>ATOM
      1 O4          0.1940   -0.5310   -0.1880 oh        1 LGS     -0.597800
      2 C4          1.5960   -0.3230   -0.1700 c3        1 LGS      0.126100
      3 C5          2.0030   -0.3090    1.3190 c3        1 LGS      0.177500
      4 C6          1.9980   -1.7520    1.8790 c3        1 LGS      0.125400
      5 O6          3.3700   -2.0630    2.1740 os        1 LGS     -0.457400
      6 C3          1.9560    1.0080   -0.8430 c3        1 LGS      0.109100
      7 O3          1.5850    0.8810   -2.2060 oh        1 LGS     -0.608800
      8 C2          3.4610    1.2490   -0.6980 c3        1 LGS      0.090100
      9 O2          3.7330    2.4990   -1.3030 oh        1 LGS     -0.605800
     10 C1          3.8360    1.3130    0.8140 c3        1 LGS      0.404300
     11 O1          5.2390    1.5040    0.7890 oh        1 LGS     -0.599800
     12 N1          3.3480    0.1940    1.6110 nh        1 LGS     -0.763600
     13 C7          4.1650   -0.9010    2.0280 c2        1 LGS      0.774500
     14 N2          5.4210   -0.8680    2.3540 n2        1 LGS     -0.675900
     15 C8          6.0860   -2.0200    2.8930 c3        1 LGS      0.140800
     16 C9          6.2310   -3.2190    1.9560 c3        1 LGS     -0.097400
     17 C10         7.0120   -4.3230    2.6350 c3        1 LGS     -0.077400
     18 C11         7.1740   -5.5190    1.7210 c3        1 LGS     -0.078400
     19 C12         7.9530   -6.6260    2.3980 c3        1 LGS     -0.079400
     20 C13         8.1160   -7.8210    1.4850 c3        1 LGS     -0.079400
     21 C14         8.8940   -8.9300    2.1610 c3        1 LGS     -0.080400
     22 C15         9.0600  -10.1220    1.2550 c3        1 LGS     -0.092100
     23 H4         -0.0870   -0.4160   -1.1070 ho        1 LGS      0.430000
     24 HA          2.1070   -1.1650   -0.7180 h1        1 LGS      0.061700
     25 H5          1.2690    0.3370    1.8790 h1        1 LGS      0.097700
     26 H3          1.3810    1.8560   -0.3780 h1        1 LGS      0.065700
     27 H61C        1.6400   -2.5060    1.1360 h1        1 LGS      0.073700
     28 H62C        1.4190   -1.8260    2.8330 h1        1 LGS      0.073700
     29 HB          1.9220    1.6660   -2.6590 ho        1 LGS      0.432000
     30 H2          4.0500    0.4390   -1.2100 h1        1 LGS      0.072700
     31 HC          4.6780    2.6690   -1.1780 ho        1 LGS      0.433000
     32 H81C        5.5760   -2.3710    3.8380 h1        1 LGS      0.049200
     33 H82C        7.1150   -1.6510    3.1730 h1        1 LGS      0.049200
     34 H91C        6.7560   -2.9090    1.0150 hc        1 LGS      0.050700
     35 H92C        5.2130   -3.5940    1.6680 hc        1 LGS      0.050700
     36 H101        6.4840   -4.6360    3.5740 hc        1 LGS      0.040200
     37 H102        8.0230   -3.9400    2.9360 hc        1 LGS      0.040200
     38 H111        7.7030   -5.2060    0.7830 hc        1 LGS      0.040200
     39 H112        6.1630   -5.9000    1.4190 hc        1 LGS      0.040200
     40 H121        8.9630   -6.2440    2.7020 hc        1 LGS      0.039700
     41 H122        7.4230   -6.9390    3.3370 hc        1 LGS      0.039700
     42 H131        7.1060   -8.2040    1.1810 hc        1 LGS      0.039700
     43 H132        8.6470   -7.5080    0.5470 hc        1 LGS      0.039700
     44 H141        8.3630   -9.2410    3.0990 hc        1 LGS      0.038700
     45 H142        9.9030   -8.5450    2.4660 hc        1 LGS      0.038700
     46 H151        9.6100   -9.8370    0.3250 hc        1 LGS      0.032367
     47 H152        8.0650  -10.5340    0.9590 hc        1 LGS      0.032367
     48 H153        9.6360  -10.9270    1.7720 hc        1 LGS      0.032367
     49 H154        3.3460    2.2290    1.2720 h2        1 LGS      0.065700
     50 H155        5.5740    1.5380    1.6960 ho        1 LGS      0.445000
@<TRIPOS>BOND
     1    1    2 1   
     2    1   23 1   
     3    2    3 1   
     4    2    6 1   
     5    2   24 1   
     6    3    4 1   
     7    3   12 1   
     8    3   25 1   
     9    4    5 1   
    10    4   27 1   
    11    4   28 1   
    12    5   13 1   
    13    6    7 1   
    14    6    8 1   
    15    6   26 1   
    16    7   29 1   
    17    8    9 1   
    18    8   10 1   
    19    8   30 1   
    20    9   31 1   
    21   10   11 1   
    22   10   12 1   
    23   10   49 1   
    24   11   50 1   
    25   12   13 1   
    26   13   14 2   
    27   14   15 1   
    28   15   16 1   
    29   15   32 1   
    30   15   33 1   
    31   16   17 1   
    32   16   34 1   
    33   16   35 1   
    34   17   18 1   
    35   17   36 1   
    36   17   37 1   
    37   18   19 1   
    38   18   38 1   
    39   18   39 1   
    40   19   20 1   
    41   19   40 1   
    42   19   41 1   
    43   20   21 1   
    44   20   42 1   
    45   20   43 1   
    46   21   22 1   
    47   21   44 1   
    48   21   45 1   
    49   22   46 1   
    50   22   47 1   
    51   22   48 1   
@<TRIPOS>SUBSTRUCTURE
     1 LGS         1 TEMP              0 ****  ****    0 ROOT
