@<TRIPOS>MOLECULE
LGS
   50    51     1     0     0
SMALL
bcc


@<TRIPOS>ATOM
      1 O4          3.9700    2.2170   -1.6080 oh        1 LGS     -0.597800
      2 C4          3.3360    1.0300   -1.1630 c3        1 LGS      0.126100
      3 C5          2.8240    1.3320    0.2620 c3        1 LGS      0.177500
      4 C6          1.5650    2.2290    0.1890 c3        1 LGS      0.125400
      5 O6          0.4790    1.4180    0.6680 os        1 LGS     -0.457400
      6 C3          4.3270   -0.1420   -1.1470 c3        1 LGS      0.109100
      7 O3          4.7020   -0.3670   -2.4950 oh        1 LGS     -0.608800
      8 C2          3.6360   -1.3700   -0.5500 c3        1 LGS      0.090100
      9 O2          4.5990   -2.4080   -0.5270 oh        1 LGS     -0.605800
     10 C1          3.1780   -1.0560    0.9070 c3        1 LGS      0.404300
     11 O1          2.5390   -2.2540    1.3080 oh        1 LGS     -0.599800
     12 N1          2.4060    0.1710    1.0510 nh        1 LGS     -0.763600
     13 C7          0.9850    0.2030    1.1940 c2        1 LGS      0.774500
     14 N2          0.2330   -0.6600    1.8070 n2        1 LGS     -0.675900
     15 C8         -1.1710   -0.4300    1.9960 c3        1 LGS      0.140800
     16 C9         -2.0280   -0.3930    0.7300 c3        1 LGS     -0.097400
     17 C10        -3.4870   -0.2190    1.0920 c3        1 LGS     -0.077400
     18 C11        -4.3560   -0.1850   -0.1470 c3        1 LGS     -0.078400
     19 C12        -5.8160   -0.0090    0.2110 c3        1 LGS     -0.079400
     20 C13        -6.6850    0.0240   -1.0280 c3        1 LGS     -0.079400
     21 C14        -8.1460    0.2010   -0.6710 c3        1 LGS     -0.080400
     22 C15        -9.0160    0.2340   -1.9010 c3        1 LGS     -0.092100
     23 H4          4.4010    1.9980   -2.4460 ho        1 LGS      0.430000
     24 HA          2.4800    0.7810   -1.8520 h1        1 LGS      0.061700
     25 H5          3.6480    1.8510    0.8300 h1        1 LGS      0.097700
     26 H3          5.2410    0.1210   -0.5440 h1        1 LGS      0.065700
     27 H61C        1.6480    3.1180    0.8610 h1        1 LGS      0.073700
     28 H62C        1.3110    2.5390   -0.8540 h1        1 LGS      0.073700
     29 HB          5.2270   -1.1790   -2.5050 ho        1 LGS      0.432000
     30 H2          2.7550   -1.6800   -1.1760 h1        1 LGS      0.072700
     31 HC          4.1740   -3.1720   -0.1150 ho        1 LGS      0.433000
     32 H81C       -1.5150   -1.2880    2.6430 h1        1 LGS      0.049200
     33 H82C       -1.3470    0.5270    2.5680 h1        1 LGS      0.049200
     34 H91C       -1.6930    0.4550    0.0760 hc        1 LGS      0.050700
     35 H92C       -1.8940   -1.3420    0.1490 hc        1 LGS      0.050700
     36 H101       -3.8140   -1.0600    1.7580 hc        1 LGS      0.040200
     37 H102       -3.6220    0.7330    1.6700 hc        1 LGS      0.040200
     38 H111       -4.0280    0.6550   -0.8140 hc        1 LGS      0.040200
     39 H112       -4.2230   -1.1370   -0.7260 hc        1 LGS      0.040200
     40 H121       -6.1440   -0.8490    0.8780 hc        1 LGS      0.039700
     41 H122       -5.9490    0.9430    0.7890 hc        1 LGS      0.039700
     42 H131       -6.3580    0.8650   -1.6950 hc        1 LGS      0.039700
     43 H132       -6.5530   -0.9280   -1.6060 hc        1 LGS      0.039700
     44 H141       -8.4720   -0.6400   -0.0030 hc        1 LGS      0.038700
     45 H142       -8.2770    1.1530   -0.0910 hc        1 LGS      0.038700
     46 H151       -8.7230    1.0810   -2.5690 hc        1 LGS      0.032367
     47 H152       -8.9180   -0.7160   -2.4800 hc        1 LGS      0.032367
     48 H153      -10.0870    0.3650   -1.6160 hc        1 LGS      0.032367
     49 H154        4.1000   -0.8950    1.5510 h2        1 LGS      0.065700
     50 H155        2.1980   -2.1500    2.2070 ho        1 LGS      0.445000
@<TRIPOS>BOND
     1    1    2 1   
     2    1   23 1   
     3    2    3 1   
     4    2    6 1   
     5    2   24 1   
     6    3    4 1   
     7    3   12 1   
     8    3   25 1   
     9    4    5 1   
    10    4   27 1   
    11    4   28 1   
    12    5   13 1   
    13    6    7 1   
    14    6    8 1   
    15    6   26 1   
    16    7   29 1   
    17    8    9 1   
    18    8   10 1   
    19    8   30 1   
    20    9   31 1   
    21   10   11 1   
    22   10   12 1   
    23   10   49 1   
    24   11   50 1   
    25   12   13 1   
    26   13   14 2   
    27   14   15 1   
    28   15   16 1   
    29   15   32 1   
    30   15   33 1   
    31   16   17 1   
    32   16   34 1   
    33   16   35 1   
    34   17   18 1   
    35   17   36 1   
    36   17   37 1   
    37   18   19 1   
    38   18   38 1   
    39   18   39 1   
    40   19   20 1   
    41   19   40 1   
    42   19   41 1   
    43   20   21 1   
    44   20   42 1   
    45   20   43 1   
    46   21   22 1   
    47   21   44 1   
    48   21   45 1   
    49   22   46 1   
    50   22   47 1   
    51   22   48 1   
@<TRIPOS>SUBSTRUCTURE
     1 LGS         1 TEMP              0 ****  ****    0 ROOT
