@<TRIPOS>MOLECULE
LGT
   22    20     1     0     0
SMALL
bcc


@<TRIPOS>ATOM
      1 O1A        -3.1350    1.6170   -1.6600 o         1 LGT     -0.591000
      2 C1         -1.8990    1.4470   -1.8300 c1        1 LGT      0.307000
      3 O1B        -1.4450    1.2450   -2.9860 o         1 LGT     -0.591000
      4 C2         -0.9610    1.4860   -0.6450 c2        1 LGT     -0.064000
      5 O2         -1.5240    2.2790    0.3730 oh        1 LGT     -0.338000
      6 C3         -0.7430    0.0830   -0.1280 c3        1 LGT     -0.011000
      7 O3         -1.6440   -0.1760    0.9220 oh        1 LGT     -0.365000
      8 C4          0.6740   -0.0530    0.3790 c3        1 LGT      0.043000
      9 O4          0.7190    0.2880    1.7450 oh        1 LGT     -0.330000
     10 C5          1.1390   -1.4800    0.2010 c3        1 LGT     -0.075000
     11 O5          1.8030   -1.6060   -1.0340 oh        1 LGT     -0.366000
     12 C6          2.0850   -1.8460    1.3220 c2        1 LGT      0.319000
     13 O6A         3.3090   -1.5640    1.2300 o         1 LGT     -0.586000
     14 O6B         1.6500   -2.4320    2.3480 o         1 LGT     -0.586000
     15 H2         -0.1040    1.8690   -0.9200 h4        1 LGT      0.101000
     16 HO2        -1.1930    3.1030    0.3240 ho        1 LGT      0.202000
     17 H3         -0.8930   -0.5580   -0.8520 h1        1 LGT      0.079000
     18 HO3        -2.1450   -0.8810    0.7160 ho        1 LGT      0.228000
     19 H4          1.2600    0.5460   -0.1250 h1        1 LGT      0.094000
     20 HO4         1.1500    1.0590    1.8440 ho        1 LGT      0.224000
     21 H5          0.3660   -2.0790    0.2180 h1        1 LGT      0.094000
     22 HO5         1.5310   -2.3480   -1.4420 ho        1 LGT      0.213000
@<TRIPOS>BOND
     1    1    2 1   
     2    2    3 1   
     3    4    5 1   
     4    4    6 1   
     5    4   15 1   
     6    5   16 1   
     7    6    7 1   
     8    6    8 1   
     9    6   17 1   
    10    7   18 1   
    11    8    9 1   
    12    8   10 1   
    13    8   19 1   
    14    9   20 1   
    15   10   11 1   
    16   10   12 1   
    17   10   21 1   
    18   11   22 1   
    19   12   13 1   
    20   12   14 1   
@<TRIPOS>SUBSTRUCTURE
     1 LGT         1 TEMP              0 ****  ****    0 ROOT
