@<TRIPOS>MOLECULE
LGT
   22    21     1     0     0
SMALL
bcc


@<TRIPOS>ATOM
      1 O1A         0.1640   -0.4550   -0.1330 o         1 LGT     -0.853800
      2 C1          1.3760   -0.0940   -0.2630 c         1 LGT      0.893600
      3 O1B         1.9120    0.1720   -1.3730 o         1 LGT     -0.853800
      4 C2          2.2150    0.0310    1.0330 c3        1 LGT     -0.008400
      5 O2          1.5320    0.8630    1.9570 oh        1 LGT     -0.624800
      6 C3          2.4900   -1.3630    1.6240 c3        1 LGT      0.127100
      7 O3          1.2890   -1.9920    2.0540 oh        1 LGT     -0.620300
      8 C4          3.4430   -1.3390    2.8400 c3        1 LGT      0.127100
      9 O4          2.7400   -1.0380    4.0270 oh        1 LGT     -0.620300
     10 C5          4.2100   -2.6730    2.9410 c3        1 LGT     -0.008400
     11 O5          5.3010   -2.6470    2.0340 oh        1 LGT     -0.624800
     12 C6          4.6910   -2.9860    4.3780 c         1 LGT      0.893600
     13 O6A         3.8370   -3.3290    5.2430 o         1 LGT     -0.853800
     14 O6B         5.9390   -2.9170    4.5960 o         1 LGT     -0.853800
     15 H2          3.1830    0.5570    0.8270 h1        1 LGT      0.058200
     16 HO2         0.6880    0.4240    2.1270 ho        1 LGT      0.408500
     17 H3          2.9580   -1.9900    0.8120 h1        1 LGT      0.047200
     18 HO3         0.6140   -1.7900    1.3860 ho        1 LGT      0.427000
     19 H4          4.1700   -0.4910    2.7060 h1        1 LGT      0.047200
     20 HO4         2.3760   -1.8720    4.3590 ho        1 LGT      0.427000
     21 H5          3.5410   -3.5090    2.5950 h1        1 LGT      0.058200
     22 HO5         6.0960   -2.4750    2.5630 ho        1 LGT      0.408500
@<TRIPOS>BOND
     1    1    2 1   
     2    2    3 1   
     3    2    4 1   
     4    4    5 1   
     5    4    6 1   
     6    4   15 1   
     7    5   16 1   
     8    6    7 1   
     9    6    8 1   
    10    6   17 1   
    11    7   18 1   
    12    8    9 1   
    13    8   10 1   
    14    8   19 1   
    15    9   20 1   
    16   10   11 1   
    17   10   12 1   
    18   10   21 1   
    19   11   22 1   
    20   12   13 1   
    21   12   14 1   
@<TRIPOS>SUBSTRUCTURE
     1 LGT         1 TEMP              0 ****  ****    0 ROOT
