@<TRIPOS>MOLECULE
LGT
   22    21     1     0     0
SMALL
bcc


@<TRIPOS>ATOM
      1 O1A        -4.0160    0.4800    0.0290 o         1 LGT     -0.852300
      2 C1         -2.9700    0.5040    0.7480 c         1 LGT      0.889100
      3 O1B        -2.8070    1.2890    1.7220 o         1 LGT     -0.852300
      4 C2         -1.8710   -0.5320    0.4150 c3        1 LGT     -0.002400
      5 O2         -2.4280   -1.6090   -0.3290 oh        1 LGT     -0.630800
      6 C3         -0.7080    0.0810   -0.3910 c3        1 LGT      0.122600
      7 O3         -0.7220   -0.4180   -1.7210 oh        1 LGT     -0.632800
      8 C4          0.6640   -0.2010    0.2600 c3        1 LGT      0.122600
      9 O4          0.8970   -1.5970    0.1280 oh        1 LGT     -0.632800
     10 C5          1.7820    0.6240   -0.4070 c3        1 LGT     -0.002400
     11 O5          1.4830    2.0060   -0.3090 oh        1 LGT     -0.630800
     12 C6          3.1690    0.3190    0.2030 c         1 LGT      0.889100
     13 O6A         3.6830   -0.8230    0.0130 o         1 LGT     -0.852300
     14 O6B         3.7350    1.2410    0.8590 o         1 LGT     -0.852300
     15 H2         -1.4830   -0.9970    1.3600 h1        1 LGT      0.059200
     16 HO2        -3.1210   -1.2180   -0.8840 ho        1 LGT      0.414000
     17 H3         -0.8340    1.1940   -0.4910 h1        1 LGT      0.065200
     18 HO3        -0.6530   -1.3790   -1.6430 ho        1 LGT      0.420000
     19 H4          0.6140    0.0570    1.3540 h1        1 LGT      0.065200
     20 HO4         1.8570   -1.7360    0.1320 ho        1 LGT      0.420000
     21 H5          1.7880    0.3910   -1.5070 h1        1 LGT      0.059200
     22 HO5         1.9660    2.3400    0.4630 ho        1 LGT      0.414000
@<TRIPOS>BOND
     1    1    2 1   
     2    2    3 1   
     3    2    4 1   
     4    4    5 1   
     5    4    6 1   
     6    4   15 1   
     7    5   16 1   
     8    6    7 1   
     9    6    8 1   
    10    6   17 1   
    11    7   18 1   
    12    8    9 1   
    13    8   10 1   
    14    8   19 1   
    15    9   20 1   
    16   10   11 1   
    17   10   12 1   
    18   10   21 1   
    19   11   22 1   
    20   12   13 1   
    21   12   14 1   
@<TRIPOS>SUBSTRUCTURE
     1 LGT         1 TEMP              0 ****  ****    0 ROOT
