@<TRIPOS>MOLECULE
LGU
   22    22     1     0     0
SMALL
bcc


@<TRIPOS>ATOM
      1 C1         -1.1700    1.2280    0.5170 c3        1 LGU      0.294900
      2 C2         -1.8200   -0.1200    0.8830 c3        1 LGU      0.097100
      3 O2         -3.2250   -0.0320    0.7680 oh        1 LGU     -0.601800
      4 C3         -1.2570   -1.2660    0.0300 c3        1 LGU      0.105100
      5 O3         -1.7840   -1.2270   -1.2830 oh        1 LGU     -0.614800
      6 C4          0.2850   -1.2120    0.0380 c3        1 LGU      0.119100
      7 O4          0.6750   -1.5950    1.3440 oh        1 LGU     -0.643800
      8 C5          0.7710    0.1750   -0.3870 c3        1 LGU     -0.036900
      9 O5          0.2340    1.2000    0.4530 os        1 LGU     -0.408600
     10 C6          2.3270    0.3330   -0.3520 c         1 LGU      0.938600
     11 O6A         2.8430    0.9120   -1.3400 o         1 LGU     -0.815300
     12 O6B         2.9540   -0.1530    0.6280 o         1 LGU     -0.815300
     13 O1         -1.6340    1.6130   -0.7660 oh        1 LGU     -0.667800
     14 H1         -1.4230    2.0200    1.2770 h2        1 LGU      0.064700
     15 H2         -1.6130   -0.3330    1.9680 h1        1 LGU      0.098700
     16 HO2        -3.4190    0.0460   -0.1770 ho        1 LGU      0.415000
     17 H3         -1.6090   -2.2520    0.4430 h1        1 LGU      0.082700
     18 HO3        -1.5040   -0.3900   -1.6810 ho        1 LGU      0.416000
     19 H4          0.6850   -1.9690   -0.6940 h1        1 LGU      0.047700
     20 HO4         1.5400   -1.1840    1.5210 ho        1 LGU      0.465000
     21 H5          0.4270    0.3640   -1.4430 h1        1 LGU      0.034700
     22 H10        -0.9960    2.2460   -1.1220 ho        1 LGU      0.427000
@<TRIPOS>BOND
     1    1    2 1   
     2    1    9 1   
     3    1   13 1   
     4    1   14 1   
     5    2    3 1   
     6    2    4 1   
     7    2   15 1   
     8    3   16 1   
     9    4    5 1   
    10    4    6 1   
    11    4   17 1   
    12    5   18 1   
    13    6    7 1   
    14    6    8 1   
    15    6   19 1   
    16    7   20 1   
    17    8    9 1   
    18    8   10 1   
    19    8   21 1   
    20   10   11 1   
    21   10   12 1   
    22   13   22 1   
@<TRIPOS>SUBSTRUCTURE
     1 LGU         1 TEMP              0 ****  ****    0 ROOT
