@<TRIPOS>MOLECULE
LGV
   47    51     1     0     0
SMALL
bcc


@<TRIPOS>ATOM
      1 C1          0.6850   -0.1190   -1.4040 cc        1 LGV     -0.171000
      2 C2         -0.7030   -0.7300    9.1040 ca        1 LGV      0.023000
      3 C3          1.8990    0.0360   -0.6720 cc        1 LGV     -0.101000
      4 C4         -0.3770   -0.0380   10.2610 ca        1 LGV     -0.275300
      5 C5          5.4070    1.0870    3.4000 cc        1 LGV     -0.274300
      6 C6          1.0400    0.5050    7.9540 ca        1 LGV      0.484200
      7 C7         -0.3200   -0.5600   -0.5230 cd        1 LGV     -0.073100
      8 C8          0.0070   -0.4640    7.9110 ca        1 LGV     -0.363900
      9 C9          1.6320   -0.3130    0.6610 cd        1 LGV     -0.283600
     10 C10         6.0320    0.5790    4.6030 cc        1 LGV      0.361600
     11 C11         4.5610    0.0420    2.9690 cd        1 LGV      0.071300
     12 C12         0.6730    0.9220   10.1990 ca        1 LGV      0.704500
     13 C13         2.4080   -0.3770    1.8930 cd        1 LGV      0.789200
     14 C14         0.4710   -1.1200    2.9620 cc        1 LGV      0.561300
     15 C15        -0.3740   -1.2190    6.7280 c         1 LGV      0.581700
     16 C16         8.2160    0.6210    5.9720 cx        1 LGV     -0.110400
     17 C17         7.1300    1.0940    6.8860 cx        1 LGV     -0.110400
     18 C18         7.0060    1.3200    5.3970 cx        1 LGV     -0.179000
     19 C19        -0.1590   -1.6250    4.2560 c3        1 LGV      0.097500
     20 N20         1.3760    1.1880    9.0500 nb        1 LGV     -0.671000
     21 N21         4.7140   -1.0040    3.9090 na        1 LGV     -0.014600
     22 N22         1.8260   -0.7930    3.0460 nc        1 LGV     -0.867000
     23 N23        -0.3360   -1.0690    1.8870 nd        1 LGV     -0.480800
     24 N24         5.5730   -0.6840    4.8690 nd        1 LGV     -0.505800
     25 N25         0.2400   -0.6860    0.7500 na        1 LGV      0.187200
     26 N26         3.7350   -0.0160    1.8410 nh        1 LGV     -0.705300
     27 N27         0.3160   -0.8370    5.4340 n4        1 LGV     -0.667800
     28 O28        -1.1930   -2.1270    6.6520 o         1 LGV     -0.428100
     29 F29         1.0110    1.6110   11.3020 f         1 LGV     -0.167200
     30 H1          0.5490    0.0690   -2.4680 ha        1 LGV      0.185000
     31 H3          2.8550    0.3610   -1.0780 ha        1 LGV      0.170000
     32 H5          5.5690    2.0540    2.9390 ha        1 LGV      0.180000
     33 H6          1.6570    0.7660    7.0710 h4        1 LGV      0.033100
     34 H7         -1.3730   -0.7900   -0.7100 h4        1 LGV      0.203000
     35 H16         9.1830    1.1550    5.9570 hc        1 LGV      0.080450
     36 H16A        8.3400   -0.4640    5.8010 hc        1 LGV      0.080450
     37 H17         6.4780    0.3490    7.3740 hc        1 LGV      0.080450
     38 H17A        7.3110    1.9720    7.5320 hc        1 LGV      0.080450
     39 H18         7.1390    2.3550    5.0170 hc        1 LGV      0.093700
     40 H19         0.1340   -2.7050    4.4120 hx        1 LGV      0.131700
     41 H19A       -1.2860   -1.5600    4.2170 hx        1 LGV      0.131700
     42 HN26        4.1050    0.3370    0.9850 hn        1 LGV      0.483800
     43 HN27        0.1600    0.1630    5.2560 hn        1 LGV      0.470800
     44 HN21        4.2900   -1.9020    3.8810 hn        1 LGV      0.328700
     45 H2         -1.5100   -1.4850    9.1100 ha        1 LGV      0.185000
     46 H272        1.3310   -0.9790    5.5490 hn        1 LGV      0.470800
     47 H4         -0.9050   -0.2140   11.2110 ha        1 LGV      0.197000
@<TRIPOS>BOND
     1    1    3 1   
     2    1    7 2   
     3    1   30 1   
     4    2    4 ar  
     5    2    8 ar  
     6    2   45 1   
     7    3    9 2   
     8    3   31 1   
     9    4   12 ar  
    10    4   47 1   
    11    5   10 1   
    12    5   11 2   
    13    5   32 1   
    14    6    8 ar  
    15    6   20 ar  
    16    6   33 1   
    17    7   25 1   
    18    7   34 1   
    19    8   15 1   
    20    9   13 1   
    21    9   25 1   
    22   10   18 1   
    23   10   24 2   
    24   11   21 1   
    25   11   26 1   
    26   12   20 ar  
    27   12   29 1   
    28   13   22 2   
    29   13   26 1   
    30   14   19 1   
    31   14   22 1   
    32   14   23 2   
    33   15   27 1   
    34   15   28 2   
    35   16   17 1   
    36   16   18 1   
    37   16   35 1   
    38   16   36 1   
    39   17   18 1   
    40   17   37 1   
    41   17   38 1   
    42   18   39 1   
    43   19   27 1   
    44   19   40 1   
    45   19   41 1   
    46   21   24 1   
    47   21   44 1   
    48   23   25 1   
    49   26   42 1   
    50   27   43 1   
    51   27   46 1   
@<TRIPOS>SUBSTRUCTURE
     1 LGV         1 TEMP              0 ****  ****    0 ROOT
