@<TRIPOS>MOLECULE
LGV
   46    50     1     0     0
SMALL
bcc


@<TRIPOS>ATOM
      1 C1         -0.9260    4.8200   -0.4520 cc        1 LGV     -0.185000
      2 C2          5.3730   -1.4370   -0.5280 ca        1 LGV     -0.017000
      3 C3         -2.0460    3.9470   -0.5220 cc        1 LGV     -0.144000
      4 C4          6.7040   -1.0380   -0.4760 ca        1 LGV     -0.281300
      5 C5         -4.0440   -1.2520   -0.5840 cc        1 LGV     -0.238300
      6 C6          4.7630    0.7120    0.3940 ca        1 LGV      0.450200
      7 C7          0.2120    4.0640   -0.1000 cd        1 LGV     -0.112100
      8 C8          4.3770   -0.5600   -0.0760 ca        1 LGV     -0.278900
      9 C9         -1.5860    2.6540   -0.2090 cd        1 LGV     -0.273600
     10 C10        -5.1640   -2.0110   -0.0670 cc        1 LGV      0.340600
     11 C11        -4.2880    0.0750   -0.1760 cd        1 LGV      0.076300
     12 C12         6.9940    0.2580    0.0280 ca        1 LGV      0.631500
     13 C13        -2.1920    1.3290   -0.1010 cd        1 LGV      0.747200
     14 C14        -0.0840    0.4940    0.4500 cc        1 LGV      0.612300
     15 C15         2.9540   -0.9830   -0.1490 c         1 LGV      0.675700
     16 C16        -5.1360   -4.3990    0.8930 cx        1 LGV     -0.120900
     17 C17        -4.1850   -4.3750   -0.2650 cx        1 LGV     -0.120900
     18 C18        -5.3730   -3.4470   -0.2520 cx        1 LGV     -0.158000
     19 C19         0.7080   -0.7710    0.8300 c3        1 LGV      0.054700
     20 N20         6.0360    1.1330    0.4550 nb        1 LGV     -0.691000
     21 N21        -5.4860    0.0330    0.6000 na        1 LGV     -0.035600
     22 N22        -1.4480    0.2580    0.2330 nc        1 LGV     -0.759000
     23 N23         0.5630    1.6730    0.3780 nd        1 LGV     -0.556800
     24 N24        -6.0230   -1.1850    0.6010 nd        1 LGV     -0.499800
     25 N25        -0.1770    2.7360    0.0510 na        1 LGV      0.216200
     26 N26        -3.5460    1.2340   -0.4110 nh        1 LGV     -0.704300
     27 N27         2.1290   -0.6290    0.9130 n         1 LGV     -0.541900
     28 O28         2.5380   -1.6960   -1.0830 o         1 LGV     -0.587100
     29 F29         8.2830    0.6690    0.0930 f         1 LGV     -0.215200
     30 H1         -0.9320    5.8910   -0.6390 ha        1 LGV      0.164000
     31 H3         -3.0650    4.2240   -0.7770 ha        1 LGV      0.153000
     32 H4          7.5190   -1.6910   -0.8150 ha        1 LGV      0.166000
     33 H5         -3.1970   -1.6290   -1.1450 ha        1 LGV      0.184000
     34 H6          4.0160    1.4580    0.7270 h4        1 LGV      0.037100
     35 H7          1.2470    4.3770    0.0460 h4        1 LGV      0.188000
     36 H16        -5.8210   -5.2570    1.0130 hc        1 LGV      0.074700
     37 H16A       -4.8080   -3.9940    1.8670 hc        1 LGV      0.074700
     38 H17        -3.1750   -3.9510   -0.1210 hc        1 LGV      0.074700
     39 H17A       -4.1830   -5.2160   -0.9810 hc        1 LGV      0.074700
     40 H18        -6.2160   -3.6630   -0.9420 hc        1 LGV      0.093700
     41 H19         0.3280   -1.0950    1.8430 h1        1 LGV      0.098700
     42 H19A        0.4620   -1.5710    0.0690 h1        1 LGV      0.098700
     43 HN26       -4.0410    2.0990   -0.4630 hn        1 LGV      0.446800
     44 HN27        2.4710    0.0500    1.5550 hn        1 LGV      0.312500
     45 HN21       -6.0530    0.8110    0.8430 hn        1 LGV      0.309700
     46 H2          5.0920   -2.4260   -0.9250 ha        1 LGV      0.169000
@<TRIPOS>BOND
     1    1    3 1   
     2    1    7 2   
     3    1   30 1   
     4    2    4 ar  
     5    2    8 ar  
     6    2   46 1   
     7    3    9 2   
     8    3   31 1   
     9    4   12 ar  
    10    4   32 1   
    11    5   10 1   
    12    5   11 2   
    13    5   33 1   
    14    6    8 ar  
    15    6   20 ar  
    16    6   34 1   
    17    7   25 1   
    18    7   35 1   
    19    8   15 1   
    20    9   13 1   
    21    9   25 1   
    22   10   18 1   
    23   10   24 2   
    24   11   21 1   
    25   11   26 1   
    26   12   20 ar  
    27   12   29 1   
    28   13   22 2   
    29   13   26 1   
    30   14   19 1   
    31   14   22 1   
    32   14   23 2   
    33   15   27 1   
    34   15   28 2   
    35   16   17 1   
    36   16   18 1   
    37   16   36 1   
    38   16   37 1   
    39   17   18 1   
    40   17   38 1   
    41   17   39 1   
    42   18   40 1   
    43   19   27 1   
    44   19   41 1   
    45   19   42 1   
    46   21   24 1   
    47   21   45 1   
    48   23   25 1   
    49   26   43 1   
    50   27   44 1   
@<TRIPOS>SUBSTRUCTURE
     1 LGV         1 TEMP              0 ****  ****    0 ROOT
