@<TRIPOS>MOLECULE
LGV
   48    52     1     0     0
SMALL
bcc


@<TRIPOS>ATOM
      1 C1          0.8920   -0.9060    0.0150 cc        1 LGV     -0.118000
      2 C2         -1.9280    0.4980    9.5760 ca        1 LGV      0.032000
      3 C3          2.1290   -0.2560    0.2770 cc        1 LGV     -0.101000
      4 C4         -3.1370    0.1250   10.1380 ca        1 LGV     -0.270300
      5 C5          6.5150    0.8080    3.2920 cc        1 LGV     -0.174300
      6 C6         -2.6970   -0.4370    7.4710 ca        1 LGV      0.488200
      7 C7          0.1310   -0.9450    1.2030 cd        1 LGV     -0.044100
      8 C8         -1.6790    0.2210    8.2080 ca        1 LGV     -0.376900
      9 C9          2.1370    0.1090    1.6360 cd        1 LGV     -0.283600
     10 C10         7.3200   -0.3870    3.4070 cc        1 LGV      0.390600
     11 C11         5.4360    0.4240    2.4600 cd        1 LGV     -0.161700
     12 C12        -4.0960   -0.5320    9.3120 ca        1 LGV      0.725500
     13 C13         3.0200    0.7790    2.5460 cd        1 LGV      0.599200
     14 C14         1.4650    0.5210    4.2440 cc        1 LGV      0.571300
     15 C15        -0.4000    0.6340    7.6750 c         1 LGV      0.597700
     16 C16         9.7290   -1.2840    3.6240 cx        1 LGV     -0.092900
     17 C17         8.9810   -1.7740    4.8190 cx        1 LGV     -0.092900
     18 C18         8.5650   -0.4770    4.1590 cx        1 LGV     -0.218000
     19 C19         1.1730    0.7870    5.7180 c3        1 LGV      0.085500
     20 N20        -3.8690   -0.8090    7.9830 nb        1 LGV     -0.668000
     21 N21         5.6190   -0.9470    2.1560 na        1 LGV      0.018400
     22 N22         2.7190    1.0010    3.8250 nc        1 LGV     -0.653000
     23 N23         0.5590   -0.1240    3.4840 nd        1 LGV     -0.480800
     24 N24         6.7330   -1.4060    2.6930 nd        1 LGV     -0.417800
     25 N25         0.8660   -0.3290    2.2150 na        1 LGV      0.200200
     26 N26         4.3300    1.2450    2.0190 n4        1 LGV     -0.580100
     27 N27        -0.1610    0.3260    6.1830 n4        1 LGV     -0.682800
     28 O28         0.5290    1.1970    8.2340 o         1 LGV     -0.422100
     29 F29        -5.2760   -0.9070    9.8250 f         1 LGV     -0.150200
     30 H1          0.5690   -1.3120   -0.9480 ha        1 LGV      0.215000
     31 H3          2.9150   -0.0750   -0.4570 ha        1 LGV      0.184000
     32 H5          6.7160    1.7760    3.7460 ha        1 LGV      0.200000
     33 H6         -2.5910   -0.6950    6.3990 h4        1 LGV      0.021100
     34 H7         -0.8670   -1.3640    1.3840 h4        1 LGV      0.226000
     35 H16         9.6190   -1.8160    2.6620 hc        1 LGV      0.092450
     36 H16A       10.7460   -0.8680    3.7510 hc        1 LGV      0.092450
     37 H17         8.3310   -2.6630    4.7210 hc        1 LGV      0.092450
     38 H17A        9.4530   -1.7160    5.8170 hc        1 LGV      0.092450
     39 H18         8.7910    0.4720    4.6900 hc        1 LGV      0.104700
     40 H19         1.2490    1.9010    5.9120 hx        1 LGV      0.149700
     41 H19A        1.9640    0.2710    6.3450 hx        1 LGV      0.149700
     42 HN26        4.5190    2.2090    2.3500 hn        1 LGV      0.490300
     43 HN27       -0.2500   -0.6890    6.0490 hn        1 LGV      0.465800
     44 HN21        5.0880   -1.5120    1.5290 hn        1 LGV      0.348700
     45 H2         -1.1600    1.0100   10.1850 ha        1 LGV      0.189000
     46 H262        4.2770    1.2460    0.9870 hn        1 LGV      0.490300
     47 H272       -0.9020    0.7850    5.6400 hn        1 LGV      0.465800
     48 H4         -3.3700    0.3220   11.1980 ha        1 LGV      0.208000
@<TRIPOS>BOND
     1    1    3 1   
     2    1    7 2   
     3    1   30 1   
     4    2    4 ar  
     5    2    8 ar  
     6    2   45 1   
     7    3    9 2   
     8    3   31 1   
     9    4   12 ar  
    10    4   48 1   
    11    5   10 1   
    12    5   11 2   
    13    5   32 1   
    14    6    8 ar  
    15    6   20 ar  
    16    6   33 1   
    17    7   25 1   
    18    7   34 1   
    19    8   15 1   
    20    9   13 1   
    21    9   25 1   
    22   10   18 1   
    23   10   24 2   
    24   11   21 1   
    25   11   26 1   
    26   12   20 ar  
    27   12   29 1   
    28   13   22 2   
    29   13   26 1   
    30   14   19 1   
    31   14   22 1   
    32   14   23 2   
    33   15   27 1   
    34   15   28 2   
    35   16   17 1   
    36   16   18 1   
    37   16   35 1   
    38   16   36 1   
    39   17   18 1   
    40   17   37 1   
    41   17   38 1   
    42   18   39 1   
    43   19   27 1   
    44   19   40 1   
    45   19   41 1   
    46   21   24 1   
    47   21   44 1   
    48   23   25 1   
    49   26   42 1   
    50   26   46 1   
    51   27   43 1   
    52   27   47 1   
@<TRIPOS>SUBSTRUCTURE
     1 LGV         1 TEMP              0 ****  ****    0 ROOT
