@<TRIPOS>MOLECULE
LGV
   46    37     1     0     0
SMALL
bcc


@<TRIPOS>ATOM
      1 C1         -2.8430   -0.1810   -2.9100 c1        1 LGV     -0.186000
      2 C2         -4.5810   -0.5910    4.3610 c1        1 LGV     -0.041000
      3 C3         -1.4850   -0.1550   -2.9570 c1        1 LGV     -0.130000
      4 C4         -5.7830   -0.6200    5.0140 c1        1 LGV     -0.219000
      5 C5          3.2330    0.4680   -2.5520 c1        1 LGV     -0.211000
      6 C6         -3.6120    0.5540    6.2210 c1        1 LGV      0.012000
      7 C7         -3.2230   -0.1410   -1.5860 c1        1 LGV     -0.085000
      8 C8         -3.4930   -0.0080    4.9550 c1        1 LGV     -0.195000
      9 C9         -1.0070   -0.0970   -1.6390 c1        1 LGV     -0.181000
     10 C10         4.0960    0.1480   -3.5650 c1        1 LGV     -0.034000
     11 C11         1.9790    0.0760   -2.9260 c1        1 LGV     -0.034000
     12 C12        -5.8990   -0.0570    6.2800 c1        1 LGV      0.166000
     13 C13         0.2800   -0.0520   -1.1160 c1        1 LGV      0.198000
     14 C14        -0.6170    0.0080    1.0580 c1        1 LGV     -0.013000
     15 C15        -2.0380    0.1660    4.5140 c2        1 LGV      0.349000
     16 C16         7.0370    1.1170   -4.4030 cx        1 LGV     -0.195500
     17 C17         6.5730   -0.0300   -4.7350 cx        1 LGV     -0.195500
     18 C18         6.2990    0.3730   -3.5150 cu        1 LGV     -0.110000
     19 C19        -0.5020    0.2720    2.5650 c2        1 LGV      0.034000
     20 N20        -4.8140    0.5250    6.8730 n1        1 LGV     -0.162000
     21 N21         2.0650   -0.4800   -4.1570 n2        1 LGV     -0.120500
     22 N22         0.4630   -0.0010    0.2180 n1        1 LGV     -0.241000
     23 N23        -1.8820   -0.0360    0.5460 n2        1 LGV     -0.114000
     24 N24         3.3800   -0.4350   -4.5530 n2        1 LGV     -0.120500
     25 N25        -2.0710   -0.0890   -0.8100 n2        1 LGV     -0.015000
     26 N26         1.5090   -0.5040   -1.6980 n2        1 LGV     -0.198000
     27 N27        -1.6090   -0.3410    3.2450 n         1 LGV     -0.353000
     28 O28        -1.2360    0.7000    5.2600 o         1 LGV     -0.347000
     29 F29        -6.8750    0.0050    7.2000 f         1 LGV     -0.074000
     30 H1         -3.4460   -0.2440   -3.6810 DU        1 LGV      0.194400
     31 H2         -4.4980   -0.9880    3.4670 ha        1 LGV      0.151000
     32 H3         -0.9370   -0.1730   -3.7680 DU        1 LGV      0.194400
     33 H4         -6.5630   -1.0370    4.5890 ha        1 LGV      0.164000
     34 H5          3.4730    0.9030   -1.7060 DU        1 LGV      0.194400
     35 H6         -2.8340    0.9710    6.6470 ha        1 LGV      0.192000
     36 H7         -4.1430   -0.1480   -1.2510 DU        1 LGV      0.194400
     37 H16         8.0030    1.1530   -4.2310 hc        1 LGV      0.116000
     38 H16A        6.5780    1.8940   -4.7950 hc        1 LGV      0.116000
     39 H17         7.2370   -0.7520   -4.8020 hc        1 LGV      0.116000
     40 H17A        5.8180   -0.0140   -5.3640 hc        1 LGV      0.116000
     41 H18         6.7910   -0.1970   -2.8840 ha        1 LGV      0.126000
     42 H19         0.3400   -0.1090    2.9010 h4        1 LGV      0.138000
     43 H19A       -0.5120    1.2400    2.7290 h4        1 LGV      0.138000
     44 HN26        1.9860   -1.1770   -1.2960 hn        1 LGV      0.243000
     45 HN27       -2.0030   -1.0900    2.8940 hn        1 LGV      0.225000
     46 HN21        1.3680   -0.8260   -4.6410 DU        1 LGV      0.194400
@<TRIPOS>BOND
     1    1    3 1   
     2    1    7 1   
     3    2    8 1   
     4    2   31 1   
     5    3    9 1   
     6    4   12 1   
     7    4   33 1   
     8    5   10 1   
     9    5   11 1   
    10    6   20 1   
    11    6   35 1   
    12    7   25 1   
    13    8   15 1   
    14    9   13 1   
    15   10   24 1   
    16   11   21 1   
    17   12   29 1   
    18   13   26 1   
    19   14   22 1   
    20   14   23 1   
    21   15   27 1   
    22   15   28 1   
    23   16   17 1   
    24   16   18 1   
    25   16   37 1   
    26   16   38 1   
    27   17   18 1   
    28   17   39 1   
    29   17   40 1   
    30   18   41 1   
    31   19   27 1   
    32   19   42 1   
    33   19   43 1   
    34   21   24 1   
    35   23   25 1   
    36   26   44 1   
    37   27   45 1   
@<TRIPOS>SUBSTRUCTURE
     1 LGV         1 TEMP              0 ****  ****    0 ROOT
