@<TRIPOS>MOLECULE
LGV
   47    51     1     0     0
SMALL
bcc


@<TRIPOS>ATOM
      1 C1          0.6570   -0.2500   -1.3940 cc        1 LGV     -0.171000
      2 C2         -0.6740   -0.6870    9.1310 ca        1 LGV      0.023000
      3 C3          1.8720   -0.0680   -0.6710 cc        1 LGV     -0.101000
      4 C4         -0.3520    0.0300   10.2730 ca        1 LGV     -0.275300
      5 C5          5.3870    1.0980    3.3640 cc        1 LGV     -0.274300
      6 C6          1.0460    0.5490    7.9490 ca        1 LGV      0.484200
      7 C7         -0.3390   -0.6860   -0.5000 cd        1 LGV     -0.073100
      8 C8          0.0260   -0.4330    7.9290 ca        1 LGV     -0.363900
      9 C9          1.6160   -0.3950    0.6700 cd        1 LGV     -0.283600
     10 C10         6.0240    0.6190    4.5730 cc        1 LGV      0.361600
     11 C11         4.5510    0.0350    2.9560 cd        1 LGV      0.071300
     12 C12         0.6860    1.0020   10.1880 ca        1 LGV      0.704500
     13 C13         2.3980   -0.4280    1.8990 cd        1 LGV      0.789200
     14 C14         0.4750   -1.1730    2.9910 cc        1 LGV      0.561300
     15 C15        -0.3510   -1.2150    6.7620 c         1 LGV      0.581700
     16 C16         8.2150    0.7100    5.9290 cx        1 LGV     -0.110400
     17 C17         7.1280    1.1870    6.8400 cx        1 LGV     -0.110400
     18 C18         6.9930    1.3850    5.3490 cx        1 LGV     -0.179000
     19 C19        -0.1430   -1.6620    4.2960 c3        1 LGV      0.097500
     20 N20         1.3790    1.2560    9.0310 nb        1 LGV     -0.671000
     21 N21         4.7200   -0.9920    3.9150 na        1 LGV     -0.014600
     22 N22         1.8260   -0.8300    3.0620 nc        1 LGV     -0.867000
     23 N23        -0.3380   -1.1510    1.9190 nd        1 LGV     -0.480800
     24 N24         5.5800   -0.6440    4.8650 nd        1 LGV     -0.505800
     25 N25         0.2280   -0.7820    0.7720 na        1 LGV      0.187200
     26 N26         3.7200   -0.0530    1.8340 nu        1 LGV     -0.705300
     27 N27         0.3280   -0.8470    5.4580 ny        1 LGV     -0.667800
     28 O28        -1.1590   -2.1340    6.7070 o         1 LGV     -0.428100
     29 F29         1.0200    1.7160   11.2770 f         1 LGV     -0.167200
     30 H1          0.5140   -0.0830   -2.4610 ha        1 LGV      0.185000
     31 H3          2.8220    0.2600   -1.0870 ha        1 LGV      0.170000
     32 H5          5.5360    2.0580    2.8850 ha        1 LGV      0.180000
     33 H6          1.6560    0.8020    7.0590 h4        1 LGV      0.033100
     34 H7         -1.3900   -0.9320   -0.6780 h4        1 LGV      0.203000
     35 H16         8.3500   -0.3760    5.7760 hc        1 LGV      0.080450
     36 H16A        9.1750    1.2560    5.8990 hc        1 LGV      0.080450
     37 H17         7.3030    2.0780    7.4700 hc        1 LGV      0.080450
     38 H17A        6.4880    0.4420    7.3460 hc        1 LGV      0.080450
     39 H18         7.1110    2.4140    4.9500 hc        1 LGV      0.093700
     40 H19        -1.2720   -1.6100    4.2620 hx        1 LGV      0.131700
     41 H19A        0.1620   -2.7350    4.4700 hx        1 LGV      0.131700
     42 HN26        4.0820    0.2880    0.9700 hn        1 LGV      0.483800
     43 HN27        0.1590    0.1470    5.2630 hn        1 LGV      0.470800
     44 HN21        4.3070   -1.8950    3.9060 hn        1 LGV      0.328700
     45 H2         -1.4720   -1.4520    9.1540 ha        1 LGV      0.185000
     46 H272        1.3450   -0.9750    5.5700 hn        1 LGV      0.470800
     47 H4         -0.8730   -0.1360   11.2290 ha        1 LGV      0.197000
@<TRIPOS>BOND
     1    1    3 1   
     2    1    7 2   
     3    1   30 1   
     4    2    4 ar  
     5    2    8 ar  
     6    2   45 1   
     7    3    9 2   
     8    3   31 1   
     9    4   12 ar  
    10    4   47 1   
    11    5   10 1   
    12    5   11 2   
    13    5   32 1   
    14    6    8 ar  
    15    6   20 ar  
    16    6   33 1   
    17    7   25 1   
    18    7   34 1   
    19    8   15 1   
    20    9   13 1   
    21    9   25 1   
    22   10   18 1   
    23   10   24 2   
    24   11   21 1   
    25   11   26 1   
    26   12   20 ar  
    27   12   29 1   
    28   13   22 2   
    29   13   26 1   
    30   14   19 1   
    31   14   22 1   
    32   14   23 2   
    33   15   27 1   
    34   15   28 2   
    35   16   17 1   
    36   16   18 1   
    37   16   35 1   
    38   16   36 1   
    39   17   18 1   
    40   17   37 1   
    41   17   38 1   
    42   18   39 1   
    43   19   27 1   
    44   19   40 1   
    45   19   41 1   
    46   21   24 1   
    47   21   44 1   
    48   23   25 1   
    49   26   42 1   
    50   27   43 1   
    51   27   46 1   
@<TRIPOS>SUBSTRUCTURE
     1 LGV         1 TEMP              0 ****  ****    0 ROOT
