@<TRIPOS>MOLECULE
LGW
   54    59     1     0     0
SMALL
bcc


@<TRIPOS>ATOM
      1 N1          0.3940    0.7040   -0.7010 na        1 LGW      0.202200
      2 C2          1.6180   -0.0710   -0.8390 cc        1 LGW     -0.269600
      3 C3          2.4020    0.1540    0.3050 cd        1 LGW     -0.123000
      4 C4          1.6820    1.0480    1.1430 cd        1 LGW     -0.149000
      5 C5          0.4590    1.3750    0.5180 cc        1 LGW     -0.072100
      6 N6         -0.5700    0.6960   -1.6140 nc        1 LGW     -0.432800
      7 C7         -0.3700   -0.0470   -2.7180 cd        1 LGW      0.607300
      8 N8          0.7740   -0.8220   -2.9970 nd        1 LGW     -0.642000
      9 C9          1.7090   -0.8300   -2.0560 cc        1 LGW      0.573200
     10 N10         2.9110   -1.6850   -2.2450 n4        1 LGW     -0.690400
     11 C11         3.9450   -1.0120   -3.0060 cc        1 LGW      0.315200
     12 C12         4.0450   -0.9880   -4.4480 cc        1 LGW     -0.236300
     13 C13         5.2040   -0.2260   -4.6970 cd        1 LGW     -0.011600
     14 N14         5.7050    0.1490   -3.4360 na        1 LGW      0.034400
     15 N15         4.9830   -0.2950   -2.4300 nd        1 LGW     -0.457800
     16 C16         5.8030    0.1260   -5.9760 cx        1 LGW     -0.106400
     17 C17         6.4870    1.4600   -6.1730 cx        1 LGW     -0.108400
     18 C18         7.3040    0.2090   -6.1340 cx        1 LGW     -0.108400
     19 C19        -1.5000   -0.1510   -3.7650 c3        1 LGW      0.080400
     20 N20        -2.6780   -0.7750   -3.1810 n         1 LGW     -0.470800
     21 C21        -3.8120    0.1340   -3.1870 c3        1 LGW      0.086000
     22 C22        -3.3990    1.3950   -3.9630 c3        1 LGW     -0.093400
     23 C23        -1.9170    1.2390   -4.2930 c3        1 LGW     -0.085400
     24 C24        -2.7790   -2.1620   -3.1270 c         1 LGW      0.690700
     25 O25        -1.7760   -2.8570   -3.3890 o         1 LGW     -0.603100
     26 C26        -4.0630   -2.7790   -2.7160 ca        1 LGW     -0.289900
     27 C27        -4.5250   -3.9100   -3.4050 ca        1 LGW     -0.018000
     28 C28        -5.7100   -4.5150   -2.9980 ca        1 LGW     -0.277300
     29 C29        -6.3950   -3.9630   -1.8820 ca        1 LGW      0.645500
     30 N30        -5.9470   -2.8740   -1.1870 nb        1 LGW     -0.685000
     31 C31        -4.8070   -2.3120   -1.6130 ca        1 LGW      0.457200
     32 F32        -7.5490   -4.5320   -1.4670 f         1 LGW     -0.202200
     33 H3          3.3860   -0.2630    0.5110 ha        1 LGW      0.170000
     34 H4          2.0100    1.4280    2.1110 ha        1 LGW      0.189000
     35 H5         -0.3530    2.0270    0.8560 h4        1 LGW      0.212000
     36 HN10        3.2610   -1.9400   -1.3090 hn        1 LGW      0.484300
     37 H12         3.3760   -1.4450   -5.1720 ha        1 LGW      0.200000
     38 H16         5.2120   -0.2860   -6.8220 hc        1 LGW      0.118700
     39 H17         6.5430    2.1740   -5.3320 hc        1 LGW      0.088450
     40 H17A        6.3380    1.9810   -7.1380 hc        1 LGW      0.088450
     41 H18         7.9550    0.0110   -5.2640 hc        1 LGW      0.088450
     42 H18A        7.7490   -0.1780   -7.0700 hc        1 LGW      0.088450
     43 H19        -1.1140   -0.7950   -4.6130 h1        1 LGW      0.103700
     44 H21        -4.0690    0.4020   -2.1240 h1        1 LGW      0.060700
     45 H21A       -4.7090   -0.3570   -3.6540 h1        1 LGW      0.060700
     46 H22        -4.0060    1.4930   -4.8970 hc        1 LGW      0.068200
     47 H22A       -3.5770    2.3060   -3.3410 hc        1 LGW      0.068200
     48 H23        -1.7500    1.2750   -5.3990 hc        1 LGW      0.067700
     49 H23A       -1.3150    2.0570   -3.8330 hc        1 LGW      0.067700
     50 H27        -3.9490   -4.3140   -4.2530 ha        1 LGW      0.164000
     51 H28        -6.1150   -5.3990   -3.5100 ha        1 LGW      0.174000
     52 H31        -4.4680   -1.4430   -1.0180 h4        1 LGW      0.036100
     53 HN14        6.5250    0.6960   -3.2590 hn        1 LGW      0.355700
     54 H102        2.6520   -2.5410   -2.7650 hn        1 LGW      0.484300
@<TRIPOS>BOND
     1    1    2 1   
     2    1    5 1   
     3    1    6 1   
     4    2    3 2   
     5    2    9 1   
     6    3    4 1   
     7    3   33 1   
     8    4    5 2   
     9    4   34 1   
    10    5   35 1   
    11    6    7 2   
    12    7    8 1   
    13    7   19 1   
    14    8    9 2   
    15    9   10 1   
    16   10   11 1   
    17   10   36 1   
    18   10   54 1   
    19   11   12 1   
    20   11   15 2   
    21   12   13 2   
    22   12   37 1   
    23   13   14 1   
    24   13   16 1   
    25   14   15 1   
    26   14   53 1   
    27   16   17 1   
    28   16   18 1   
    29   16   38 1   
    30   17   18 1   
    31   17   39 1   
    32   17   40 1   
    33   18   41 1   
    34   18   42 1   
    35   19   20 1   
    36   19   23 1   
    37   19   43 1   
    38   20   21 1   
    39   20   24 1   
    40   21   22 1   
    41   21   44 1   
    42   21   45 1   
    43   22   23 1   
    44   22   46 1   
    45   22   47 1   
    46   23   48 1   
    47   23   49 1   
    48   24   25 2   
    49   24   26 1   
    50   26   27 ar  
    51   26   31 ar  
    52   27   28 ar  
    53   27   50 1   
    54   28   29 ar  
    55   28   51 1   
    56   29   30 ar  
    57   29   32 1   
    58   30   31 ar  
    59   31   52 1   
@<TRIPOS>SUBSTRUCTURE
     1 LGW         1 TEMP              0 ****  ****    0 ROOT
