@<TRIPOS>MOLECULE
LGW
   53    58     1     0     0
SMALL
bcc


@<TRIPOS>ATOM
      1 N1          0.0370    0.3700    0.0290 na        1 LGW      0.210200
      2 C2          1.4610    0.5000   -0.0890 cc        1 LGW     -0.269600
      3 C3          1.9850    0.7260    1.1970 cd        1 LGW     -0.144000
      4 C4          0.8890    0.7310    2.1040 cd        1 LGW     -0.189000
      5 C5         -0.2970    0.5100    1.3740 cc        1 LGW     -0.117100
      6 N6         -0.7620    0.1400   -1.0180 nc        1 LGW     -0.525800
      7 C7         -0.1540    0.0280   -2.2130 cd        1 LGW      0.627300
      8 N8          1.2160    0.1380   -2.4870 nd        1 LGW     -0.763000
      9 C9          2.0190    0.3780   -1.4340 cc        1 LGW      0.735200
     10 N10         3.3930    0.6010   -1.5560 nh        1 LGW     -0.785600
     11 C11         4.0960    0.2550   -2.7220 cc        1 LGW      0.505200
     12 C12         3.7460    0.6290   -4.0820 cc        1 LGW     -0.246300
     13 C13         4.7920    0.1200   -4.8720 cd        1 LGW     -0.069600
     14 N14         5.6870   -0.5000   -3.9880 na        1 LGW     -0.005600
     15 N15         5.2940   -0.4440   -2.7220 nd        1 LGW     -0.545800
     16 C16         4.9610    0.2000   -6.3160 cx        1 LGW     -0.061400
     17 C17         6.3310    0.3540   -6.9320 cx        1 LGW     -0.126900
     18 C18         5.5860   -0.9360   -7.0890 cx        1 LGW     -0.126900
     19 C19        -1.0200   -0.2220   -3.4660 c3        1 LGW      0.076400
     20 N20        -2.2590   -0.9380   -3.1940 n         1 LGW     -0.458800
     21 C21        -3.4000   -0.0430   -3.2610 c3        1 LGW      0.089000
     22 C22        -2.9270    1.2640   -3.9220 c3        1 LGW     -0.094400
     23 C23        -1.4140    1.1480   -4.0720 c3        1 LGW     -0.085400
     24 C24        -2.3440   -2.3130   -3.3440 c         1 LGW      0.684700
     25 O25        -1.3340   -2.9870   -3.6300 o         1 LGW     -0.588100
     26 C26        -3.6590   -2.9740   -3.1270 ca        1 LGW     -0.271900
     27 C27        -4.0460   -4.0150   -3.9810 ca        1 LGW     -0.024000
     28 C28        -5.2580   -4.6620   -3.7570 ca        1 LGW     -0.282300
     29 C29        -6.0450   -4.2410   -2.6530 ca        1 LGW      0.627500
     30 N30        -5.6740   -3.2430   -1.7980 nb        1 LGW     -0.692000
     31 C31        -4.5020   -2.6390   -2.0480 ca        1 LGW      0.455200
     32 F32        -7.2310   -4.8520   -2.4160 f         1 LGW     -0.217200
     33 H3          3.0310    0.8730    1.4490 ha        1 LGW      0.156000
     34 H4          0.9440    0.8800    3.1790 ha        1 LGW      0.161000
     35 H5         -1.3320    0.4440    1.7140 h4        1 LGW      0.185000
     36 HN10        3.9000    0.4830   -0.7000 hn        1 LGW      0.444800
     37 H12         2.8620    1.1650   -4.4070 ha        1 LGW      0.182000
     38 H16         4.1150    0.7450   -6.7880 hc        1 LGW      0.101700
     39 H17         6.4410    1.0240   -7.8040 hc        1 LGW      0.075450
     40 H17A        7.2180    0.3900   -6.2760 hc        1 LGW      0.075450
     41 H18         5.1590   -1.1970   -8.0740 hc        1 LGW      0.075450
     42 H18A        5.9340   -1.8320   -6.5460 hc        1 LGW      0.075450
     43 H19        -0.3970   -0.8280   -4.1900 h1        1 LGW      0.111700
     44 H21        -3.7640    0.1650   -2.2160 h1        1 LGW      0.052200
     45 H21A       -4.2400   -0.5120   -3.8410 h1        1 LGW      0.052200
     46 H22        -3.2030    2.1380   -3.2830 hc        1 LGW      0.055700
     47 H22A       -3.4180    1.3970   -4.9170 hc        1 LGW      0.055700
     48 H23        -1.1140    1.1760   -5.1480 hc        1 LGW      0.062700
     49 H23A       -0.8900    1.9830   -3.5480 hc        1 LGW      0.062700
     50 H27        -3.3880   -4.3200   -4.8110 ha        1 LGW      0.164000
     51 H28        -5.6060   -5.4800   -4.4010 ha        1 LGW      0.164000
     52 H31        -4.2200   -1.8460   -1.3280 h4        1 LGW      0.045100
     53 HN14        6.5340   -0.9610   -4.2260 hn        1 LGW      0.322700
@<TRIPOS>BOND
     1    1    2 1   
     2    1    5 1   
     3    1    6 1   
     4    2    3 2   
     5    2    9 1   
     6    3    4 1   
     7    3   33 1   
     8    4    5 2   
     9    4   34 1   
    10    5   35 1   
    11    6    7 2   
    12    7    8 1   
    13    7   19 1   
    14    8    9 2   
    15    9   10 1   
    16   10   11 1   
    17   10   36 1   
    18   11   12 1   
    19   11   15 2   
    20   12   13 2   
    21   12   37 1   
    22   13   14 1   
    23   13   16 1   
    24   14   15 1   
    25   14   53 1   
    26   16   17 1   
    27   16   18 1   
    28   16   38 1   
    29   17   18 1   
    30   17   39 1   
    31   17   40 1   
    32   18   41 1   
    33   18   42 1   
    34   19   20 1   
    35   19   23 1   
    36   19   43 1   
    37   20   21 1   
    38   20   24 1   
    39   21   22 1   
    40   21   44 1   
    41   21   45 1   
    42   22   23 1   
    43   22   46 1   
    44   22   47 1   
    45   23   48 1   
    46   23   49 1   
    47   24   25 2   
    48   24   26 1   
    49   26   27 ar  
    50   26   31 ar  
    51   27   28 ar  
    52   27   50 1   
    53   28   29 ar  
    54   28   51 1   
    55   29   30 ar  
    56   29   32 1   
    57   30   31 ar  
    58   31   52 1   
@<TRIPOS>SUBSTRUCTURE
     1 LGW         1 TEMP              0 ****  ****    0 ROOT
