@<TRIPOS>MOLECULE
LGW
   53    58     1     0     0
SMALL
bcc


@<TRIPOS>ATOM
      1 N1          0.0690   -2.9430    0.7340 na        1 LGW      0.210200
      2 C2          1.4640   -2.9780    0.4040 cc        1 LGW     -0.269600
      3 C3          1.8440   -4.3250    0.2610 cd        1 LGW     -0.144000
      4 C4          0.6870   -5.1160    0.4980 cd        1 LGW     -0.189000
      5 C5         -0.3940   -4.2560    0.7850 cc        1 LGW     -0.117100
      6 N6         -0.6050   -1.8050    0.9300 nc        1 LGW     -0.525800
      7 C7          0.1020   -0.6680    0.7950 cd        1 LGW      0.627300
      8 N8          1.4630   -0.5410    0.4850 nd        1 LGW     -0.763000
      9 C9          2.1430   -1.6870    0.2970 cc        1 LGW      0.735200
     10 N10         3.5210   -1.7300    0.0710 nh        1 LGW     -0.785600
     11 C11         4.2400   -0.5880   -0.3190 cc        1 LGW      0.505200
     12 C12         4.2200    0.7090    0.3360 cc        1 LGW     -0.246300
     13 C13         5.1580    1.4810   -0.3710 cd        1 LGW     -0.069600
     14 N14         5.6810    0.6460   -1.3700 na        1 LGW     -0.005600
     15 N15         5.1490   -0.5690   -1.3660 nd        1 LGW     -0.545800
     16 C16         5.5460    2.8660   -0.1490 cx        1 LGW     -0.061400
     17 C17         6.9690    3.3210   -0.3710 cx        1 LGW     -0.126900
     18 C18         5.8900    3.7720   -1.3060 cx        1 LGW     -0.126900
     19 C19        -0.6120    0.6810    1.0240 c3        1 LGW      0.076400
     20 N20        -2.0350    0.6550    0.7150 n         1 LGW     -0.458800
     21 C21        -2.8290    0.6560    1.9310 c3        1 LGW      0.089000
     22 C22        -1.8930    1.0230    3.0960 c3        1 LGW     -0.094400
     23 C23        -0.4810    1.0580    2.5200 c3        1 LGW     -0.085400
     24 C24        -2.5120    1.0650   -0.5210 c         1 LGW      0.684700
     25 O25        -1.7240    1.3810   -1.4350 o         1 LGW     -0.588100
     26 C26        -3.9820    1.0910   -0.7450 ca        1 LGW     -0.271900
     27 C27        -4.5420    2.1520   -1.4670 ca        1 LGW     -0.024000
     28 C28        -5.9120    2.1590   -1.7120 ca        1 LGW     -0.282300
     29 C29        -6.6830    1.0710   -1.2270 ca        1 LGW      0.627500
     30 N30        -6.1510    0.0160   -0.5400 nb        1 LGW     -0.692000
     31 C31        -4.8280    0.0470   -0.3170 ca        1 LGW      0.455200
     32 F32        -8.0190    1.0550   -1.4500 f         1 LGW     -0.217200
     33 H3          2.8380   -4.6910    0.0180 ha        1 LGW      0.156000
     34 H4          0.6310   -6.2010    0.4660 ha        1 LGW      0.161000
     35 H5         -1.4350   -4.4850    1.0150 h4        1 LGW      0.185000
     36 HN10        3.8400   -2.5930   -0.3270 hn        1 LGW      0.444800
     37 H12         3.6020    1.0090    1.1740 ha        1 LGW      0.182000
     38 H16         4.9880    3.3060    0.7050 hc        1 LGW      0.101700
     39 H17         7.4040    4.0450    0.3410 hc        1 LGW      0.075450
     40 H17A        7.7210    2.5930   -0.7220 hc        1 LGW      0.075450
     41 H18         5.8620    3.3700   -2.3350 hc        1 LGW      0.075450
     42 H18A        5.5470    4.8220   -1.2700 hc        1 LGW      0.075450
     43 H19        -0.1060    1.4470    0.3610 h1        1 LGW      0.111700
     44 H21        -3.6810    1.3840    1.8490 h1        1 LGW      0.052200
     45 H21A       -3.2560   -0.3730    2.0900 h1        1 LGW      0.052200
     46 H22        -2.1740    2.0160    3.5240 hc        1 LGW      0.055700
     47 H22A       -1.9770    0.2610    3.9090 hc        1 LGW      0.055700
     48 H23         0.1930    0.3470    3.0550 hc        1 LGW      0.062700
     49 H23A       -0.0380    2.0810    2.6060 hc        1 LGW      0.062700
     50 H27        -3.8970    2.9630   -1.8430 ha        1 LGW      0.164000
     51 H28        -6.3960    2.9710   -2.2710 ha        1 LGW      0.164000
     52 H31        -4.4230   -0.8290    0.2270 h4        1 LGW      0.045100
     53 HN14        6.3670    0.8870   -2.0460 hn        1 LGW      0.322700
@<TRIPOS>BOND
     1    1    2 1   
     2    1    5 1   
     3    1    6 1   
     4    2    3 2   
     5    2    9 1   
     6    3    4 1   
     7    3   33 1   
     8    4    5 2   
     9    4   34 1   
    10    5   35 1   
    11    6    7 2   
    12    7    8 1   
    13    7   19 1   
    14    8    9 2   
    15    9   10 1   
    16   10   11 1   
    17   10   36 1   
    18   11   12 1   
    19   11   15 2   
    20   12   13 2   
    21   12   37 1   
    22   13   14 1   
    23   13   16 1   
    24   14   15 1   
    25   14   53 1   
    26   16   17 1   
    27   16   18 1   
    28   16   38 1   
    29   17   18 1   
    30   17   39 1   
    31   17   40 1   
    32   18   41 1   
    33   18   42 1   
    34   19   20 1   
    35   19   23 1   
    36   19   43 1   
    37   20   21 1   
    38   20   24 1   
    39   21   22 1   
    40   21   44 1   
    41   21   45 1   
    42   22   23 1   
    43   22   46 1   
    44   22   47 1   
    45   23   48 1   
    46   23   49 1   
    47   24   25 2   
    48   24   26 1   
    49   26   27 ar  
    50   26   31 ar  
    51   27   28 ar  
    52   27   50 1   
    53   28   29 ar  
    54   28   51 1   
    55   29   30 ar  
    56   29   32 1   
    57   30   31 ar  
    58   31   52 1   
@<TRIPOS>SUBSTRUCTURE
     1 LGW         1 TEMP              0 ****  ****    0 ROOT
