@<TRIPOS>MOLECULE
LGW
   53    58     1     0     0
SMALL
bcc


@<TRIPOS>ATOM
      1 N1          0.0250    0.3960    0.0230 na        1 LGW      0.210200
      2 C2          1.4490    0.5310   -0.0930 cc        1 LGW     -0.269600
      3 C3          1.9700    0.7680    1.1920 cd        1 LGW     -0.144000
      4 C4          0.8720    0.7760    2.0970 cd        1 LGW     -0.189000
      5 C5         -0.3120    0.5440    1.3660 cc        1 LGW     -0.117100
      6 N6         -0.7710    0.1550   -1.0240 nc        1 LGW     -0.525800
      7 C7         -0.1610    0.0380   -2.2170 cd        1 LGW      0.627300
      8 N8          1.2100    0.1510   -2.4890 nd        1 LGW     -0.763000
      9 C9          2.0100    0.4020   -1.4370 cc        1 LGW      0.735200
     10 N10         3.3830    0.6300   -1.5580 nu        1 LGW     -0.785600
     11 C11         4.0890    0.2780   -2.7200 cc        1 LGW      0.505200
     12 C12         3.7410    0.6400   -4.0840 cc        1 LGW     -0.246300
     13 C13         4.7900    0.1300   -4.8670 cd        1 LGW     -0.069600
     14 N14         5.6860   -0.4810   -3.9770 na        1 LGW     -0.005600
     15 N15         5.2900   -0.4160   -2.7130 nd        1 LGW     -0.545800
     16 C16         4.9610    0.2000   -6.3120 cx        1 LGW     -0.061400
     17 C17         6.3310    0.3530   -6.9270 cx        1 LGW     -0.126900
     18 C18         5.5910   -0.9400   -7.0750 cx        1 LGW     -0.126900
     19 C19        -1.0230   -0.2240   -3.4700 c3        1 LGW      0.076400
     20 N20        -2.2560   -0.9500   -3.1950 n         1 LGW     -0.458800
     21 C21        -3.4050   -0.0650   -3.2650 c3        1 LGW      0.089000
     22 C22        -2.9430    1.2440   -3.9310 c3        1 LGW     -0.094400
     23 C23        -1.4290    1.1400   -4.0800 c3        1 LGW     -0.085400
     24 C24        -2.3300   -2.3260   -3.3430 c         1 LGW      0.684700
     25 O25        -1.3140   -2.9920   -3.6280 o         1 LGW     -0.588100
     26 C26        -3.6390   -2.9970   -3.1250 ca        1 LGW     -0.271900
     27 C27        -4.0180   -4.0440   -3.9760 ca        1 LGW     -0.024000
     28 C28        -5.2240   -4.7000   -3.7510 ca        1 LGW     -0.282300
     29 C29        -6.0150   -4.2840   -2.6480 ca        1 LGW      0.627500
     30 N30        -5.6520   -3.2800   -1.7950 nb        1 LGW     -0.692000
     31 C31        -4.4860   -2.6660   -2.0470 ca        1 LGW      0.455200
     32 F32        -7.1950   -4.9040   -2.4090 f         1 LGW     -0.217200
     33 H3          3.0150    0.9210    1.4450 ha        1 LGW      0.156000
     34 H4          0.9240    0.9310    3.1710 ha        1 LGW      0.161000
     35 H5         -1.3470    0.4760    1.7050 h4        1 LGW      0.185000
     36 HN10        3.8890    0.5210   -0.7000 hn        1 LGW      0.444800
     37 H12         2.8560    1.1710   -4.4140 ha        1 LGW      0.182000
     38 H16         4.1140    0.7380   -6.7890 hc        1 LGW      0.101700
     39 H17         6.4410    1.0170   -7.8030 hc        1 LGW      0.075450
     40 H17A        7.2180    0.3970   -6.2690 hc        1 LGW      0.075450
     41 H18         5.1660   -1.2100   -8.0590 hc        1 LGW      0.075450
     42 H18A        5.9420   -1.8310   -6.5250 hc        1 LGW      0.075450
     43 H19        -0.3950   -0.8280   -4.1910 h1        1 LGW      0.111700
     44 H21        -3.7700    0.1440   -2.2210 h1        1 LGW      0.052200
     45 H21A       -4.2410   -0.5430   -3.8430 h1        1 LGW      0.052200
     46 H22        -3.2250    2.1180   -3.2950 hc        1 LGW      0.055700
     47 H22A       -3.4350    1.3690   -4.9270 hc        1 LGW      0.055700
     48 H23        -1.1290    1.1660   -5.1570 hc        1 LGW      0.062700
     49 H23A       -0.9120    1.9820   -3.5600 hc        1 LGW      0.062700
     50 H27        -3.3570   -4.3450   -4.8050 ha        1 LGW      0.164000
     51 H28        -5.5650   -5.5230   -4.3920 ha        1 LGW      0.164000
     52 H31        -4.2100   -1.8690   -1.3290 h4        1 LGW      0.045100
     53 HN14        6.5340   -0.9410   -4.2100 hn        1 LGW      0.322700
@<TRIPOS>BOND
     1    1    2 1   
     2    1    5 1   
     3    1    6 1   
     4    2    3 2   
     5    2    9 1   
     6    3    4 1   
     7    3   33 1   
     8    4    5 2   
     9    4   34 1   
    10    5   35 1   
    11    6    7 2   
    12    7    8 1   
    13    7   19 1   
    14    8    9 2   
    15    9   10 1   
    16   10   11 1   
    17   10   36 1   
    18   11   12 1   
    19   11   15 2   
    20   12   13 2   
    21   12   37 1   
    22   13   14 1   
    23   13   16 1   
    24   14   15 1   
    25   14   53 1   
    26   16   17 1   
    27   16   18 1   
    28   16   38 1   
    29   17   18 1   
    30   17   39 1   
    31   17   40 1   
    32   18   41 1   
    33   18   42 1   
    34   19   20 1   
    35   19   23 1   
    36   19   43 1   
    37   20   21 1   
    38   20   24 1   
    39   21   22 1   
    40   21   44 1   
    41   21   45 1   
    42   22   23 1   
    43   22   46 1   
    44   22   47 1   
    45   23   48 1   
    46   23   49 1   
    47   24   25 2   
    48   24   26 1   
    49   26   27 ar  
    50   26   31 ar  
    51   27   28 ar  
    52   27   50 1   
    53   28   29 ar  
    54   28   51 1   
    55   29   30 ar  
    56   29   32 1   
    57   30   31 ar  
    58   31   52 1   
@<TRIPOS>SUBSTRUCTURE
     1 LGW         1 TEMP              0 ****  ****    0 ROOT
