@<TRIPOS>MOLECULE
LGX
   53    58     1     0     0
SMALL
bcc


@<TRIPOS>ATOM
      1 N1          0.1650    0.1380    0.0620 na        1 LGX      0.211200
      2 C2          1.5930    0.2010   -0.0680 cc        1 LGX     -0.273600
      3 C3          2.1420    0.3130    1.2230 cd        1 LGX     -0.141000
      4 C4          1.0580    0.3210    2.1430 cd        1 LGX     -0.188000
      5 C5         -0.1470    0.2120    1.4170 cc        1 LGX     -0.112100
      6 N6         -0.6570    0.0280   -0.9860 nc        1 LGX     -0.536800
      7 C7         -0.0680   -0.0100   -2.1970 cd        1 LGX      0.604300
      8 N8          1.2980    0.0450   -2.4820 nd        1 LGX     -0.774000
      9 C9          2.1300    0.1330   -1.4260 cc        1 LGX      0.742200
     10 N10         3.5170    0.0860   -1.5440 nh        1 LGX     -0.787600
     11 C11         4.1720    0.2420   -2.7770 cc        1 LGX      0.499200
     12 C12         3.8400   -0.4170   -4.0290 cc        1 LGX     -0.249300
     13 C13         4.8370    0.0020   -4.9260 cd        1 LGX     -0.065600
     14 N14         5.6860    0.8540   -4.2040 na        1 LGX     -0.006600
     15 N15         5.3120    1.0150   -2.9420 nd        1 LGX     -0.549800
     16 C16         4.9940   -0.3550   -6.3290 cx        1 LGX     -0.064400
     17 C17         6.3640   -0.5590   -6.9290 cx        1 LGX     -0.127900
     18 C18         5.5500    0.6330   -7.3260 cx        1 LGX     -0.127900
     19 C19        -1.0200   -0.0930   -3.4110 c3        1 LGX      0.072400
     20 N20        -0.4620   -0.7050   -4.6090 n         1 LGX     -0.435800
     21 C21        -0.1240    0.3190   -5.5960 c3        1 LGX      0.075000
     22 C22        -0.7650    1.6370   -5.1410 c3        1 LGX     -0.089400
     23 C23        -1.4310    1.3500   -3.7990 c3        1 LGX     -0.077400
     24 C24         0.2940   -1.8790   -4.5800 c         1 LGX      0.689700
     25 O25         1.1800   -2.0800   -5.4350 o         1 LGX     -0.593100
     26 C26        -0.0500   -2.9280   -3.5850 ca        1 LGX     -0.269900
     27 C27         0.9780   -3.5930   -2.9040 ca        1 LGX     -0.022000
     28 C28         0.6520   -4.6060   -2.0070 ca        1 LGX     -0.279300
     29 C29        -0.7190   -4.9300   -1.8350 ca        1 LGX      0.627500
     30 N30        -1.7330   -4.3060   -2.5050 nb        1 LGX     -0.691000
     31 C31        -1.3820   -3.3290   -3.3550 ca        1 LGX      0.455200
     32 F32        -1.0620   -5.9130   -0.9680 f         1 LGX     -0.217200
     33 H3          3.1980    0.3780    1.4690 ha        1 LGX      0.157000
     34 H4          1.1320    0.3950    3.2250 ha        1 LGX      0.163000
     35 H5         -1.1800    0.1820    1.7680 h4        1 LGX      0.188000
     36 HN10        4.0140    0.4200   -0.7420 hn        1 LGX      0.448800
     37 H12         2.9970   -1.0710   -4.2380 ha        1 LGX      0.195000
     38 H16         4.1720   -1.0260   -6.6630 hc        1 LGX      0.115700
     39 H17         7.2590   -0.4170   -6.2970 hc        1 LGX      0.074700
     40 H17A        6.5020   -1.3850   -7.6510 hc        1 LGX      0.074700
     41 H18         5.8570    1.6370   -6.9820 hc        1 LGX      0.074700
     42 H18A        5.0990    0.6680   -8.3340 hc        1 LGX      0.074700
     43 H19        -1.9230   -0.6990   -3.1060 h1        1 LGX      0.087700
     44 H21         0.9930    0.4250   -5.6930 h1        1 LGX      0.061700
     45 H21A       -0.5300   -0.0140   -6.5890 h1        1 LGX      0.061700
     46 H22         0.0170    2.4290   -5.0370 hc        1 LGX      0.055200
     47 H22A       -1.5140    1.9870   -5.8910 hc        1 LGX      0.055200
     48 H23        -1.1090    2.0820   -3.0210 hc        1 LGX      0.062200
     49 H23A       -2.5440    1.4030   -3.8850 hc        1 LGX      0.062200
     50 H27         2.0290   -3.3140   -3.0850 ha        1 LGX      0.165000
     51 H28         1.4210   -5.1510   -1.4450 ha        1 LGX      0.164000
     52 H31        -2.2240   -2.8490   -3.8910 h4        1 LGX      0.039100
     53 HN14        6.5040    1.3050   -4.5420 hn        1 LGX      0.322700
@<TRIPOS>BOND
     1    1    2 1   
     2    1    5 1   
     3    1    6 1   
     4    2    3 2   
     5    2    9 1   
     6    3    4 1   
     7    3   33 1   
     8    4    5 2   
     9    4   34 1   
    10    5   35 1   
    11    6    7 2   
    12    7    8 1   
    13    7   19 1   
    14    8    9 2   
    15    9   10 1   
    16   10   11 1   
    17   10   36 1   
    18   11   12 1   
    19   11   15 2   
    20   12   13 2   
    21   12   37 1   
    22   13   14 1   
    23   13   16 1   
    24   14   15 1   
    25   14   53 1   
    26   16   17 1   
    27   16   18 1   
    28   16   38 1   
    29   17   18 1   
    30   17   39 1   
    31   17   40 1   
    32   18   41 1   
    33   18   42 1   
    34   19   20 1   
    35   19   23 1   
    36   19   43 1   
    37   20   21 1   
    38   20   24 1   
    39   21   22 1   
    40   21   44 1   
    41   21   45 1   
    42   22   23 1   
    43   22   46 1   
    44   22   47 1   
    45   23   48 1   
    46   23   49 1   
    47   24   25 2   
    48   24   26 1   
    49   26   27 ar  
    50   26   31 ar  
    51   27   28 ar  
    52   27   50 1   
    53   28   29 ar  
    54   28   51 1   
    55   29   30 ar  
    56   29   32 1   
    57   30   31 ar  
    58   31   52 1   
@<TRIPOS>SUBSTRUCTURE
     1 LGX         1 TEMP              0 ****  ****    0 ROOT
