@<TRIPOS>MOLECULE
LGX
   54    59     1     0     0
SMALL
bcc


@<TRIPOS>ATOM
      1 N1          0.5680   -0.0990   -0.0200 na        1 LGX      0.203200
      2 C2          1.7820    0.6290   -0.3620 cc        1 LGX     -0.275600
      3 C3          2.5940    0.6760    0.7850 cd        1 LGX     -0.120000
      4 C4          1.9000   -0.0060    1.8220 cd        1 LGX     -0.147000
      5 C5          0.6670   -0.4740    1.3170 cc        1 LGX     -0.065100
      6 N6         -0.4010   -0.3360   -0.8970 nc        1 LGX     -0.436800
      7 C7         -0.2390    0.1500   -2.1420 cd        1 LGX      0.575300
      8 N8          0.8710    0.8840   -2.6040 nd        1 LGX     -0.663000
      9 C9          1.8380    1.0940   -1.7200 cc        1 LGX      0.582200
     10 N10         3.0420    1.8580   -2.1410 n4        1 LGX     -0.688400
     11 C11         3.9590    1.0400   -2.9130 cc        1 LGX      0.303200
     12 C12         3.6750    0.4150   -4.1850 cc        1 LGX     -0.225300
     13 C13         4.8840   -0.2260   -4.5240 cd        1 LGX     -0.017600
     14 N14         5.7810    0.0400   -3.4720 na        1 LGX      0.036400
     15 N15         5.2620    0.7750   -2.5130 nd        1 LGX     -0.467800
     16 C16         5.1860   -1.0100   -5.7120 cx        1 LGX     -0.106400
     17 C17         6.1850   -2.1440   -5.6700 cx        1 LGX     -0.110400
     18 C18         6.5250   -0.8850   -6.4020 cx        1 LGX     -0.110400
     19 C19        -1.3670   -0.1020   -3.1730 c3        1 LGX      0.079400
     20 N20        -0.8910   -0.3610   -4.5210 n         1 LGX     -0.450800
     21 C21        -1.0230    0.8370   -5.3470 c3        1 LGX      0.072000
     22 C22        -1.9360    1.8170   -4.5960 c3        1 LGX     -0.090400
     23 C23        -2.2450    1.1720   -3.2490 c3        1 LGX     -0.081400
     24 C24         0.1570   -1.2610   -4.7750 c         1 LGX      0.688700
     25 O25         1.0600   -0.9630   -5.5810 o         1 LGX     -0.591100
     26 C26         0.1170   -2.5910   -4.1210 ca        1 LGX     -0.297900
     27 C27         1.3210   -3.2440   -3.8180 ca        1 LGX     -0.026000
     28 C28         1.2850   -4.5080   -3.2390 ca        1 LGX     -0.285300
     29 C29         0.0140   -5.0940   -2.9920 ca        1 LGX      0.650500
     30 N30        -1.1690   -4.4860   -3.3080 nb        1 LGX     -0.682000
     31 C31        -1.0950   -3.2680   -3.8640 ca        1 LGX      0.469200
     32 F32        -0.0500   -6.3170   -2.4210 f         1 LGX     -0.199200
     33 H3          3.5750    1.1380    0.8710 ha        1 LGX      0.171000
     34 H4          2.2520   -0.1510    2.8440 ha        1 LGX      0.192000
     35 H5         -0.1290   -1.0390    1.8140 h4        1 LGX      0.216000
     36 HN10        3.5030    2.2150   -1.2900 hn        1 LGX      0.480800
     37 H12         2.7430    0.4130   -4.7510 ha        1 LGX      0.224000
     38 H16         4.2790   -1.1360   -6.3460 hc        1 LGX      0.130700
     39 H17         5.9540   -3.0600   -6.2460 hc        1 LGX      0.087450
     40 H17A        6.7050   -2.3800   -4.7250 hc        1 LGX      0.087450
     41 H18         6.5420   -0.8880   -7.5080 hc        1 LGX      0.087450
     42 H18A        7.2890   -0.2040   -5.9860 hc        1 LGX      0.087450
     43 H19        -1.9660   -0.9920   -2.8220 h1        1 LGX      0.106700
     44 H21        -1.4730    0.5260   -6.3290 h1        1 LGX      0.065200
     45 H21A       -0.0170    1.2980   -5.5530 h1        1 LGX      0.065200
     46 H22        -1.4220    2.8000   -4.4630 hc        1 LGX      0.064200
     47 H22A       -2.8750    1.9970   -5.1750 hc        1 LGX      0.064200
     48 H23        -2.0280    1.8640   -2.4010 hc        1 LGX      0.069700
     49 H23A       -3.3220    0.8760   -3.1850 hc        1 LGX      0.069700
     50 H27         2.2820   -2.7600   -4.0520 ha        1 LGX      0.154000
     51 H28         2.2010   -5.0580   -2.9850 ha        1 LGX      0.170000
     52 H31        -2.0730   -2.8230   -4.1350 h4        1 LGX      0.047100
     53 HN14        6.7330   -0.2650   -3.4070 hn        1 LGX      0.354700
     54 H102        2.7590    2.6510   -2.7400 hn        1 LGX      0.480800
@<TRIPOS>BOND
     1    1    2 1   
     2    1    5 1   
     3    1    6 1   
     4    2    3 2   
     5    2    9 1   
     6    3    4 1   
     7    3   33 1   
     8    4    5 2   
     9    4   34 1   
    10    5   35 1   
    11    6    7 2   
    12    7    8 1   
    13    7   19 1   
    14    8    9 2   
    15    9   10 1   
    16   10   11 1   
    17   10   36 1   
    18   10   54 1   
    19   11   12 1   
    20   11   15 2   
    21   12   13 2   
    22   12   37 1   
    23   13   14 1   
    24   13   16 1   
    25   14   15 1   
    26   14   53 1   
    27   16   17 1   
    28   16   18 1   
    29   16   38 1   
    30   17   18 1   
    31   17   39 1   
    32   17   40 1   
    33   18   41 1   
    34   18   42 1   
    35   19   20 1   
    36   19   23 1   
    37   19   43 1   
    38   20   21 1   
    39   20   24 1   
    40   21   22 1   
    41   21   44 1   
    42   21   45 1   
    43   22   23 1   
    44   22   46 1   
    45   22   47 1   
    46   23   48 1   
    47   23   49 1   
    48   24   25 2   
    49   24   26 1   
    50   26   27 ar  
    51   26   31 ar  
    52   27   28 ar  
    53   27   50 1   
    54   28   29 ar  
    55   28   51 1   
    56   29   30 ar  
    57   29   32 1   
    58   30   31 ar  
    59   31   52 1   
@<TRIPOS>SUBSTRUCTURE
     1 LGX         1 TEMP              0 ****  ****    0 ROOT
