@<TRIPOS>MOLECULE
LGX
   53    58     1     0     0
SMALL
bcc


@<TRIPOS>ATOM
      1 N1          2.7410   -1.5470   -1.2770 na        1 LGX      0.211200
      2 C2          1.7760   -2.3700   -0.6050 cc        1 LGX     -0.273600
      3 C3          2.3950   -3.5920   -0.2860 cd        1 LGX     -0.141000
      4 C4          3.7340   -3.5230   -0.7590 cd        1 LGX     -0.188000
      5 C5          3.9320   -2.2640   -1.3640 cc        1 LGX     -0.112100
      6 N6          2.4680   -0.3150   -1.7150 nc        1 LGX     -0.536800
      7 C7          1.2110    0.1230   -1.5010 cd        1 LGX      0.604300
      8 N8          0.1680   -0.5580   -0.8710 nd        1 LGX     -0.774000
      9 C9          0.4480   -1.7930   -0.4080 cc        1 LGX      0.742200
     10 N10        -0.4540   -2.5480    0.3360 nh        1 LGX     -0.787600
     11 C11        -1.8190   -2.2250    0.4180 cc        1 LGX      0.499200
     12 C12        -2.3890   -0.9150    0.6800 cc        1 LGX     -0.249300
     13 C13        -3.7750   -1.1370    0.7470 cd        1 LGX     -0.065600
     14 N14        -3.9660   -2.5100    0.5340 na        1 LGX     -0.006600
     15 N15        -2.8330   -3.1690    0.3320 nd        1 LGX     -0.549800
     16 C16        -4.8330   -0.1660    0.9900 cx        1 LGX     -0.064400
     17 C17        -6.0460   -0.5290    1.8110 cx        1 LGX     -0.127900
     18 C18        -6.1860   -0.3090    0.3360 cx        1 LGX     -0.127900
     19 C19         0.8820    1.5310   -2.0460 c3        1 LGX      0.072400
     20 N20        -0.1900    2.2380   -1.3580 n         1 LGX     -0.435800
     21 C21        -1.4160    2.2050   -2.1530 c3        1 LGX      0.075000
     22 C22        -1.0480    1.7110   -3.5590 c3        1 LGX     -0.089400
     23 C23         0.4400    1.3830   -3.5240 c3        1 LGX     -0.077400
     24 C24        -0.2990    2.2840    0.0330 c         1 LGX      0.689700
     25 O25        -1.4170    2.3810    0.5760 o         1 LGX     -0.593100
     26 C26         0.9440    2.3250    0.8480 ca        1 LGX     -0.269900
     27 C27         1.0290    1.5520    2.0130 ca        1 LGX     -0.022000
     28 C28         2.1760    1.6300    2.7970 ca        1 LGX     -0.279300
     29 C29         3.2110    2.5090    2.3810 ca        1 LGX      0.627500
     30 N30         3.1380    3.2840    1.2580 nb        1 LGX     -0.691000
     31 C31         2.0200    3.1760    0.5230 ca        1 LGX      0.455200
     32 F32         4.3380    2.6020    3.1260 f         1 LGX     -0.217200
     33 H3          1.9360   -4.4310    0.2300 ha        1 LGX      0.157000
     34 H4          4.4880   -4.3010   -0.6750 ha        1 LGX      0.163000
     35 H5          4.8200   -1.8410   -1.8370 h4        1 LGX      0.188000
     36 HN10       -0.2340   -3.5230    0.3900 hn        1 LGX      0.448800
     37 H12        -1.8680    0.0340    0.7790 ha        1 LGX      0.195000
     38 H16        -4.4140    0.8580    1.1010 hc        1 LGX      0.115700
     39 H17        -6.1390   -1.5520    2.2160 hc        1 LGX      0.074700
     40 H17A       -6.4500    0.2250    2.5100 hc        1 LGX      0.074700
     41 H18        -6.6900    0.6040   -0.0290 hc        1 LGX      0.074700
     42 H18A       -6.3810   -1.1730   -0.3240 hc        1 LGX      0.074700
     43 H19         1.8140    2.1630   -1.9670 h1        1 LGX      0.087700
     44 H21        -2.1830    1.5340   -1.6760 h1        1 LGX      0.061700
     45 H21A       -1.8350    3.2480   -2.1810 h1        1 LGX      0.061700
     46 H22        -1.6500    0.8060   -3.8170 hc        1 LGX      0.055200
     47 H22A       -1.2660    2.4990   -4.3210 hc        1 LGX      0.055200
     48 H23         1.0230    2.1000   -4.1540 hc        1 LGX      0.062200
     49 H23A        0.6390    0.3520   -3.9010 hc        1 LGX      0.062200
     50 H27         0.1900    0.8970    2.3020 ha        1 LGX      0.165000
     51 H28         2.2920    1.0390    3.7150 ha        1 LGX      0.164000
     52 H31         1.9850    3.8240   -0.3740 h4        1 LGX      0.039100
     53 HN14       -4.8310   -2.9990    0.5380 hn        1 LGX      0.322700
@<TRIPOS>BOND
     1    1    2 1   
     2    1    5 1   
     3    1    6 1   
     4    2    3 2   
     5    2    9 1   
     6    3    4 1   
     7    3   33 1   
     8    4    5 2   
     9    4   34 1   
    10    5   35 1   
    11    6    7 2   
    12    7    8 1   
    13    7   19 1   
    14    8    9 2   
    15    9   10 1   
    16   10   11 1   
    17   10   36 1   
    18   11   12 1   
    19   11   15 2   
    20   12   13 2   
    21   12   37 1   
    22   13   14 1   
    23   13   16 1   
    24   14   15 1   
    25   14   53 1   
    26   16   17 1   
    27   16   18 1   
    28   16   38 1   
    29   17   18 1   
    30   17   39 1   
    31   17   40 1   
    32   18   41 1   
    33   18   42 1   
    34   19   20 1   
    35   19   23 1   
    36   19   43 1   
    37   20   21 1   
    38   20   24 1   
    39   21   22 1   
    40   21   44 1   
    41   21   45 1   
    42   22   23 1   
    43   22   46 1   
    44   22   47 1   
    45   23   48 1   
    46   23   49 1   
    47   24   25 2   
    48   24   26 1   
    49   26   27 ar  
    50   26   31 ar  
    51   27   28 ar  
    52   27   50 1   
    53   28   29 ar  
    54   28   51 1   
    55   29   30 ar  
    56   29   32 1   
    57   30   31 ar  
    58   31   52 1   
@<TRIPOS>SUBSTRUCTURE
     1 LGX         1 TEMP              0 ****  ****    0 ROOT
