@<TRIPOS>MOLECULE
LGX
   53    58     1     0     0
SMALL
bcc


@<TRIPOS>ATOM
      1 N1          0.1700    0.1230    0.0680 na        1 LGX      0.211200
      2 C2          1.5990    0.1770   -0.0620 cc        1 LGX     -0.273600
      3 C3          2.1480    0.2760    1.2290 cd        1 LGX     -0.141000
      4 C4          1.0640    0.2830    2.1500 cd        1 LGX     -0.188000
      5 C5         -0.1420    0.1890    1.4230 cc        1 LGX     -0.112100
      6 N6         -0.6530    0.0260   -0.9810 nc        1 LGX     -0.536800
      7 C7         -0.0650   -0.0070   -2.1930 cd        1 LGX      0.604300
      8 N8          1.3020    0.0410   -2.4780 nd        1 LGX     -0.774000
      9 C9          2.1350    0.1160   -1.4200 cc        1 LGX      0.742200
     10 N10         3.5210    0.0610   -1.5400 nu        1 LGX     -0.787600
     11 C11         4.1770    0.2210   -2.7710 cc        1 LGX      0.499200
     12 C12         3.8410   -0.4270   -4.0270 cc        1 LGX     -0.249300
     13 C13         4.8400   -0.0070   -4.9220 cd        1 LGX     -0.065600
     14 N14         5.6950    0.8340   -4.1940 na        1 LGX     -0.006600
     15 N15         5.3220    0.9890   -2.9310 nd        1 LGX     -0.549800
     16 C16         4.9950   -0.3550   -6.3280 cx        1 LGX     -0.064400
     17 C17         6.3630   -0.5660   -6.9290 cx        1 LGX     -0.127900
     18 C18         5.5580    0.6360   -7.3180 cx        1 LGX     -0.127900
     19 C19        -1.0170   -0.0740   -3.4070 c3        1 LGX      0.072400
     20 N20        -0.4630   -0.6800   -4.6100 n         1 LGX     -0.435800
     21 C21        -0.1200    0.3490   -5.5890 c3        1 LGX      0.075000
     22 C22        -0.7530    1.6670   -5.1230 c3        1 LGX     -0.089400
     23 C23        -1.4200    1.3740   -3.7830 c3        1 LGX     -0.077400
     24 C24         0.2850   -1.8590   -4.5910 c         1 LGX      0.689700
     25 O25         1.1700   -2.0580   -5.4470 o         1 LGX     -0.593100
     26 C26        -0.0630   -2.9130   -3.6030 ca        1 LGX     -0.269900
     27 C27         0.9610   -3.5890   -2.9280 ca        1 LGX     -0.022000
     28 C28         0.6300   -4.6080   -2.0380 ca        1 LGX     -0.279300
     29 C29        -0.7430   -4.9250   -1.8670 ca        1 LGX      0.627500
     30 N30        -1.7540   -4.2900   -2.5310 nb        1 LGX     -0.691000
     31 C31        -1.3970   -3.3080   -3.3740 ca        1 LGX      0.455200
     32 F32        -1.0910   -5.9120   -1.0070 f         1 LGX     -0.217200
     33 H3          3.2050    0.3320    1.4760 ha        1 LGX      0.157000
     34 H4          1.1390    0.3490    3.2320 ha        1 LGX      0.163000
     35 H5         -1.1750    0.1630    1.7740 h4        1 LGX      0.188000
     36 HN10        4.0200    0.3860   -0.7350 hn        1 LGX      0.448800
     37 H12         2.9930   -1.0740   -4.2410 ha        1 LGX      0.195000
     38 H16         4.1680   -1.0180   -6.6660 hc        1 LGX      0.115700
     39 H17         7.2590   -0.4340   -6.2960 hc        1 LGX      0.074700
     40 H17A        6.4950   -1.3870   -7.6570 hc        1 LGX      0.074700
     41 H18         5.1080    0.6810   -8.3250 hc        1 LGX      0.074700
     42 H18A        5.8720    1.6340   -6.9660 hc        1 LGX      0.074700
     43 H19        -1.9240   -0.6770   -3.1060 h1        1 LGX      0.087700
     44 H21         0.9970    0.4500   -5.6860 h1        1 LGX      0.061700
     45 H21A       -0.5290    0.0270   -6.5840 h1        1 LGX      0.061700
     46 H22         0.0330    2.4540   -5.0130 hc        1 LGX      0.055200
     47 H22A       -1.5010    2.0280   -5.8700 hc        1 LGX      0.055200
     48 H23        -1.0940    2.0980   -2.9990 hc        1 LGX      0.062200
     49 H23A       -2.5330    1.4350   -3.8680 hc        1 LGX      0.062200
     50 H27         2.0130   -3.3160   -3.1080 ha        1 LGX      0.165000
     51 H28         1.3970   -5.1610   -1.4810 ha        1 LGX      0.164000
     52 H31        -2.2370   -2.8200   -3.9060 h4        1 LGX      0.039100
     53 HN14        6.5150    1.2820   -4.5290 hn        1 LGX      0.322700
@<TRIPOS>BOND
     1    1    2 1   
     2    1    5 1   
     3    1    6 1   
     4    2    3 2   
     5    2    9 1   
     6    3    4 1   
     7    3   33 1   
     8    4    5 2   
     9    4   34 1   
    10    5   35 1   
    11    6    7 2   
    12    7    8 1   
    13    7   19 1   
    14    8    9 2   
    15    9   10 1   
    16   10   11 1   
    17   10   36 1   
    18   11   12 1   
    19   11   15 2   
    20   12   13 2   
    21   12   37 1   
    22   13   14 1   
    23   13   16 1   
    24   14   15 1   
    25   14   53 1   
    26   16   17 1   
    27   16   18 1   
    28   16   38 1   
    29   17   18 1   
    30   17   39 1   
    31   17   40 1   
    32   18   41 1   
    33   18   42 1   
    34   19   20 1   
    35   19   23 1   
    36   19   43 1   
    37   20   21 1   
    38   20   24 1   
    39   21   22 1   
    40   21   44 1   
    41   21   45 1   
    42   22   23 1   
    43   22   46 1   
    44   22   47 1   
    45   23   48 1   
    46   23   49 1   
    47   24   25 2   
    48   24   26 1   
    49   26   27 ar  
    50   26   31 ar  
    51   27   28 ar  
    52   27   50 1   
    53   28   29 ar  
    54   28   51 1   
    55   29   30 ar  
    56   29   32 1   
    57   30   31 ar  
    58   31   52 1   
@<TRIPOS>SUBSTRUCTURE
     1 LGX         1 TEMP              0 ****  ****    0 ROOT
