@<TRIPOS>MOLECULE
LGY
   32    31     1     0     0
SMALL
bcc


@<TRIPOS>ATOM
      1 OXT         4.1730    2.0700   -0.5030 o         1 LGY     -0.843800
      2 C           4.5940    1.0100    0.0380 c         1 LGY      0.887600
      3 N           4.3180   -1.4840    0.4480 n3        1 LGY     -0.891800
      4 O           5.6310    0.9360    0.7570 o         1 LGY     -0.843800
      5 N1         -2.3900   -1.7480   -0.4520 n2        1 LGY     -0.596900
      6 C3         -4.4180   -0.5750    0.2350 c3        1 LGY     -0.127700
      7 C4         -4.9300    0.6960   -0.4080 c3        1 LGY     -0.202400
      8 C5         -6.3790    0.9150   -0.1060 c         1 LGY      0.567900
      9 O6         -7.1350    1.5510   -0.8430 o         1 LGY     -0.536100
     10 CA          3.7850   -0.3050   -0.2230 c3        1 LGY      0.017500
     11 CB          2.3170   -0.0310    0.1080 c3        1 LGY     -0.063400
     12 CD         -0.0540   -0.7620   -0.1440 c3        1 LGY     -0.110400
     13 CE         -0.9720   -1.8830   -0.6210 c3        1 LGY      0.097800
     14 CG          1.3960   -1.1230   -0.3900 c3        1 LGY     -0.072400
     15 C11        -2.9340   -0.6960    0.0380 c2        1 LGY      0.401200
     16 HN          5.3200   -1.4500    0.3530 hn        1 LGY      0.329800
     17 HNA         4.1290   -1.4010    1.4320 hn        1 LGY      0.329800
     18 H3         -4.6130   -0.5530    1.3420 hc        1 LGY      0.056200
     19 H3A        -4.9680   -1.4580   -0.1850 hc        1 LGY      0.056200
     20 H4         -4.3590    1.5840   -0.0220 hc        1 LGY      0.080200
     21 H4A        -4.7700    0.6590   -1.5180 hc        1 LGY      0.080200
     22 H5         -6.7440    0.4720    0.8490 h4        1 LGY     -0.010800
     23 HA          3.8630   -0.5080   -1.3320 h1        1 LGY      0.040700
     24 HB          2.1900    0.0940    1.2150 hc        1 LGY      0.046700
     25 HBA         2.0500    0.9490   -0.3730 hc        1 LGY      0.046700
     26 HD         -0.2970    0.1910   -0.6840 hc        1 LGY      0.038700
     27 HDA        -0.2110   -0.5770    0.9510 hc        1 LGY      0.038700
     28 HE         -0.6850   -2.8380   -0.0900 h1        1 LGY      0.065700
     29 HEA        -0.8000   -2.0500   -1.7240 h1        1 LGY      0.065700
     30 HG          1.5620   -1.2820   -1.4880 hc        1 LGY      0.038700
     31 HGA         1.6370   -2.0900    0.1240 hc        1 LGY      0.038700
     32 H11        -2.3760    0.2080    0.3690 h4        1 LGY     -0.024200
@<TRIPOS>BOND
     1    1    2 1   
     2    2    4 1   
     3    2   10 1   
     4    3   10 1   
     5    3   16 1   
     6    3   17 1   
     7    5   13 1   
     8    5   15 2   
     9    6    7 1   
    10    6   15 1   
    11    6   18 1   
    12    6   19 1   
    13    7    8 1   
    14    7   20 1   
    15    7   21 1   
    16    8    9 2   
    17    8   22 1   
    18   10   11 1   
    19   10   23 1   
    20   11   14 1   
    21   11   24 1   
    22   11   25 1   
    23   12   13 1   
    24   12   14 1   
    25   12   26 1   
    26   12   27 1   
    27   13   28 1   
    28   13   29 1   
    29   14   30 1   
    30   14   31 1   
    31   15   32 1   
@<TRIPOS>SUBSTRUCTURE
     1 LGY         1 TEMP              0 ****  ****    0 ROOT
