@<TRIPOS>MOLECULE
LGZ
   87    92     1     0     0
SMALL
bcc


@<TRIPOS>ATOM
      1 O01         0.0390    0.3250    0.0730 os        1 LGZ     -0.401900
      2 C02        -0.9860   -0.3910   -0.4190 c         1 LGZ      0.623100
      3 O03        -1.1460   -0.7190   -1.5880 o         1 LGZ     -0.451000
      4 NP4        -1.9480   -0.7240    0.6710 ny        1 LGZ     -0.637800
      5 C05        -2.8660   -1.8790    0.3410 c3        1 LGZ      0.141500
      6 C06        -4.2440   -1.4050   -0.2030 c3        1 LGZ      0.136100
      7 O07        -4.6450   -0.3270    0.6290 oh        1 LGZ     -0.629800
      8 C08        -4.1630   -0.9910   -1.6680 c3        1 LGZ     -0.117400
      9 C09        -5.4580   -1.1970   -2.4730 c3        1 LGZ      0.098200
     10 C10        -5.1640   -0.7430   -3.9220 c3        1 LGZ     -0.037100
     11 C11        -6.3730   -0.5000   -4.7510 ca        1 LGZ     -0.126300
     12 C12        -6.9870    0.7600   -4.7500 ca        1 LGZ     -0.134500
     13 C13        -8.0950    1.0030   -5.5600 ca        1 LGZ     -0.118500
     14 C14        -8.5970   -0.0080   -6.3810 ca        1 LGZ     -0.101000
     15 C15        -7.9820   -1.2600   -6.3950 ca        1 LGZ     -0.118500
     16 C16        -6.8730   -1.5050   -5.5870 ca        1 LGZ     -0.134500
     17 C17        -5.8660   -2.7020   -2.4600 c         1 LGZ      0.604300
     18 O18        -5.1090   -3.6270   -2.7810 o         1 LGZ     -0.624100
     19 C19        -8.1230   -3.9180   -1.7910 c3        1 LGZ      0.035800
     20 C20        -7.8380   -4.8550   -0.5820 c3        1 LGZ      0.135100
     21 O1         -6.4630   -4.9140   -0.1610 os        1 LGZ     -0.349900
     22 C22        -8.4250   -6.2240   -0.9690 c3        1 LGZ     -0.086100
     23 C23        -8.5120   -6.1860   -2.4600 ca        1 LGZ     -0.175300
     24 C24        -8.8250   -7.2160   -3.3290 ca        1 LGZ     -0.107000
     25 C25        -8.9090   -6.9350   -4.7020 ca        1 LGZ     -0.106000
     26 C26        -8.6850   -5.6460   -5.1780 ca        1 LGZ     -0.107000
     27 C27        -8.3780   -4.5960   -4.2980 ca        1 LGZ     -0.099000
     28 C28        -8.2930   -4.8670   -2.9430 ca        1 LGZ     -0.142300
     29 N29        -6.6250   -0.5220   -1.8550 nu        1 LGZ     -0.722000
     30 C30        -7.6430   -1.4530   -1.7000 c2        1 LGZ      0.179000
     31 C35        -7.2420   -2.7570   -1.9600 ce        1 LGZ     -0.364400
     32 C36        -3.0930   -2.7600    1.5820 c3        1 LGZ     -0.056100
     33 C37        -1.8210   -3.1400    2.2500 ca        1 LGZ     -0.168300
     34 C38        -1.4290   -2.5010    3.4330 ca        1 LGZ     -0.133500
     35 C39        -0.2530   -2.8810    4.0780 ca        1 LGZ     -0.112500
     36 C40         0.5390   -3.9010    3.5470 ca        1 LGZ     -0.092000
     37 C41         0.1480   -4.5450    2.3720 ca        1 LGZ     -0.112500
     38 C42        -1.0280   -4.1690    1.7260 ca        1 LGZ     -0.133500
     39 C44         1.1390    0.6380   -0.8530 c3        1 LGZ      0.135100
     40 C45         1.9740   -0.6140   -1.1460 c3        1 LGZ      0.100400
     41 O46         3.0640   -0.6190   -0.2280 os        1 LGZ     -0.399600
     42 C47         3.3180    0.7240    0.2140 c3        1 LGZ      0.118400
     43 C48         2.0590    1.5530   -0.0410 c3        1 LGZ     -0.119400
     44 C1         -5.4570   -5.5010   -0.8300 c         1 LGZ      0.639100
     45 N1         -5.6480   -6.2020   -2.1330 nz        1 LGZ     -0.738400
     46 O2         -4.3370   -5.4340   -0.3340 o         1 LGZ     -0.422000
     47 H1         -1.4050   -0.9570    1.5240 hn        1 LGZ      0.491300
     48 H2         -2.3520   -2.4940   -0.4580 hx        1 LGZ      0.122700
     49 H3         -4.9570   -2.2720   -0.0830 h1        1 LGZ      0.076700
     50 H4         -5.5430   -0.0710    0.3840 ho        1 LGZ      0.455000
     51 H5         -3.3660   -1.5900   -2.1890 hc        1 LGZ      0.088700
     52 H6         -3.8680    0.0910   -1.7230 hc        1 LGZ      0.088700
     53 H7         -4.5240   -1.5400   -4.3920 hc        1 LGZ      0.080200
     54 H8         -4.5530    0.2000   -3.8820 hc        1 LGZ      0.080200
     55 H9         -6.5730    1.5760   -4.1380 ha        1 LGZ      0.129500
     56 H10        -8.5660    1.9990   -5.5630 ha        1 LGZ      0.150500
     57 H11        -9.4670    0.1880   -7.0280 ha        1 LGZ      0.158000
     58 H12        -8.3620   -2.0510   -7.0610 ha        1 LGZ      0.150500
     59 H13        -6.3720   -2.4840   -5.6250 ha        1 LGZ      0.129500
     60 H14        -9.1660   -3.5100   -1.5830 hc        1 LGZ      0.105700
     61 H15        -8.2980   -4.4460    0.3670 h1        1 LGZ      0.135700
     62 H16        -7.8270   -7.0770   -0.5640 hc        1 LGZ      0.094700
     63 H17        -9.4560   -6.3160   -0.5290 hc        1 LGZ      0.094700
     64 H18        -9.0340   -8.2320   -2.9580 ha        1 LGZ      0.162000
     65 H19        -9.1730   -7.7440   -5.4040 ha        1 LGZ      0.170000
     66 H20        -8.7680   -5.4390   -6.2580 ha        1 LGZ      0.165000
     67 H21        -8.2270   -3.5740   -4.6860 ha        1 LGZ      0.161000
     68 H22        -6.8560    0.3830   -2.2120 hn        1 LGZ      0.455800
     69 H23        -8.6360   -1.1210   -1.3560 h4        1 LGZ      0.194000
     70 H24        -3.7760   -2.2260    2.2970 hc        1 LGZ      0.095700
     71 H25        -3.6260   -3.6870    1.2250 hc        1 LGZ      0.095700
     72 H26        -2.0690   -1.7240    3.8820 ha        1 LGZ      0.136000
     73 H27         0.0450   -2.3840    5.0160 ha        1 LGZ      0.158000
     74 H28         1.4660   -4.2040    4.0610 ha        1 LGZ      0.163000
     75 H29         0.7660   -5.3590    1.9600 ha        1 LGZ      0.158000
     76 H30        -1.3460   -4.6950    0.8130 ha        1 LGZ      0.136000
     77 H31         0.6920    1.1050   -1.7650 h1        1 LGZ      0.101700
     78 H32         1.4120   -1.5660   -0.9810 h1        1 LGZ      0.075700
     79 H33         2.3740   -0.5730   -2.1930 h1        1 LGZ      0.075700
     80 H34         3.5730    0.6400    1.3020 h1        1 LGZ      0.078200
     81 H35         4.1960    1.1200   -0.3580 h1        1 LGZ      0.078200
     82 H36         2.2900    2.4780   -0.6260 hc        1 LGZ      0.091700
     83 H37         1.5750    1.8620    0.9200 hc        1 LGZ      0.091700
     84 H38        -6.0430   -5.5220   -2.8160 hn        1 LGZ      0.489133
     85 H39        -6.2880   -7.0000   -2.0430 hn        1 LGZ      0.489133
     86 HP42       -2.5180    0.1140    0.8710 hn        1 LGZ      0.491300
     87 H131       -4.7300   -6.5190   -2.4700 hn        1 LGZ      0.489133
@<TRIPOS>BOND
     1    1    2 1   
     2    1   39 1   
     3    2    3 2   
     4    2    4 1   
     5    4    5 1   
     6    4   47 1   
     7    4   86 1   
     8    5    6 1   
     9    5   32 1   
    10    5   48 1   
    11    6    7 1   
    12    6    8 1   
    13    6   49 1   
    14    7   50 1   
    15    8    9 1   
    16    8   51 1   
    17    8   52 1   
    18    9   10 1   
    19    9   17 1   
    20    9   29 1   
    21   10   11 1   
    22   10   53 1   
    23   10   54 1   
    24   11   12 ar  
    25   11   16 ar  
    26   12   13 ar  
    27   12   55 1   
    28   13   14 ar  
    29   13   56 1   
    30   14   15 ar  
    31   14   57 1   
    32   15   16 ar  
    33   15   58 1   
    34   16   59 1   
    35   17   18 2   
    36   17   31 1   
    37   19   20 1   
    38   19   28 1   
    39   19   31 1   
    40   19   60 1   
    41   20   21 1   
    42   20   22 1   
    43   20   61 1   
    44   21   44 1   
    45   22   23 1   
    46   22   62 1   
    47   22   63 1   
    48   23   24 ar  
    49   23   28 ar  
    50   24   25 ar  
    51   24   64 1   
    52   25   26 ar  
    53   25   65 1   
    54   26   27 ar  
    55   26   66 1   
    56   27   28 ar  
    57   27   67 1   
    58   29   30 1   
    59   29   68 1   
    60   30   31 2   
    61   30   69 1   
    62   32   33 1   
    63   32   70 1   
    64   32   71 1   
    65   33   34 ar  
    66   33   38 ar  
    67   34   35 ar  
    68   34   72 1   
    69   35   36 ar  
    70   35   73 1   
    71   36   37 ar  
    72   36   74 1   
    73   37   38 ar  
    74   37   75 1   
    75   38   76 1   
    76   39   40 1   
    77   39   43 1   
    78   39   77 1   
    79   40   41 1   
    80   40   78 1   
    81   40   79 1   
    82   41   42 1   
    83   42   43 1   
    84   42   80 1   
    85   42   81 1   
    86   43   82 1   
    87   43   83 1   
    88   44   45 1   
    89   44   46 2   
    90   45   84 1   
    91   45   85 1   
    92   45   87 1   
@<TRIPOS>SUBSTRUCTURE
     1 LGZ         1 TEMP              0 ****  ****    0 ROOT
