@<TRIPOS>MOLECULE
LGZ
   87    92     1     0     0
SMALL
bcc


@<TRIPOS>ATOM
      1 O01         0.0500    0.2980    0.0900 os        1 LGZ     -0.401900
      2 C02        -0.9760   -0.4130   -0.4050 c         1 LGZ      0.623100
      3 O03        -1.1310   -0.7420   -1.5750 o         1 LGZ     -0.451000
      4 NP4        -1.9470   -0.7370    0.6800 n4        1 LGZ     -0.637800
      5 C05        -2.8710   -1.8860    0.3460 c3        1 LGZ      0.141500
      6 C06        -4.2420   -1.4040   -0.2080 c3        1 LGZ      0.136100
      7 O07        -4.6400   -0.3210    0.6190 oh        1 LGZ     -0.629800
      8 C08        -4.1490   -0.9930   -1.6730 c3        1 LGZ     -0.117400
      9 C09        -5.4410   -1.1900   -2.4850 c3        1 LGZ      0.098200
     10 C10        -5.1330   -0.7430   -3.9340 c3        1 LGZ     -0.037100
     11 C11        -6.3350   -0.4910   -4.7710 ca        1 LGZ     -0.126300
     12 C12        -6.9380    0.7740   -4.7770 ca        1 LGZ     -0.134500
     13 C13        -8.0390    1.0240   -5.5940 ca        1 LGZ     -0.118500
     14 C14        -8.5450    0.0160   -6.4160 ca        1 LGZ     -0.101000
     15 C15        -7.9410   -1.2420   -6.4230 ca        1 LGZ     -0.118500
     16 C16        -6.8390   -1.4940   -5.6070 ca        1 LGZ     -0.134500
     17 C17        -5.8620   -2.6920   -2.4710 c         1 LGZ      0.604300
     18 O18        -5.1120   -3.6240   -2.7850 o         1 LGZ     -0.624100
     19 C19        -8.1340   -3.8860   -1.8130 c3        1 LGZ      0.035800
     20 C20        -7.8650   -4.8220   -0.6000 c3        1 LGZ      0.135100
     21 O1         -6.4930   -4.8920   -0.1700 os        1 LGZ     -0.349900
     22 C22        -8.4610   -6.1870   -0.9860 c3        1 LGZ     -0.086100
     23 C23        -8.5380   -6.1520   -2.4780 ca        1 LGZ     -0.175300
     24 C24        -8.8560   -7.1820   -3.3470 ca        1 LGZ     -0.107000
     25 C25        -8.9280   -6.9040   -4.7210 ca        1 LGZ     -0.106000
     26 C26        -8.6900   -5.6190   -5.1990 ca        1 LGZ     -0.107000
     27 C27        -8.3790   -4.5690   -4.3200 ca        1 LGZ     -0.099000
     28 C28        -8.3050   -4.8370   -2.9630 ca        1 LGZ     -0.142300
     29 N29        -6.6050   -0.5030   -1.8770 nh        1 LGZ     -0.722000
     30 C30        -7.6320   -1.4250   -1.7250 c2        1 LGZ      0.179000
     31 C35        -7.2410   -2.7330   -1.9790 ce        1 LGZ     -0.364400
     32 C36        -3.1120   -2.7630    1.5870 c3        1 LGZ     -0.056100
     33 C37        -1.8470   -3.1510    2.2640 ca        1 LGZ     -0.168300
     34 C38        -1.4580   -2.5120    3.4490 ca        1 LGZ     -0.133500
     35 C39        -0.2880   -2.8990    4.1010 ca        1 LGZ     -0.112500
     36 C40         0.4990   -3.9250    3.5770 ca        1 LGZ     -0.092000
     37 C41         0.1120   -4.5690    2.4000 ca        1 LGZ     -0.112500
     38 C42        -1.0580   -4.1860    1.7470 ca        1 LGZ     -0.133500
     39 C44         1.1580    0.6030   -0.8290 c3        1 LGZ      0.134100
     40 C45         1.9880   -0.6550   -1.1130 c3        1 LGZ      0.100400
     41 O46         3.0710   -0.6620   -0.1880 os        1 LGZ     -0.399600
     42 C47         3.3300    0.6800    0.2520 c3        1 LGZ      0.118400
     43 C48         2.0770    1.5160   -0.0140 c3        1 LGZ     -0.119400
     44 C1         -5.4880   -5.4890   -0.8300 c         1 LGZ      0.639100
     45 N1         -5.6770   -6.1920   -2.1330 n4        1 LGZ     -0.738400
     46 O2         -4.3710   -5.4310   -0.3280 o         1 LGZ     -0.422000
     47 H1         -1.4100   -0.9730    1.5360 hn        1 LGZ      0.491300
     48 H2         -2.3570   -2.5070   -0.4490 hx        1 LGZ      0.122700
     49 H3         -4.9620   -2.2650   -0.0900 h1        1 LGZ      0.076700
     50 H4         -5.5350   -0.0590    0.3690 ho        1 LGZ      0.455000
     51 H5         -3.8440    0.0860   -1.7290 hc        1 LGZ      0.088700
     52 H6         -3.3540   -1.6000   -2.1880 hc        1 LGZ      0.088700
     53 H7         -4.5140    0.1950   -3.8920 hc        1 LGZ      0.080200
     54 H8         -4.4980   -1.5470   -4.3970 hc        1 LGZ      0.080200
     55 H9         -6.5210    1.5880   -4.1640 ha        1 LGZ      0.129500
     56 H10        -8.5010    2.0250   -5.6030 ha        1 LGZ      0.150500
     57 H11        -9.4090    0.2180   -7.0690 ha        1 LGZ      0.158000
     58 H12        -8.3240   -2.0300   -7.0890 ha        1 LGZ      0.150500
     59 H13        -6.3470   -2.4780   -5.6390 ha        1 LGZ      0.129500
     60 H14        -9.1750   -3.4680   -1.6130 hc        1 LGZ      0.105700
     61 H15        -8.3270   -4.4070    0.3450 h1        1 LGZ      0.135700
     62 H16        -9.4960   -6.2680   -0.5530 hc        1 LGZ      0.094700
     63 H17        -7.8740   -7.0430   -0.5750 hc        1 LGZ      0.094700
     64 H18        -9.0760   -8.1950   -2.9740 ha        1 LGZ      0.162000
     65 H19        -9.1950   -7.7120   -5.4220 ha        1 LGZ      0.170000
     66 H20        -8.7640   -5.4140   -6.2800 ha        1 LGZ      0.165000
     67 H21        -8.2170   -3.5490   -4.7090 ha        1 LGZ      0.161000
     68 H22        -6.8260    0.4030   -2.2370 hn        1 LGZ      0.455800
     69 H23        -8.6250   -1.0830   -1.3880 h4        1 LGZ      0.194000
     70 H24        -3.7960   -2.2230    2.2970 hc        1 LGZ      0.095700
     71 H25        -3.6500   -3.6860    1.2290 hc        1 LGZ      0.095700
     72 H26        -2.0950   -1.7310    3.8920 ha        1 LGZ      0.136000
     73 H27         0.0070   -2.4030    5.0400 ha        1 LGZ      0.158000
     74 H28         1.4210   -4.2350    4.0970 ha        1 LGZ      0.163000
     75 H29         0.7260   -5.3880    1.9930 ha        1 LGZ      0.158000
     76 H30        -1.3740   -4.7110    0.8320 ha        1 LGZ      0.136000
     77 H31         0.7190    1.0690   -1.7450 h1        1 LGZ      0.101700
     78 H32         2.3940   -0.6200   -2.1580 h1        1 LGZ      0.075700
     79 H33         1.4190   -1.6030   -0.9480 h1        1 LGZ      0.075700
     80 H34         3.5770    0.5990    1.3410 h1        1 LGZ      0.078200
     81 H35         4.2140    1.0700   -0.3160 h1        1 LGZ      0.078200
     82 H36         2.3170    2.4370   -0.6010 hc        1 LGZ      0.091700
     83 H37         1.5890    1.8300    0.9430 hc        1 LGZ      0.091700
     84 H38        -6.0620   -5.5110   -2.8200 hn        1 LGZ      0.488800
     85 H39        -6.3250   -6.9840   -2.0440 hn        1 LGZ      0.488800
     86 HP42       -2.5120    0.1050    0.8750 hn        1 LGZ      0.491300
     87 H131       -4.7600   -6.5180   -2.4640 hn        1 LGZ      0.488800
@<TRIPOS>BOND
     1    1    2 1   
     2    1   39 1   
     3    2    3 2   
     4    2    4 1   
     5    4    5 1   
     6    4   47 1   
     7    4   86 1   
     8    5    6 1   
     9    5   32 1   
    10    5   48 1   
    11    6    7 1   
    12    6    8 1   
    13    6   49 1   
    14    7   50 1   
    15    8    9 1   
    16    8   51 1   
    17    8   52 1   
    18    9   10 1   
    19    9   17 1   
    20    9   29 1   
    21   10   11 1   
    22   10   53 1   
    23   10   54 1   
    24   11   12 ar  
    25   11   16 ar  
    26   12   13 ar  
    27   12   55 1   
    28   13   14 ar  
    29   13   56 1   
    30   14   15 ar  
    31   14   57 1   
    32   15   16 ar  
    33   15   58 1   
    34   16   59 1   
    35   17   18 2   
    36   17   31 1   
    37   19   20 1   
    38   19   28 1   
    39   19   31 1   
    40   19   60 1   
    41   20   21 1   
    42   20   22 1   
    43   20   61 1   
    44   21   44 1   
    45   22   23 1   
    46   22   62 1   
    47   22   63 1   
    48   23   24 ar  
    49   23   28 ar  
    50   24   25 ar  
    51   24   64 1   
    52   25   26 ar  
    53   25   65 1   
    54   26   27 ar  
    55   26   66 1   
    56   27   28 ar  
    57   27   67 1   
    58   29   30 1   
    59   29   68 1   
    60   30   31 2   
    61   30   69 1   
    62   32   33 1   
    63   32   70 1   
    64   32   71 1   
    65   33   34 ar  
    66   33   38 ar  
    67   34   35 ar  
    68   34   72 1   
    69   35   36 ar  
    70   35   73 1   
    71   36   37 ar  
    72   36   74 1   
    73   37   38 ar  
    74   37   75 1   
    75   38   76 1   
    76   39   40 1   
    77   39   43 1   
    78   39   77 1   
    79   40   41 1   
    80   40   78 1   
    81   40   79 1   
    82   41   42 1   
    83   42   43 1   
    84   42   80 1   
    85   42   81 1   
    86   43   82 1   
    87   43   83 1   
    88   44   45 1   
    89   44   46 2   
    90   45   84 1   
    91   45   85 1   
    92   45   87 1   
@<TRIPOS>SUBSTRUCTURE
     1 LGZ         1 TEMP              0 ****  ****    0 ROOT
