@<TRIPOS>MOLECULE
LGZ
   87    92     1     0     0
SMALL
bcc


@<TRIPOS>ATOM
      1 O01         0.3600   -0.2790    0.1650 os        1 LGZ     -0.399900
      2 C02        -0.7550   -0.8040   -0.3670 c         1 LGZ      0.622100
      3 O03        -0.9560   -1.0380   -1.5530 o         1 LGZ     -0.452000
      4 NP4        -1.7470   -1.0900    0.7100 n4        1 LGZ     -0.637800
      5 C05        -2.7350   -2.1770    0.3550 c3        1 LGZ      0.142500
      6 C06        -4.0740   -1.6080   -0.1970 c3        1 LGZ      0.137100
      7 O07        -4.4070   -0.5100    0.6400 oh        1 LGZ     -0.630800
      8 C08        -3.9520   -1.1920   -1.6570 c3        1 LGZ     -0.116400
      9 C09        -5.2550   -1.2730   -2.4700 c3        1 LGZ      0.098200
     10 C10        -4.9090   -0.8550   -3.9180 c3        1 LGZ     -0.037100
     11 C11        -6.0830   -0.4930   -4.7550 ca        1 LGZ     -0.126300
     12 C12        -6.5690    0.8210   -4.7590 ca        1 LGZ     -0.134500
     13 C13        -7.6420    1.1710   -5.5760 ca        1 LGZ     -0.118500
     14 C14        -8.2360    0.2140   -6.4010 ca        1 LGZ     -0.101000
     15 C15        -7.7480   -1.0930   -6.4100 ca        1 LGZ     -0.118500
     16 C16        -6.6740   -1.4450   -5.5940 ca        1 LGZ     -0.134500
     17 C17        -5.8090   -2.7310   -2.4570 c         1 LGZ      0.604300
     18 O18        -5.1450   -3.7270   -2.7690 o         1 LGZ     -0.624100
     19 C19        -8.1820   -3.7170   -1.8050 c3        1 LGZ      0.035800
     20 C20        -8.0010   -4.6730   -0.5920 c3        1 LGZ      0.135100
     21 O1         -6.6410   -4.8670   -0.1590 os        1 LGZ     -0.349900
     22 C22        -8.7160   -5.9790   -0.9800 c3        1 LGZ     -0.086100
     23 C23        -8.7870   -5.9370   -2.4720 ca        1 LGZ     -0.175300
     24 C24        -9.1940   -6.9340   -3.3420 ca        1 LGZ     -0.107000
     25 C25        -9.2380   -6.6500   -4.7160 ca        1 LGZ     -0.106000
     26 C26        -8.8840   -5.3910   -5.1930 ca        1 LGZ     -0.107000
     27 C27        -8.4820   -4.3740   -4.3130 ca        1 LGZ     -0.099000
     28 C28        -8.4350   -4.6480   -2.9560 ca        1 LGZ     -0.142300
     29 N29        -6.3550   -0.4860   -1.8620 nh        1 LGZ     -0.723000
     30 C30        -7.4610   -1.3120   -1.7130 c2        1 LGZ      0.178000
     31 C35        -7.1880   -2.6490   -1.9680 ce        1 LGZ     -0.364400
     32 C36        -3.0340   -3.0560    1.5830 c3        1 LGZ     -0.057100
     33 C37        -1.7990   -3.5290    2.2610 ca        1 LGZ     -0.167300
     34 C38        -1.3790   -2.9280    3.4550 ca        1 LGZ     -0.133000
     35 C39        -0.2420   -3.3970    4.1120 ca        1 LGZ     -0.113000
     36 C40         0.4820   -4.4670    3.5830 ca        1 LGZ     -0.094000
     37 C41         0.0630   -5.0710    2.3970 ca        1 LGZ     -0.113000
     38 C42        -1.0740   -4.6070    1.7380 ca        1 LGZ     -0.133000
     39 C44         1.4390    0.1000   -0.7580 c3        1 LGZ      0.130100
     40 C45         2.7090    0.0680    0.1080 c3        1 LGZ      0.120400
     41 O46         3.0100    1.4130    0.4650 os        1 LGZ     -0.392600
     42 C47         2.4090    2.3080   -0.4820 c3        1 LGZ      0.120400
     43 C48         1.2720    1.5600   -1.1800 c3        1 LGZ     -0.137400
     44 C1         -5.6920   -5.5490   -0.8190 c         1 LGZ      0.639100
     45 N1         -5.9420   -6.2340   -2.1220 n4        1 LGZ     -0.738400
     46 O2         -4.5740   -5.5880   -0.3180 o         1 LGZ     -0.423000
     47 H1         -2.2630   -0.2180    0.9140 hn        1 LGZ      0.491300
     48 H2         -2.2540   -2.8140   -0.4470 hx        1 LGZ      0.120700
     49 H3         -4.8450   -2.4240   -0.0880 h1        1 LGZ      0.076700
     50 H4         -5.2820   -0.1900    0.3900 ho        1 LGZ      0.455000
     51 H5         -3.5570   -0.1410   -1.7050 hc        1 LGZ      0.088200
     52 H6         -3.2110   -1.8580   -2.1800 hc        1 LGZ      0.088200
     53 H7         -4.2070    0.0230   -3.8760 hc        1 LGZ      0.080200
     54 H8         -4.3500   -1.7120   -4.3830 hc        1 LGZ      0.080200
     55 H9         -6.0810    1.5920   -4.1440 ha        1 LGZ      0.129500
     56 H10        -8.0120    2.2090   -5.5830 ha        1 LGZ      0.150500
     57 H11        -9.0780    0.4950   -7.0530 ha        1 LGZ      0.158000
     58 H12        -8.2000   -1.8420   -7.0780 ha        1 LGZ      0.150500
     59 H13        -6.2720   -2.4690   -5.6280 ha        1 LGZ      0.129500
     60 H14        -9.1810   -3.2080   -1.6070 hc        1 LGZ      0.105700
     61 H15        -8.4250   -4.2190    0.3530 h1        1 LGZ      0.135700
     62 H16        -9.7550   -5.9670   -0.5490 hc        1 LGZ      0.094700
     63 H17        -8.2090   -6.8860   -0.5680 hc        1 LGZ      0.094700
     64 H18        -9.5050   -7.9230   -2.9700 ha        1 LGZ      0.162000
     65 H19        -9.5750   -7.4310   -5.4190 ha        1 LGZ      0.170000
     66 H20        -8.9370   -5.1800   -6.2740 ha        1 LGZ      0.165000
     67 H21        -8.2280   -3.3730   -4.7010 ha        1 LGZ      0.161000
     68 H22        -6.4920    0.4380   -2.2200 hn        1 LGZ      0.455800
     69 H23        -8.4190   -0.8820   -1.3790 h4        1 LGZ      0.194000
     70 H24        -3.6250   -3.9410    1.2090 hc        1 LGZ      0.096200
     71 H25        -3.6880   -2.4860    2.2970 hc        1 LGZ      0.096200
     72 H26        -1.9670   -2.1120    3.9020 ha        1 LGZ      0.136500
     73 H27         0.0770   -2.9300    5.0580 ha        1 LGZ      0.159000
     74 H28         1.3750   -4.8420    4.1090 ha        1 LGZ      0.163000
     75 H29         0.6250   -5.9260    1.9870 ha        1 LGZ      0.159000
     76 H30        -1.4150   -5.1010    0.8150 ha        1 LGZ      0.136500
     77 H31         1.4500   -0.6240   -1.6100 h1        1 LGZ      0.102700
     78 H32         2.5750   -0.4920    1.0690 h1        1 LGZ      0.086200
     79 H33         3.5580   -0.3580   -0.4870 h1        1 LGZ      0.086200
     80 H34         2.0540    3.1860    0.1140 h1        1 LGZ      0.077700
     81 H35         3.1980    2.6300   -1.2100 h1        1 LGZ      0.077700
     82 H36         1.3500    1.6570   -2.2910 hc        1 LGZ      0.078200
     83 H37         0.2770    1.9580   -0.8640 hc        1 LGZ      0.078200
     84 H38        -5.0570   -6.6420   -2.4510 hn        1 LGZ      0.488800
     85 H39        -6.6580   -6.9640   -2.0330 hn        1 LGZ      0.488800
     86 HP42       -1.2300   -1.3670    1.5670 hn        1 LGZ      0.491300
     87 H131       -6.2620   -5.5220   -2.8100 hn        1 LGZ      0.488800
@<TRIPOS>BOND
     1    1    2 1   
     2    1   39 1   
     3    2    3 2   
     4    2    4 1   
     5    4    5 1   
     6    4   47 1   
     7    4   86 1   
     8    5    6 1   
     9    5   32 1   
    10    5   48 1   
    11    6    7 1   
    12    6    8 1   
    13    6   49 1   
    14    7   50 1   
    15    8    9 1   
    16    8   51 1   
    17    8   52 1   
    18    9   10 1   
    19    9   17 1   
    20    9   29 1   
    21   10   11 1   
    22   10   53 1   
    23   10   54 1   
    24   11   12 ar  
    25   11   16 ar  
    26   12   13 ar  
    27   12   55 1   
    28   13   14 ar  
    29   13   56 1   
    30   14   15 ar  
    31   14   57 1   
    32   15   16 ar  
    33   15   58 1   
    34   16   59 1   
    35   17   18 2   
    36   17   31 1   
    37   19   20 1   
    38   19   28 1   
    39   19   31 1   
    40   19   60 1   
    41   20   21 1   
    42   20   22 1   
    43   20   61 1   
    44   21   44 1   
    45   22   23 1   
    46   22   62 1   
    47   22   63 1   
    48   23   24 ar  
    49   23   28 ar  
    50   24   25 ar  
    51   24   64 1   
    52   25   26 ar  
    53   25   65 1   
    54   26   27 ar  
    55   26   66 1   
    56   27   28 ar  
    57   27   67 1   
    58   29   30 1   
    59   29   68 1   
    60   30   31 2   
    61   30   69 1   
    62   32   33 1   
    63   32   70 1   
    64   32   71 1   
    65   33   34 ar  
    66   33   38 ar  
    67   34   35 ar  
    68   34   72 1   
    69   35   36 ar  
    70   35   73 1   
    71   36   37 ar  
    72   36   74 1   
    73   37   38 ar  
    74   37   75 1   
    75   38   76 1   
    76   39   40 1   
    77   39   43 1   
    78   39   77 1   
    79   40   41 1   
    80   40   78 1   
    81   40   79 1   
    82   41   42 1   
    83   42   43 1   
    84   42   80 1   
    85   42   81 1   
    86   43   82 1   
    87   43   83 1   
    88   44   45 1   
    89   44   46 2   
    90   45   84 1   
    91   45   85 1   
    92   45   87 1   
@<TRIPOS>SUBSTRUCTURE
     1 LGZ         1 TEMP              0 ****  ****    0 ROOT
