@<TRIPOS>MOLECULE
LGZ
   85    84     1     0     0
SMALL
bcc


@<TRIPOS>ATOM
      1 O01         3.2660   -0.1350   -3.3030 os        1 LGZ     -0.280000
      2 C02         2.9920    0.9540   -2.3790 c2        1 LGZ      0.381000
      3 O03         3.8340    1.2580   -1.5030 o         1 LGZ     -0.396000
      4 NP4         1.7160    1.6500   -2.4330 n         1 LGZ     -0.326000
      5 C05         1.1830    2.2720   -1.2510 c3        1 LGZ     -0.006000
      6 C06        -0.0300    1.4970   -0.7820 c3        1 LGZ      0.015000
      7 O07        -1.0120    1.5200   -1.7770 oh        1 LGZ     -0.339000
      8 C08         0.3790    0.0310   -0.4930 c3        1 LGZ     -0.204000
      9 C09        -0.7640   -0.7210   -0.1040 c3        1 LGZ     -0.021000
     10 C10        -0.6960   -1.8120   -1.2570 c3        1 LGZ     -0.104000
     11 C11        -1.8260   -1.5090   -2.3520 c2        1 LGZ     -0.074000
     12 C12        -1.5510   -0.6420   -3.4130 c2        1 LGZ     -0.129000
     13 C13        -2.4440   -0.5330   -4.4720 c1        1 LGZ     -0.135000
     14 C14        -3.6020   -1.2800   -4.4750 c1        1 LGZ     -0.127000
     15 C15        -3.8750   -2.1420   -3.4190 c1        1 LGZ     -0.127000
     16 C16        -2.9780   -2.2510   -2.3570 c1        1 LGZ     -0.116000
     17 C17        -0.7230   -1.2990    1.3770 c2        1 LGZ      0.268000
     18 O18         0.0350   -2.1420    1.7900 o         1 LGZ     -0.293000
     19 C19        -2.5120   -1.8020    2.9150 c3        1 LGZ     -0.010000
     20 C20        -1.3940   -2.1220    3.8170 c3        1 LGZ      0.044000
     21 O1         -1.1640   -3.5350    3.8120 os        1 LGZ     -0.276000
     22 C22        -1.7650   -1.6860    5.1700 c3        1 LGZ     -0.130000
     23 C23        -3.1100   -1.0210    5.0840 c2        1 LGZ     -0.082000
     24 C24        -3.9520   -0.4770    6.0700 c2        1 LGZ     -0.118000
     25 C25        -5.0940    0.2240    5.6990 c1        1 LGZ     -0.129000
     26 C26        -5.4070    0.3880    4.3460 c1        1 LGZ     -0.127000
     27 C27        -4.5710   -0.1530    3.3630 c1        1 LGZ     -0.127000
     28 C28        -3.4220   -0.8580    3.7320 c1        1 LGZ     -0.075000
     29 N29        -2.1410    0.0980   -0.0220 n3        1 LGZ     -0.259000
     30 C30        -2.6990   -0.2750    1.1520 c2        1 LGZ      0.037000
     31 C35        -1.9430   -0.9790    1.9120 c2        1 LGZ     -0.295000
     32 C36         0.7880    3.6920   -1.5680 c3        1 LGZ     -0.153000
     33 C37         1.9390    4.6480   -1.1790 c2        1 LGZ     -0.082000
     34 C38         3.2490    4.1780   -1.1500 c2        1 LGZ     -0.121000
     35 C39         4.3140    5.0770   -0.9620 c1        1 LGZ     -0.127000
     36 C40         4.0580    6.4370   -0.8040 c1        1 LGZ     -0.127000
     37 C41         2.7470    6.9070   -0.8330 c1        1 LGZ     -0.127000
     38 C42         1.6830    6.0100   -1.0210 c1        1 LGZ     -0.137000
     39 C44         4.5590   -0.7340   -3.1250 c3        1 LGZ      0.019000
     40 C45         4.8810   -1.4640   -4.1990 c3        1 LGZ     -0.029000
     41 O46         4.3840   -2.9050   -3.8780 os        1 LGZ     -0.280000
     42 C47         4.0250   -2.8970   -2.3430 c3        1 LGZ     -0.022000
     43 C48         4.5300   -1.7610   -1.8740 c3        1 LGZ     -0.209000
     44 C1         -0.2480   -3.9860    4.8360 c2        1 LGZ      0.400000
     45 N1         -0.4070   -5.3170    5.4170 n         1 LGZ     -0.388000
     46 O2          0.5800   -3.2100    5.3030 o         1 LGZ     -0.426000
     47 H1          1.2770    1.7100   -3.1980 hn        1 LGZ      0.232000
     48 H2          1.8590    2.2720   -0.5510 h1        1 LGZ      0.125000
     49 H3         -0.3900    1.9130    0.0520 h1        1 LGZ      0.147000
     50 H4         -0.6820    1.9610   -2.5260 ho        1 LGZ      0.207000
     51 H5          1.0420    0.0130    0.2260 hc        1 LGZ      0.122000
     52 H6          0.7540   -0.3510   -1.2750 hc        1 LGZ      0.122000
     53 H7         -0.8470   -2.7210   -0.8670 hc        1 LGZ      0.107000
     54 H8          0.1870   -1.7810   -1.6810 hc        1 LGZ      0.107000
     55 H9         -0.7510   -0.1260   -3.4100 ha        1 LGZ      0.139000
     56 H10        -2.2480    0.0800   -5.2220 ha        1 LGZ      0.129000
     57 H11        -4.2510   -1.2020   -5.2430 ha        1 LGZ      0.132833
     58 H12        -4.6760   -2.6590   -3.4200 ha        1 LGZ      0.132833
     59 H13        -3.1690   -2.8520   -1.6220 ha        1 LGZ      0.140000
     60 H14        -2.9320   -2.5410    2.4020 hc        1 LGZ      0.137000
     61 H15        -0.5750   -1.6460    3.5220 h1        1 LGZ      0.131000
     62 H16        -1.8300   -2.4970    5.7730 hc        1 LGZ      0.109500
     63 H17        -1.1190   -1.0500    5.4850 hc        1 LGZ      0.109500
     64 H18        -3.7410   -0.5880    6.9880 ha        1 LGZ      0.134000
     65 H19        -5.7060    0.6190    6.4150 ha        1 LGZ      0.131000
     66 H20        -6.2030    0.8760    4.0880 ha        1 LGZ      0.132833
     67 H21        -4.7890   -0.0400    2.4280 ha        1 LGZ      0.132833
     68 H22        -2.3500    0.8320   -0.4990 hn        1 LGZ      0.224000
     69 H23        -3.6440   -0.3440    1.2290 h4        1 LGZ      0.170000
     70 H24         0.6090    3.7720   -2.5180 hc        1 LGZ      0.124000
     71 H25        -0.0310    3.9310   -1.0550 hc        1 LGZ      0.124000
     72 H26         3.4300    3.2200   -1.2610 ha        1 LGZ      0.136000
     73 H27         5.2420    4.7440   -0.9420 ha        1 LGZ      0.132000
     74 H28         4.8110    7.0720   -0.6710 ha        1 LGZ      0.132833
     75 H29         2.5700    7.8560   -0.7230 ha        1 LGZ      0.132833
     76 H30         0.7800    6.3340   -1.0420 ha        1 LGZ      0.129000
     77 H31         5.2380   -0.0350   -2.9750 h1        1 LGZ      0.137000
     78 H32         5.8780   -1.4620   -4.3350 h1        1 LGZ      0.101500
     79 H33         4.4240   -1.1140   -5.0030 h1        1 LGZ      0.101500
     80 H34         4.4400   -3.6670   -1.8930 h1        1 LGZ      0.088500
     81 H35         3.0770   -2.9140   -2.2230 h1        1 LGZ      0.088500
     82 H36         3.9500   -1.4010   -1.1460 hc        1 LGZ      0.107500
     83 H37         5.4390   -1.9090   -1.5390 hc        1 LGZ      0.107500
     84 H38         0.1510   -5.5930    6.1100 hn        1 LGZ      0.236000
     85 H39        -1.0320   -5.9090    5.0580 hn        1 LGZ      0.236000
@<TRIPOS>BOND
     1    1    2 1   
     2    1   39 1   
     3    2    3 1   
     4    2    4 1   
     5    4    5 1   
     6    4   47 1   
     7    5    6 1   
     8    5   32 1   
     9    5   48 1   
    10    6    7 1   
    11    6    8 1   
    12    6   49 1   
    13    7   50 1   
    14    8    9 1   
    15    8   51 1   
    16    8   52 1   
    17    9   10 1   
    18    9   17 1   
    19    9   29 1   
    20   10   11 1   
    21   10   53 1   
    22   10   54 1   
    23   11   12 1   
    24   11   16 1   
    25   12   13 1   
    26   12   55 1   
    27   13   56 1   
    28   14   15 1   
    29   14   57 1   
    30   15   58 1   
    31   16   59 1   
    32   17   18 1   
    33   17   31 1   
    34   19   20 1   
    35   19   28 1   
    36   19   31 1   
    37   19   60 1   
    38   20   21 1   
    39   20   22 1   
    40   20   61 1   
    41   21   44 1   
    42   22   23 1   
    43   22   62 1   
    44   22   63 1   
    45   23   24 1   
    46   23   28 1   
    47   24   25 1   
    48   24   64 1   
    49   25   65 1   
    50   26   27 1   
    51   26   66 1   
    52   27   67 1   
    53   29   30 1   
    54   29   68 1   
    55   30   31 1   
    56   30   69 1   
    57   32   33 1   
    58   32   70 1   
    59   32   71 1   
    60   33   34 1   
    61   33   38 1   
    62   34   35 1   
    63   34   72 1   
    64   35   73 1   
    65   36   37 1   
    66   36   74 1   
    67   37   75 1   
    68   38   76 1   
    69   39   40 1   
    70   39   43 1   
    71   39   77 1   
    72   40   41 1   
    73   40   78 1   
    74   40   79 1   
    75   41   42 1   
    76   42   43 1   
    77   42   80 1   
    78   42   81 1   
    79   43   82 1   
    80   43   83 1   
    81   44   45 1   
    82   44   46 1   
    83   45   84 1   
    84   45   85 1   
@<TRIPOS>SUBSTRUCTURE
     1 LGZ         1 TEMP              0 ****  ****    0 ROOT
