@<TRIPOS>MOLECULE
LGZ
   85    90     1     0     0
SMALL
bcc


@<TRIPOS>ATOM
      1 O01         4.9340   -1.1910    0.3910 os        1 LGZ     -0.437900
      2 C02         3.6440   -0.6990    0.3560 c         1 LGZ      0.727100
      3 O03         2.9710   -0.6670    1.4000 o         1 LGZ     -0.587000
      4 NP4         3.2440   -0.3520   -0.9270 n         1 LGZ     -0.514900
      5 C05         2.1150    0.5520   -1.0750 c3        1 LGZ      0.061700
      6 C06         0.8310   -0.1880   -1.5400 c3        1 LGZ      0.127100
      7 O07         0.9630   -0.7060   -2.8530 oh        1 LGZ     -0.610800
      8 C08         0.4250   -1.2780   -0.5550 c3        1 LGZ     -0.124400
      9 C09        -1.0850   -1.5760   -0.5600 c3        1 LGZ      0.074200
     10 C10        -1.2990   -2.8580    0.2660 c3        1 LGZ     -0.012100
     11 C11        -2.7040   -3.3420    0.3260 ca        1 LGZ     -0.080300
     12 C12        -3.1890   -4.2320   -0.6380 ca        1 LGZ     -0.115000
     13 C13        -4.4900   -4.7240   -0.5500 ca        1 LGZ     -0.133000
     14 C14        -5.3170   -4.3330    0.5030 ca        1 LGZ     -0.131000
     15 C15        -4.8400   -3.4420    1.4650 ca        1 LGZ     -0.133000
     16 C16        -3.5410   -2.9470    1.3780 ca        1 LGZ     -0.115000
     17 C17        -1.8370   -0.3750    0.1110 c         1 LGZ      0.604300
     18 O18        -1.6850   -0.0560    1.2860 o         1 LGZ     -0.534100
     19 C19        -3.5450    1.3930   -0.8640 c3        1 LGZ      0.067800
     20 C20        -2.9040    2.6370   -0.1690 c3        1 LGZ      0.176100
     21 O1         -1.6000    2.2450    0.2760 os        1 LGZ     -0.438900
     22 C22        -3.8300    3.0430    0.9970 c3        1 LGZ     -0.056100
     23 C23        -4.9880    2.1120    0.9260 ca        1 LGZ     -0.077300
     24 C24        -6.1220    2.0950    1.7230 ca        1 LGZ     -0.119000
     25 C25        -7.0990    1.1200    1.4860 ca        1 LGZ     -0.128000
     26 C26        -6.9340    0.1820    0.4690 ca        1 LGZ     -0.133000
     27 C27        -5.7890    0.1960   -0.3370 ca        1 LGZ     -0.104000
     28 C28        -4.8210    1.1610   -0.1060 ca        1 LGZ     -0.087300
     29 N29        -1.6760   -1.6700   -1.9170 nh        1 LGZ     -0.695000
     30 C30        -2.5040   -0.5490   -2.0940 c2        1 LGZ      0.092000
     31 C35        -2.6790    0.2040   -0.9580 ce        1 LGZ     -0.276400
     32 C36         2.3930    1.6900   -2.0750 c3        1 LGZ     -0.055100
     33 C37         3.6200    2.4570   -1.7390 ca        1 LGZ     -0.098300
     34 C38         4.8200    2.2070   -2.4160 ca        1 LGZ     -0.127000
     35 C39         5.9670    2.9370   -2.1070 ca        1 LGZ     -0.125500
     36 C40         5.9240    3.9220   -1.1210 ca        1 LGZ     -0.126000
     37 C41         4.7310    4.1770   -0.4440 ca        1 LGZ     -0.125500
     38 C42         3.5830    3.4490   -0.7510 ca        1 LGZ     -0.127000
     39 C44         5.3830   -1.7390    1.6420 c3        1 LGZ      0.131100
     40 C45         6.9030   -1.5170    1.6850 c3        1 LGZ      0.122400
     41 O46         7.5510   -2.7880    1.6500 os        1 LGZ     -0.421600
     42 C47         6.5920   -3.8500    1.7100 c3        1 LGZ      0.128400
     43 C48         5.1890   -3.2580    1.6580 c3        1 LGZ     -0.130400
     44 C1         -0.9080    3.1420    1.0640 c         1 LGZ      0.727100
     45 N1          0.1750    2.5540    1.6840 n         1 LGZ     -0.622000
     46 O2         -1.2420    4.3380    1.0740 o         1 LGZ     -0.589000
     47 H1          3.9830   -0.2340   -1.5900 hn        1 LGZ      0.318500
     48 H2          1.8750    1.0130   -0.0670 h1        1 LGZ      0.090700
     49 H3          0.0130    0.5880   -1.6310 h1        1 LGZ      0.096700
     50 H4          1.6690   -1.3640   -2.8410 ho        1 LGZ      0.409000
     51 H5          0.7090   -0.9680    0.4890 hc        1 LGZ      0.077700
     52 H6          0.9870   -2.2180   -0.7940 hc        1 LGZ      0.077700
     53 H7         -0.6490   -3.6690   -0.1610 hc        1 LGZ      0.060200
     54 H8         -0.9330   -2.6310    1.3050 hc        1 LGZ      0.060200
     55 H9         -2.5400   -4.5390   -1.4720 ha        1 LGZ      0.137000
     56 H10        -4.8640   -5.4230   -1.3120 ha        1 LGZ      0.130000
     57 H11        -6.3410   -4.7250    0.5750 ha        1 LGZ      0.128000
     58 H12        -5.4910   -3.1260    2.2940 ha        1 LGZ      0.130000
     59 H13        -3.1690   -2.2320    2.1300 ha        1 LGZ      0.137000
     60 H14        -3.8150    1.7120   -1.9140 hc        1 LGZ      0.061700
     61 H15        -2.7810    3.4840   -0.8940 h1        1 LGZ      0.064700
     62 H16        -3.2950    2.9430    1.9770 hc        1 LGZ      0.073700
     63 H17        -4.1450    4.1100    0.8860 hc        1 LGZ      0.073700
     64 H18        -6.2550    2.8320    2.5270 ha        1 LGZ      0.134000
     65 H19        -8.0040    1.0970    2.1110 ha        1 LGZ      0.129000
     66 H20        -7.7080   -0.5800    0.2960 ha        1 LGZ      0.130000
     67 H21        -5.6600   -0.5530   -1.1310 ha        1 LGZ      0.137000
     68 H22        -1.0100   -1.8310   -2.6470 hn        1 LGZ      0.418800
     69 H23        -2.9710   -0.3890   -3.0750 h4        1 LGZ      0.164000
     70 H24         2.4660    1.2600   -3.1110 hc        1 LGZ      0.071700
     71 H25         1.5020    2.3740   -2.0600 hc        1 LGZ      0.071700
     72 H26         4.8560    1.4400   -3.2040 ha        1 LGZ      0.135500
     73 H27         6.9050    2.7360   -2.6450 ha        1 LGZ      0.135000
     74 H28         6.8290    4.4980   -0.8780 ha        1 LGZ      0.134000
     75 H29         4.6940    4.9560    0.3320 ha        1 LGZ      0.135000
     76 H30         2.6410    3.6520   -0.2180 ha        1 LGZ      0.135500
     77 H31         4.8560   -1.2350    2.4940 h1        1 LGZ      0.095700
     78 H32         7.2680   -0.9370    0.7990 h1        1 LGZ      0.062700
     79 H33         7.2050   -1.0090    2.6360 h1        1 LGZ      0.062700
     80 H34         6.7780   -4.4070    2.6650 h1        1 LGZ      0.049700
     81 H35         6.8050   -4.5170    0.8370 h1        1 LGZ      0.049700
     82 H36         4.5890   -3.5660    2.5490 hc        1 LGZ      0.068200
     83 H37         4.6450   -3.5930    0.7410 hc        1 LGZ      0.068200
     84 H38         0.5700    3.0670    2.4370 hn        1 LGZ      0.320000
     85 H39         0.1550    1.5610    1.7700 hn        1 LGZ      0.320000
@<TRIPOS>BOND
     1    1    2 1   
     2    1   39 1   
     3    2    3 2   
     4    2    4 1   
     5    4    5 1   
     6    4   47 1   
     7    5    6 1   
     8    5   32 1   
     9    5   48 1   
    10    6    7 1   
    11    6    8 1   
    12    6   49 1   
    13    7   50 1   
    14    8    9 1   
    15    8   51 1   
    16    8   52 1   
    17    9   10 1   
    18    9   17 1   
    19    9   29 1   
    20   10   11 1   
    21   10   53 1   
    22   10   54 1   
    23   11   12 ar  
    24   11   16 ar  
    25   12   13 ar  
    26   12   55 1   
    27   13   14 ar  
    28   13   56 1   
    29   14   15 ar  
    30   14   57 1   
    31   15   16 ar  
    32   15   58 1   
    33   16   59 1   
    34   17   18 2   
    35   17   31 1   
    36   19   20 1   
    37   19   28 1   
    38   19   31 1   
    39   19   60 1   
    40   20   21 1   
    41   20   22 1   
    42   20   61 1   
    43   21   44 1   
    44   22   23 1   
    45   22   62 1   
    46   22   63 1   
    47   23   24 ar  
    48   23   28 ar  
    49   24   25 ar  
    50   24   64 1   
    51   25   26 ar  
    52   25   65 1   
    53   26   27 ar  
    54   26   66 1   
    55   27   28 ar  
    56   27   67 1   
    57   29   30 1   
    58   29   68 1   
    59   30   31 2   
    60   30   69 1   
    61   32   33 1   
    62   32   70 1   
    63   32   71 1   
    64   33   34 ar  
    65   33   38 ar  
    66   34   35 ar  
    67   34   72 1   
    68   35   36 ar  
    69   35   73 1   
    70   36   37 ar  
    71   36   74 1   
    72   37   38 ar  
    73   37   75 1   
    74   38   76 1   
    75   39   40 1   
    76   39   43 1   
    77   39   77 1   
    78   40   41 1   
    79   40   78 1   
    80   40   79 1   
    81   41   42 1   
    82   42   43 1   
    83   42   80 1   
    84   42   81 1   
    85   43   82 1   
    86   43   83 1   
    87   44   45 1   
    88   44   46 2   
    89   45   84 1   
    90   45   85 1   
@<TRIPOS>SUBSTRUCTURE
     1 LGZ         1 TEMP              0 ****  ****    0 ROOT
