@<TRIPOS>MOLECULE
LH3
   78    82     1     0     0
SMALL
bcc


@<TRIPOS>ATOM
      1 O5          1.4660   -1.0580    1.9390 o         1 LH3     -0.606500
      2 C31         1.9930   -0.4500    0.9920 c         1 LH3      0.755500
      3 N3          3.0720    0.4720    1.1070 n         1 LH3     -0.518900
      4 C           3.5450    0.8260   -0.2260 c3        1 LH3      0.066700
      5 N2          1.5290   -0.5000   -0.3570 n         1 LH3     -0.526900
      6 C30         2.4880    0.1680   -1.2240 c3        1 LH3      0.065700
      7 C2          3.2200   -0.6730   -2.2730 c3        1 LH3     -0.011600
      8 S           4.8670   -1.0110   -1.6730 ss        1 LH3     -0.312200
      9 C1          4.9560    0.3750   -0.5810 c3        1 LH3     -0.036300
     10 C3          2.5450   -1.9710   -2.6490 c3        1 LH3     -0.069400
     11 C4          3.2440   -2.6240   -3.8280 c3        1 LH3     -0.083400
     12 C5          2.6320   -3.9790   -4.1210 c3        1 LH3     -0.084400
     13 C6          3.3800   -4.6540   -5.2570 c3        1 LH3     -0.143400
     14 C7          2.7850   -5.9910   -5.5510 c         1 LH3      0.570100
     15 O           1.8310   -6.5670   -5.0630 o         1 LH3     -0.405100
     16 N           3.4910   -6.8020   -6.6640 n4        1 LH3     -0.489600
     17 N1          3.2710   -6.2580   -7.9560 nh        1 LH3     -0.428400
     18 C8          3.8260   -7.0560   -9.0240 ca        1 LH3     -0.025400
     19 C13         2.9790   -7.7320   -9.9350 cp        1 LH3     -0.008500
     20 C14         1.5270   -7.7670   -9.7380 cp        1 LH3     -0.063500
     21 C19         0.6780   -7.1740  -10.6800 ca        1 LH3     -0.147500
     22 C18        -0.7040   -7.2160  -10.5020 ca        1 LH3     -0.067250
     23 C17        -1.2450   -7.8590   -9.3820 ca        1 LH3     -0.111600
     24 C20        -2.7110   -7.8860   -9.2260 c         1 LH3      0.633200
     25 O2         -3.1440   -8.5590   -8.1190 os        1 LH3     -0.435900
     26 C21        -4.5630   -8.6340   -7.9340 c3        1 LH3      0.125200
     27 O1         -3.5490   -7.3720   -9.9710 o         1 LH3     -0.517500
     28 C16        -0.4010   -8.4670   -8.4450 ca        1 LH3     -0.067250
     29 C15         0.9790   -8.4150   -8.6210 ca        1 LH3     -0.147500
     30 C12         3.5360   -8.3620  -11.0530 ca        1 LH3     -0.102500
     31 C11         4.9150   -8.3570  -11.2540 ca        1 LH3     -0.077000
     32 C10         5.7550   -7.7190  -10.3430 ca        1 LH3     -0.102500
     33 C9          5.2270   -7.0650   -9.2250 cp        1 LH3     -0.008500
     34 C22         6.1410   -6.4000   -8.2880 cp        1 LH3     -0.063500
     35 C27         6.7130   -7.1260   -7.2320 ca        1 LH3     -0.147500
     36 C26         7.5980   -6.5050   -6.3550 ca        1 LH3     -0.067250
     37 C25         7.9160   -5.1500   -6.5280 ca        1 LH3     -0.111600
     38 C24         7.3620   -4.4280   -7.5890 ca        1 LH3     -0.067250
     39 C23         6.4720   -5.0510   -8.4650 ca        1 LH3     -0.147500
     40 C28         8.8470   -4.5240   -5.5710 c         1 LH3      0.633200
     41 O3          9.2540   -5.0040   -4.5110 o         1 LH3     -0.517500
     42 O4          9.2680   -3.2760   -5.9330 os        1 LH3     -0.435900
     43 C29        10.2000   -2.6370   -5.0520 c3        1 LH3      0.125200
     44 H3          3.7430    0.2940    1.8170 hn        1 LH3      0.322500
     45 H2          1.1180   -1.3510   -0.6580 hn        1 LH3      0.314500
     46 H           3.4790    1.9480   -0.3160 h1        1 LH3      0.096700
     47 H30         1.9310    0.9940   -1.7540 h1        1 LH3      0.091700
     48 H11C        5.5020    1.2120   -1.0800 h1        1 LH3      0.089200
     49 H12C        5.5540    0.0710    0.3120 h1        1 LH3      0.089200
     50 HA          3.3200   -0.0410   -3.1960 h1        1 LH3      0.082700
     51 H31C        1.4730   -1.7720   -2.9180 hc        1 LH3      0.061700
     52 H32C        2.5560   -2.6810   -1.7790 hc        1 LH3      0.061700
     53 H41C        4.3370   -2.7400   -3.5930 hc        1 LH3      0.059200
     54 H42C        3.1610   -1.9650   -4.7310 hc        1 LH3      0.059200
     55 H51C        1.5500   -3.8600   -4.3960 hc        1 LH3      0.071200
     56 H52C        2.6750   -4.6250   -3.2040 hc        1 LH3      0.071200
     57 H61C        4.4650   -4.7750   -4.9830 hc        1 LH3      0.112200
     58 H62C        3.3320   -4.0200   -6.1880 hc        1 LH3      0.112200
     59 HB          4.5160   -6.7550   -6.5050 hn        1 LH3      0.454300
     60 H1          2.2620   -6.1780   -8.0950 hn        1 LH3      0.414800
     61 H12         2.8720   -8.8700  -11.7720 ha        1 LH3      0.168500
     62 H19         1.1020   -6.6760  -11.5670 ha        1 LH3      0.146250
     63 H15         1.6360   -8.9310   -7.9050 ha        1 LH3      0.146250
     64 H18        -1.3810   -6.7510  -11.2410 ha        1 LH3      0.175750
     65 H16        -0.8380   -8.9910   -7.5780 ha        1 LH3      0.175750
     66 H211       -4.6700   -9.2290   -6.9940 h1        1 LH3      0.061533
     67 H212       -5.0320   -9.1500   -8.8060 h1        1 LH3      0.061533
     68 H213       -4.9840   -7.6060   -7.8220 h1        1 LH3      0.061533
     69 H11         5.3440   -8.8610  -12.1360 ha        1 LH3      0.168000
     70 H10         6.8460   -7.7220  -10.5020 ha        1 LH3      0.168500
     71 H27         6.5070   -8.2030   -7.1270 ha        1 LH3      0.146250
     72 H23         6.0400   -4.4830   -9.3040 ha        1 LH3      0.146250
     73 H26         8.0660   -7.0690   -5.5300 ha        1 LH3      0.175750
     74 H24         7.6400   -3.3700   -7.7350 ha        1 LH3      0.175750
     75 H291       11.1210   -3.2610   -4.9590 h1        1 LH3      0.061533
     76 H292        9.7310   -2.4880   -4.0510 h1        1 LH3      0.061533
     77 H293       10.4090   -1.6640   -5.5610 h1        1 LH3      0.061533
     78 HN3         3.1930   -7.7900   -6.5870 hn        1 LH3      0.454300
@<TRIPOS>BOND
     1    1    2 2   
     2    2    3 1   
     3    2    5 1   
     4    3    4 1   
     5    3   44 1   
     6    4    6 1   
     7    4    9 1   
     8    4   46 1   
     9    5    6 1   
    10    5   45 1   
    11    6    7 1   
    12    6   47 1   
    13    7    8 1   
    14    7   10 1   
    15    7   50 1   
    16    8    9 1   
    17    9   48 1   
    18    9   49 1   
    19   10   11 1   
    20   10   51 1   
    21   10   52 1   
    22   11   12 1   
    23   11   53 1   
    24   11   54 1   
    25   12   13 1   
    26   12   55 1   
    27   12   56 1   
    28   13   14 1   
    29   13   57 1   
    30   13   58 1   
    31   14   15 2   
    32   14   16 1   
    33   16   17 1   
    34   16   59 1   
    35   16   78 1   
    36   17   18 1   
    37   17   60 1   
    38   18   19 ar  
    39   18   33 ar  
    40   19   20 1   
    41   19   30 ar  
    42   20   21 ar  
    43   20   29 ar  
    44   21   22 ar  
    45   21   62 1   
    46   22   23 ar  
    47   22   64 1   
    48   23   24 1   
    49   23   28 ar  
    50   24   25 1   
    51   24   27 2   
    52   25   26 1   
    53   26   66 1   
    54   26   67 1   
    55   26   68 1   
    56   28   29 ar  
    57   28   65 1   
    58   29   63 1   
    59   30   31 ar  
    60   30   61 1   
    61   31   32 ar  
    62   31   69 1   
    63   32   33 ar  
    64   32   70 1   
    65   33   34 1   
    66   34   35 ar  
    67   34   39 ar  
    68   35   36 ar  
    69   35   71 1   
    70   36   37 ar  
    71   36   73 1   
    72   37   38 ar  
    73   37   40 1   
    74   38   39 ar  
    75   38   74 1   
    76   39   72 1   
    77   40   41 2   
    78   40   42 1   
    79   42   43 1   
    80   43   75 1   
    81   43   76 1   
    82   43   77 1   
@<TRIPOS>SUBSTRUCTURE
     1 LH3         1 TEMP              0 ****  ****    0 ROOT
