@<TRIPOS>MOLECULE
LH3
   79    83     1     0     0
SMALL
bcc


@<TRIPOS>ATOM
      1 O5         -2.4010   -4.0530   -1.6040 o         1 LH3     -0.614500
      2 C31        -1.3580   -3.6380   -1.0730 c         1 LH3      0.760500
      3 N3         -0.7770   -4.1600    0.1070 n         1 LH3     -0.530900
      4 C           0.5100   -3.5240    0.3550 c3        1 LH3      0.070700
      5 N2         -0.5740   -2.5540   -1.5920 n         1 LH3     -0.525900
      6 C30         0.6090   -2.3790   -0.7490 c3        1 LH3      0.052700
      7 C2          1.9400   -2.4990   -1.5030 c3        1 LH3      0.027400
      8 S           2.6090   -4.1330   -1.2110 ss        1 LH3     -0.356200
      9 C1          1.7300   -4.4320    0.2950 c3        1 LH3     -0.017300
     10 C3          1.8510   -2.2600   -2.9920 c3        1 LH3     -0.058400
     11 C4          3.2280   -2.2830   -3.6350 c3        1 LH3     -0.089400
     12 C5          3.1080   -2.6250   -5.1090 c3        1 LH3     -0.084400
     13 C6          4.4910   -2.6890   -5.7370 c3        1 LH3     -0.153400
     14 C7          4.4140   -3.2050   -7.1350 c         1 LH3      0.597100
     15 O           4.3560   -2.6970   -8.2260 o         1 LH3     -0.353100
     16 N           4.3860   -4.8220   -7.1650 n4        1 LH3     -0.588600
     17 N1          4.1270   -5.4520   -8.4340 n4        1 LH3     -0.417200
     18 C8          4.2920   -6.9110   -8.4190 ca        1 LH3     -0.136400
     19 C13         3.1590   -7.7230   -8.1750 cp        1 LH3      0.034500
     20 C14         1.8880   -7.1100   -7.7830 cp        1 LH3     -0.136500
     21 C19         0.8240   -7.0420   -8.6880 ca        1 LH3     -0.158750
     22 C18        -0.3970   -6.4930   -8.2890 ca        1 LH3     -0.060250
     23 C17        -0.5560   -6.0170   -6.9830 ca        1 LH3     -0.082600
     24 C20        -1.8680   -5.4560   -6.5880 c         1 LH3      0.623700
     25 O2         -1.9550   -5.1390   -5.2680 os        1 LH3     -0.427900
     26 C21        -3.2290   -4.6610   -4.8050 c3        1 LH3      0.119200
     27 O1         -2.8270   -5.2590   -7.3350 o         1 LH3     -0.500000
     28 C16         0.5030   -6.1000   -6.0690 ca        1 LH3     -0.060250
     29 C15         1.7240   -6.6360   -6.4690 ca        1 LH3     -0.158750
     30 C12         3.3030   -9.1040   -8.3190 ca        1 LH3     -0.093000
     31 C11         4.5430   -9.6560   -8.6550 ca        1 LH3     -0.020000
     32 C10         5.6670   -8.8440   -8.8360 ca        1 LH3     -0.093000
     33 C9          5.5670   -7.4590   -8.7020 cp        1 LH3      0.034500
     34 C22         6.7260   -6.5730   -8.8350 cp        1 LH3     -0.136500
     35 C27         7.3510   -6.0840   -7.6740 ca        1 LH3     -0.158750
     36 C26         8.4590   -5.2500   -7.7810 ca        1 LH3     -0.060250
     37 C25         8.9470   -4.8940   -9.0480 ca        1 LH3     -0.082600
     38 C24         8.3490   -5.4060  -10.2020 ca        1 LH3     -0.060250
     39 C23         7.2350   -6.2440  -10.0950 ca        1 LH3     -0.158750
     40 C28        10.1030   -3.9710   -9.1160 c         1 LH3      0.623700
     41 O3         10.4820   -3.2260   -8.2100 o         1 LH3     -0.500000
     42 O4         10.7520   -3.9810  -10.3090 os        1 LH3     -0.427900
     43 C29        11.9070   -3.1330  -10.4180 c3        1 LH3      0.119200
     44 H3         -0.8970   -5.1220    0.3170 hn        1 LH3      0.333500
     45 H2         -1.0840   -1.7250   -1.8060 hn        1 LH3      0.314500
     46 H           0.4560   -3.0460    1.3760 h1        1 LH3      0.102700
     47 H30         0.5870   -1.3770   -0.2320 h1        1 LH3      0.082700
     48 H11C        1.4680   -5.5180    0.3330 h1        1 LH3      0.095200
     49 H12C        2.4000   -4.2180    1.1640 h1        1 LH3      0.095200
     50 HA          2.6530   -1.7570   -1.0530 h1        1 LH3      0.086700
     51 H31C        1.2010   -3.0470   -3.4610 hc        1 LH3      0.069200
     52 H32C        1.3650   -1.2670   -3.1830 hc        1 LH3      0.069200
     53 H41C        3.7240   -1.2840   -3.5120 hc        1 LH3      0.069700
     54 H42C        3.8760   -3.0460   -3.1220 hc        1 LH3      0.069700
     55 H51C        2.4850   -1.8460   -5.6250 hc        1 LH3      0.064700
     56 H52C        2.5840   -3.6110   -5.2170 hc        1 LH3      0.064700
     57 H61C        5.1860   -3.3060   -5.1030 hc        1 LH3      0.139700
     58 H62C        4.9330   -1.6480   -5.8080 hc        1 LH3      0.139700
     59 HB          5.3180   -5.1560   -6.8310 hn        1 LH3      0.497300
     60 H1          3.1430   -5.2280   -8.7120 hn        1 LH3      0.513300
     61 H12         2.4270   -9.7590   -8.1560 ha        1 LH3      0.199000
     62 H19         0.9320   -7.4440   -9.7090 ha        1 LH3      0.151500
     63 H15         2.5170   -6.7920   -5.7210 ha        1 LH3      0.151500
     64 H18        -1.2500   -6.4440   -8.9930 ha        1 LH3      0.193250
     65 H16         0.3470   -5.7630   -5.0270 ha        1 LH3      0.193250
     66 H211       -3.4900   -3.7160   -5.3380 h1        1 LH3      0.074200
     67 H212       -4.0090   -5.4380   -4.9880 h1        1 LH3      0.074200
     68 H213       -3.0540   -4.4920   -3.7100 h1        1 LH3      0.074200
     69 H11         4.6400  -10.7540   -8.7670 ha        1 LH3      0.197000
     70 H10         6.6470   -9.2960   -9.0780 ha        1 LH3      0.199000
     71 H27         7.0350   -6.4420   -6.6810 ha        1 LH3      0.151500
     72 H23         6.7810   -6.6630  -11.0080 ha        1 LH3      0.151500
     73 H26         8.9790   -4.8740   -6.8800 ha        1 LH3      0.193250
     74 H24         8.7700   -5.1570  -11.1950 ha        1 LH3      0.193250
     75 H291       12.6620   -3.4250   -9.6500 h1        1 LH3      0.074200
     76 H292       12.2700   -3.3340  -11.4570 h1        1 LH3      0.074200
     77 H293       11.6040   -2.0670  -10.2820 h1        1 LH3      0.074200
     78 HN3         3.6640   -5.1480   -6.4860 hn        1 LH3      0.497300
     79 H121        4.7940   -5.0450   -9.1310 hn        1 LH3      0.513300
@<TRIPOS>BOND
     1    1    2 2   
     2    2    3 1   
     3    2    5 1   
     4    3    4 1   
     5    3   44 1   
     6    4    6 1   
     7    4    9 1   
     8    4   46 1   
     9    5    6 1   
    10    5   45 1   
    11    6    7 1   
    12    6   47 1   
    13    7    8 1   
    14    7   10 1   
    15    7   50 1   
    16    8    9 1   
    17    9   48 1   
    18    9   49 1   
    19   10   11 1   
    20   10   51 1   
    21   10   52 1   
    22   11   12 1   
    23   11   53 1   
    24   11   54 1   
    25   12   13 1   
    26   12   55 1   
    27   12   56 1   
    28   13   14 1   
    29   13   57 1   
    30   13   58 1   
    31   14   15 2   
    32   14   16 1   
    33   16   17 1   
    34   16   59 1   
    35   16   78 1   
    36   17   18 1   
    37   17   60 1   
    38   17   79 1   
    39   18   19 ar  
    40   18   33 ar  
    41   19   20 1   
    42   19   30 ar  
    43   20   21 ar  
    44   20   29 ar  
    45   21   22 ar  
    46   21   62 1   
    47   22   23 ar  
    48   22   64 1   
    49   23   24 1   
    50   23   28 ar  
    51   24   25 1   
    52   24   27 2   
    53   25   26 1   
    54   26   66 1   
    55   26   67 1   
    56   26   68 1   
    57   28   29 ar  
    58   28   65 1   
    59   29   63 1   
    60   30   31 ar  
    61   30   61 1   
    62   31   32 ar  
    63   31   69 1   
    64   32   33 ar  
    65   32   70 1   
    66   33   34 1   
    67   34   35 ar  
    68   34   39 ar  
    69   35   36 ar  
    70   35   71 1   
    71   36   37 ar  
    72   36   73 1   
    73   37   38 ar  
    74   37   40 1   
    75   38   39 ar  
    76   38   74 1   
    77   39   72 1   
    78   40   41 2   
    79   40   42 1   
    80   42   43 1   
    81   43   75 1   
    82   43   76 1   
    83   43   77 1   
@<TRIPOS>SUBSTRUCTURE
     1 LH3         1 TEMP              0 ****  ****    0 ROOT
