@<TRIPOS>MOLECULE
LH3
   78    82     1     0     0
SMALL
bcc


@<TRIPOS>ATOM
      1 O5          1.4930   -1.0480    1.9380 o         1 LH3     -0.606500
      2 C31         2.0160   -0.4420    0.9880 c         1 LH3      0.755500
      3 N3          3.0960    0.4800    1.0950 ns        1 LH3     -0.518900
      4 C           3.5630    0.8310   -0.2410 c3        1 LH3      0.066700
      5 N2          1.5460   -0.4940   -0.3590 ns        1 LH3     -0.526900
      6 C30         2.5000    0.1720   -1.2320 c3        1 LH3      0.065700
      7 C2          3.2270   -0.6730   -2.2830 c3        1 LH3     -0.011600
      8 S           4.8770   -1.0100   -1.6910 ss        1 LH3     -0.312200
      9 C1          4.9710    0.3780   -0.6030 c3        1 LH3     -0.036300
     10 C3          2.5490   -1.9710   -2.6540 c3        1 LH3     -0.069400
     11 C4          3.2420   -2.6270   -3.8340 c3        1 LH3     -0.083400
     12 C5          2.6280   -3.9810   -4.1230 c3        1 LH3     -0.084400
     13 C6          3.3710   -4.6590   -5.2600 c3        1 LH3     -0.143400
     14 C7          2.7720   -5.9960   -5.5500 c         1 LH3      0.570100
     15 O           1.8170   -6.5680   -5.0600 o         1 LH3     -0.405100
     16 N           3.4770   -6.8120   -6.6600 ny        1 LH3     -0.489600
     17 N1          3.2620   -6.2700   -7.9530 nu        1 LH3     -0.428400
     18 C8          3.8160   -7.0720   -9.0190 ca        1 LH3     -0.025400
     19 C13         2.9670   -7.7450   -9.9310 cp        1 LH3     -0.008500
     20 C14         1.5150   -7.7730   -9.7360 cp        1 LH3     -0.063500
     21 C19         0.6700   -7.1780  -10.6810 ca        1 LH3     -0.147500
     22 C18        -0.7130   -7.2140  -10.5060 ca        1 LH3     -0.067250
     23 C17        -1.2590   -7.8530   -9.3860 ca        1 LH3     -0.111600
     24 C20        -2.7250   -7.8730   -9.2330 c         1 LH3      0.633200
     25 O2         -3.1630   -8.5450   -8.1260 os        1 LH3     -0.435900
     26 C21        -4.5830   -8.6130   -7.9440 c3        1 LH3      0.125200
     27 O1         -3.5590   -7.3560   -9.9790 o         1 LH3     -0.517500
     28 C16        -0.4190   -8.4640   -8.4470 ca        1 LH3     -0.067250
     29 C15         0.9620   -8.4180   -8.6200 ca        1 LH3     -0.147500
     30 C12         3.5240   -8.3790  -11.0460 ca        1 LH3     -0.102500
     31 C11         4.9030   -8.3810  -11.2440 ca        1 LH3     -0.077000
     32 C10         5.7440   -7.7450  -10.3320 ca        1 LH3     -0.102500
     33 C9          5.2170   -7.0880   -9.2170 cp        1 LH3     -0.008500
     34 C22         6.1320   -6.4250   -8.2800 cp        1 LH3     -0.063500
     35 C27         6.6980   -7.1520   -7.2210 ca        1 LH3     -0.147500
     36 C26         7.5840   -6.5330   -6.3430 ca        1 LH3     -0.067250
     37 C25         7.9090   -5.1810   -6.5170 ca        1 LH3     -0.111600
     38 C24         7.3610   -4.4580   -7.5810 ca        1 LH3     -0.067250
     39 C23         6.4700   -5.0780   -8.4580 ca        1 LH3     -0.147500
     40 C28         8.8410   -4.5570   -5.5590 c         1 LH3      0.633200
     41 O3          9.2430   -5.0370   -4.4970 o         1 LH3     -0.517500
     42 O4          9.2690   -3.3120   -5.9230 os        1 LH3     -0.435900
     43 C29        10.2020   -2.6760   -5.0410 c3        1 LH3      0.125200
     44 H3          3.7710    0.3040    1.8030 hn        1 LH3      0.322500
     45 H2          1.1320   -1.3460   -0.6570 hn        1 LH3      0.314500
     46 H           3.4960    1.9530   -0.3330 h1        1 LH3      0.096700
     47 H30         1.9410    0.9960   -1.7620 h1        1 LH3      0.091700
     48 H11C        5.5740    0.0760    0.2890 h1        1 LH3      0.089200
     49 H12C        5.5150    1.2150   -1.1060 h1        1 LH3      0.089200
     50 HA          3.3230   -0.0420   -3.2080 h1        1 LH3      0.082700
     51 H31C        2.5640   -2.6790   -1.7820 hc        1 LH3      0.061700
     52 H32C        1.4760   -1.7710   -2.9180 hc        1 LH3      0.061700
     53 H41C        4.3360   -2.7440   -3.6040 hc        1 LH3      0.059200
     54 H42C        3.1560   -1.9690   -4.7390 hc        1 LH3      0.059200
     55 H51C        1.5450   -3.8610   -4.3940 hc        1 LH3      0.071200
     56 H52C        2.6720   -4.6250   -3.2040 hc        1 LH3      0.071200
     57 H61C        3.3220   -4.0270   -6.1910 hc        1 LH3      0.112200
     58 H62C        4.4570   -4.7830   -4.9880 hc        1 LH3      0.112200
     59 HB          4.5020   -6.7700   -6.4980 hn        1 LH3      0.454300
     60 H1          2.2540   -6.1850   -8.0940 hn        1 LH3      0.414800
     61 H12         2.8590   -8.8860  -11.7660 ha        1 LH3      0.168500
     62 H19         1.0980   -6.6830  -11.5670 ha        1 LH3      0.146250
     63 H15         1.6150   -8.9350   -7.9020 ha        1 LH3      0.146250
     64 H18        -1.3860   -6.7470  -11.2460 ha        1 LH3      0.175750
     65 H16        -0.8590   -8.9850   -7.5790 ha        1 LH3      0.175750
     66 H211       -4.6940   -9.2080   -7.0040 h1        1 LH3      0.061533
     67 H212       -4.9990   -7.5830   -7.8340 h1        1 LH3      0.061533
     68 H213       -5.0520   -9.1280   -8.8170 h1        1 LH3      0.061533
     69 H11         5.3310   -8.8890  -12.1250 ha        1 LH3      0.168000
     70 H10         6.8350   -7.7540  -10.4890 ha        1 LH3      0.168500
     71 H27         6.4870   -8.2270   -7.1140 ha        1 LH3      0.146250
     72 H23         6.0430   -4.5100   -9.2990 ha        1 LH3      0.146250
     73 H26         8.0470   -7.0980   -5.5150 ha        1 LH3      0.175750
     74 H24         7.6440   -3.4010   -7.7290 ha        1 LH3      0.175750
     75 H291       10.4180   -1.7050   -5.5520 h1        1 LH3      0.061533
     76 H292        9.7310   -2.5220   -4.0410 h1        1 LH3      0.061533
     77 H293       11.1200   -3.3040   -4.9440 h1        1 LH3      0.061533
     78 HN3         3.1740   -7.7990   -6.5820 hn        1 LH3      0.454300
@<TRIPOS>BOND
     1    1    2 2   
     2    2    3 1   
     3    2    5 1   
     4    3    4 1   
     5    3   44 1   
     6    4    6 1   
     7    4    9 1   
     8    4   46 1   
     9    5    6 1   
    10    5   45 1   
    11    6    7 1   
    12    6   47 1   
    13    7    8 1   
    14    7   10 1   
    15    7   50 1   
    16    8    9 1   
    17    9   48 1   
    18    9   49 1   
    19   10   11 1   
    20   10   51 1   
    21   10   52 1   
    22   11   12 1   
    23   11   53 1   
    24   11   54 1   
    25   12   13 1   
    26   12   55 1   
    27   12   56 1   
    28   13   14 1   
    29   13   57 1   
    30   13   58 1   
    31   14   15 2   
    32   14   16 1   
    33   16   17 1   
    34   16   59 1   
    35   16   78 1   
    36   17   18 1   
    37   17   60 1   
    38   18   19 ar  
    39   18   33 ar  
    40   19   20 1   
    41   19   30 ar  
    42   20   21 ar  
    43   20   29 ar  
    44   21   22 ar  
    45   21   62 1   
    46   22   23 ar  
    47   22   64 1   
    48   23   24 1   
    49   23   28 ar  
    50   24   25 1   
    51   24   27 2   
    52   25   26 1   
    53   26   66 1   
    54   26   67 1   
    55   26   68 1   
    56   28   29 ar  
    57   28   65 1   
    58   29   63 1   
    59   30   31 ar  
    60   30   61 1   
    61   31   32 ar  
    62   31   69 1   
    63   32   33 ar  
    64   32   70 1   
    65   33   34 1   
    66   34   35 ar  
    67   34   39 ar  
    68   35   36 ar  
    69   35   71 1   
    70   36   37 ar  
    71   36   73 1   
    72   37   38 ar  
    73   37   40 1   
    74   38   39 ar  
    75   38   74 1   
    76   39   72 1   
    77   40   41 2   
    78   40   42 1   
    79   42   43 1   
    80   43   75 1   
    81   43   76 1   
    82   43   77 1   
@<TRIPOS>SUBSTRUCTURE
     1 LH3         1 TEMP              0 ****  ****    0 ROOT
