@<TRIPOS>MOLECULE
LHC
   26    24     1     0     0
SMALL
bcc


@<TRIPOS>ATOM
      1 N          -2.8410    0.3960   -2.3660 n3        1 LHC     -0.339000
      2 CA         -1.5800   -0.2560   -2.4240 c3        1 LHC     -0.140000
      3 CB         -1.0090   -0.3760   -1.0240 c3        1 LHC     -0.158000
      4 CG          0.3670    0.2830   -0.9780 c3        1 LHC     -0.040000
      5 N1          0.8610    0.2740    0.3820 n3        1 LHC     -0.242000
      6 C6          0.6190    1.3860    1.2330 c2        1 LHC      0.084000
      7 C5          1.1440    1.3860    2.6160 c1        1 LHC     -0.379000
      8 C4          1.8920    0.2230    3.1140 c1        1 LHC      0.198000
      9 N4          2.4300    0.2340    4.4430 n3        1 LHC     -0.338000
     10 N3          2.1260   -0.8910    2.2580 n1        1 LHC     -0.306000
     11 C2          1.6450   -0.8680    0.8700 c1        1 LHC      0.341000
     12 O2          1.8460   -1.8180    0.1440 o         1 LHC     -0.361000
     13 C          -1.7510   -1.6340   -3.0190 c2        1 LHC      0.311000
     14 O          -1.0210   -2.0020   -3.9760 o         1 LHC     -0.569500
     15 OXT        -2.6480   -2.4030   -2.5790 o         1 LHC     -0.569500
     16 HN         -2.7350    1.2800   -2.5590 hn        1 LHC      0.131000
     17 HA         -0.9670    0.2680   -2.9830 h1        1 LHC      0.082000
     18 HB         -0.9260   -1.3260   -0.7840 hc        1 LHC      0.100500
     19 HBA        -1.6040    0.0690   -0.3900 hc        1 LHC      0.100500
     20 HG          0.2970    1.2090   -1.2940 h1        1 LHC      0.109000
     21 HGA         0.9880   -0.2140   -1.5550 h1        1 LHC      0.109000
     22 H6          0.1200    2.1590    0.8980 h4        1 LHC      0.195000
     23 H5          0.9780    2.1490    3.2020 ha        1 LHC      0.147000
     24 HN4         2.3200    0.9690    4.9740 hn        1 LHC      0.201500
     25 HN4A        2.8580   -0.5120    4.7720 hn        1 LHC      0.201500
     26 HNA        -3.4100    0.0170   -2.9750 hn        1 LHC      0.131000
@<TRIPOS>BOND
     1    1    2 1   
     2    1   16 1   
     3    1   26 1   
     4    2    3 1   
     5    2   13 1   
     6    2   17 1   
     7    3    4 1   
     8    3   18 1   
     9    3   19 1   
    10    4    5 1   
    11    4   20 1   
    12    4   21 1   
    13    5    6 1   
    14    5   11 1   
    15    6    7 1   
    16    6   22 1   
    17    7   23 1   
    18    8    9 1   
    19    8   10 1   
    20    9   24 1   
    21    9   25 1   
    22   11   12 1   
    23   13   14 1   
    24   13   15 1   
@<TRIPOS>SUBSTRUCTURE
     1 LHC         1 TEMP              0 ****  ****    0 ROOT
