@<TRIPOS>MOLECULE
LHC
   26    26     1     0     0
SMALL
bcc


@<TRIPOS>ATOM
      1 N          -2.9890   -1.0520    1.6420 n3        1 LHC     -0.890800
      2 CA         -2.6860   -0.3030    0.4310 c3        1 LHC      0.018500
      3 CB         -1.2650   -0.5370   -0.0850 c3        1 LHC     -0.084400
      4 CG         -0.2290   -0.0030    0.8940 c3        1 LHC      0.080000
      5 N1          1.1560   -0.0740    0.4440 n         1 LHC     -0.351000
      6 C6          1.5190   -0.5690   -0.7720 cc        1 LHC      0.080600
      7 C5          2.8360   -0.6170   -1.1790 cd        1 LHC     -0.465600
      8 C4          3.8470   -0.1210   -0.2630 cd        1 LHC      0.724500
      9 N4          5.1890   -0.2440   -0.6350 nh        1 LHC     -0.899800
     10 N3          3.5340    0.3980    0.9350 nc        1 LHC     -0.731100
     11 C2          2.1860    0.4230    1.3270 c         1 LHC      0.818900
     12 O2          1.8310    0.8800    2.4340 o         1 LHC     -0.626500
     13 C          -3.6740   -0.5670   -0.7590 c         1 LHC      0.888600
     14 O          -4.7320   -1.2090   -0.5120 o         1 LHC     -0.837800
     15 OXT        -3.3570   -0.1060   -1.8910 o         1 LHC     -0.837800
     16 HN         -3.9740   -0.9410    1.8210 hn        1 LHC      0.334800
     17 HA         -2.7930    0.7900    0.6920 h1        1 LHC      0.046700
     18 HB         -1.1030   -1.6310   -0.2650 hc        1 LHC      0.055700
     19 HBA        -1.1980   -0.0060   -1.0740 hc        1 LHC      0.055700
     20 HG         -0.4480    1.0810    1.1200 h1        1 LHC      0.073200
     21 HGA        -0.2890   -0.5680    1.8680 h1        1 LHC      0.073200
     22 H6          0.7130   -0.9370   -1.4400 h4        1 LHC      0.178000
     23 H5          3.1030   -1.0300   -2.1550 ha        1 LHC      0.147000
     24 HN4         5.3480   -0.2420   -1.6150 hn        1 LHC      0.407300
     25 HN4A        5.8540    0.2630   -0.0970 hn        1 LHC      0.407300
     26 HNA        -2.8460   -2.0300    1.4560 hn        1 LHC      0.334800
@<TRIPOS>BOND
     1    1    2 1   
     2    1   16 1   
     3    1   26 1   
     4    2    3 1   
     5    2   13 1   
     6    2   17 1   
     7    3    4 1   
     8    3   18 1   
     9    3   19 1   
    10    4    5 1   
    11    4   20 1   
    12    4   21 1   
    13    5    6 1   
    14    5   11 1   
    15    6    7 2   
    16    6   22 1   
    17    7    8 1   
    18    7   23 1   
    19    8    9 1   
    20    8   10 2   
    21    9   24 1   
    22    9   25 1   
    23   10   11 1   
    24   11   12 2   
    25   13   14 1   
    26   13   15 1   
@<TRIPOS>SUBSTRUCTURE
     1 LHC         1 TEMP              0 ****  ****    0 ROOT
