@<TRIPOS>MOLECULE
LHG
  123   122     1     0     0
SMALL
bcc


@<TRIPOS>ATOM
      1 O1          4.2370    1.6480   -0.9690 oh        1 LHG     -0.648800
      2 C1          4.3360    2.7910   -0.1460 c3        1 LHG      0.118400
      3 C2          5.6720    2.8230    0.6030 c3        1 LHG      0.083100
      4 O2          6.7440    2.9090   -0.3290 oh        1 LHG     -0.618800
      5 C3          5.9010    1.6040    1.5110 c3        1 LHG      0.166400
      6 O3          5.1160    1.6740    2.6610 os        1 LHG     -0.567200
      7 P           4.0170    0.4630    2.8570 p5        1 LHG      1.449800
      8 O4          3.2740    0.6800    4.1130 o         1 LHG     -0.838500
      9 O5          3.4310    0.2580    1.5160 o         1 LHG     -0.838500
     10 O6          5.1060   -0.7590    3.1000 os        1 LHG     -0.583200
     11 C4          4.9450   -1.5650    4.2210 c3        1 LHG      0.186400
     12 C5          6.2580   -1.5770    5.0300 c3        1 LHG      0.119100
     13 C6          6.3460   -0.4880    6.0980 c3        1 LHG      0.123400
     14 O7          6.2870   -2.8800    5.6530 os        1 LHG     -0.429900
     15 C7          7.4900   -3.3810    6.0420 c         1 LHG      0.633100
     16 O9          8.5210   -2.7280    5.8530 o         1 LHG     -0.559000
     17 C8          7.3600   -4.7260    6.6930 c3        1 LHG     -0.130400
     18 C9          8.5300   -5.6180    6.3370 c3        1 LHG     -0.079400
     19 C10         8.4700   -6.9190    7.1080 c3        1 LHG     -0.078400
     20 O8          5.0900   -0.4210    6.7800 os        1 LHG     -0.448900
     21 C23         4.6420    0.8280    7.1390 c         1 LHG      0.664100
     22 O10         5.4840    1.7120    7.3160 o         1 LHG     -0.565000
     23 C24         3.1560    0.8830    7.2520 c3        1 LHG     -0.156400
     24 C11         9.6280   -7.8230    6.7420 c3        1 LHG     -0.079400
     25 C12         9.5750   -9.1230    7.5160 c3        1 LHG     -0.078400
     26 C13        10.7320  -10.0270    7.1490 c3        1 LHG     -0.079400
     27 C14        10.6810  -11.3270    7.9230 c3        1 LHG     -0.078400
     28 C15        11.8380  -12.2320    7.5570 c3        1 LHG     -0.079400
     29 C16        11.7870  -13.5310    8.3310 c3        1 LHG     -0.078400
     30 C17        12.9440  -14.4350    7.9650 c3        1 LHG     -0.079400
     31 C18        12.8930  -15.7350    8.7390 c3        1 LHG     -0.078400
     32 C19        14.0500  -16.6390    8.3730 c3        1 LHG     -0.079400
     33 C20        13.9990  -17.9390    9.1470 c3        1 LHG     -0.079400
     34 C21        15.1560  -18.8440    8.7820 c3        1 LHG     -0.080400
     35 C22        15.1100  -20.1390    9.5500 c3        1 LHG     -0.092100
     36 C25         2.7000    2.0360    8.1170 c3        1 LHG     -0.070400
     37 C26         1.1940    2.1800    8.0640 c3        1 LHG     -0.079400
     38 C27         0.7240    3.3310    8.9280 c3        1 LHG     -0.077400
     39 C28        -0.7810    3.4780    8.8750 c3        1 LHG     -0.079400
     40 C29        -1.2530    4.6290    9.7380 c3        1 LHG     -0.078400
     41 C30        -2.7580    4.7750    9.6860 c3        1 LHG     -0.079400
     42 C31        -3.2300    5.9250   10.5500 c3        1 LHG     -0.078400
     43 C32        -4.7360    6.0700   10.4980 c3        1 LHG     -0.079400
     44 C33        -5.2080    7.2210   11.3620 c3        1 LHG     -0.078400
     45 C34        -6.7130    7.3650   11.3110 c3        1 LHG     -0.079400
     46 C35        -7.1850    8.5150   12.1750 c3        1 LHG     -0.079400
     47 C36        -8.6910    8.6590   12.1250 c3        1 LHG     -0.079400
     48 C37        -9.1640    9.8090   12.9880 c3        1 LHG     -0.080400
     49 C38       -10.6630    9.9550   12.9420 c3        1 LHG     -0.092100
     50 HO1         3.9020    0.9200   -0.4180 ho        1 LHG      0.461000
     51 HC11        3.4840    2.8490    0.5770 h1        1 LHG      0.042200
     52 HC12        4.2930    3.6630   -0.8540 h1        1 LHG      0.042200
     53 HC2         5.7420    3.7650    1.2120 h1        1 LHG      0.071700
     54 H02         6.6120    2.1850   -0.9560 ho        1 LHG      0.404000
     55 HC31        5.6860    0.6590    0.9380 h1        1 LHG      0.035200
     56 HC32        6.9850    1.6110    1.8230 h1        1 LHG      0.035200
     57 HC41        4.0970   -1.2020    4.8650 h1        1 LHG      0.054200
     58 HC42        4.7420   -2.6210    3.8800 h1        1 LHG      0.054200
     59 HC5         7.1420   -1.4710    4.3420 h1        1 LHG      0.086700
     60 HC61        7.1310   -0.7440    6.8560 h1        1 LHG      0.066200
     61 HC62        6.5860    0.4950    5.6130 h1        1 LHG      0.066200
     62 HC81        6.3920   -5.2020    6.3830 hc        1 LHG      0.073700
     63 HC82        7.3190   -4.5570    7.8030 hc        1 LHG      0.073700
     64 HC91        8.5190   -5.8290    5.2360 hc        1 LHG      0.056700
     65 HC92        9.4890   -5.0800    6.5610 hc        1 LHG      0.056700
     66 H101        8.4930   -6.7060    8.2100 hc        1 LHG      0.038200
     67 H102        7.5010   -7.4420    6.8920 hc        1 LHG      0.038200
     68 H241        2.7760    0.9940    6.1870 hc        1 LHG      0.115700
     69 H242        2.7710   -0.0920    7.6470 hc        1 LHG      0.115700
     70 H111        9.6030   -8.0390    5.6410 hc        1 LHG      0.041700
     71 H112       10.5960   -7.2970    6.9540 hc        1 LHG      0.041700
     72 H121        9.6010   -8.9070    8.6160 hc        1 LHG      0.038200
     73 H122        8.6060   -9.6480    7.3040 hc        1 LHG      0.038200
     74 H131       10.7070  -10.2440    6.0490 hc        1 LHG      0.040200
     75 H132       11.7010   -9.5020    7.3600 hc        1 LHG      0.040200
     76 H141       10.7060  -11.1110    9.0240 hc        1 LHG      0.038700
     77 H142        9.7120  -11.8520    7.7120 hc        1 LHG      0.038700
     78 H151       12.8070  -11.7060    7.7680 hc        1 LHG      0.039700
     79 H152       11.8120  -12.4480    6.4560 hc        1 LHG      0.039700
     80 H161       11.8120  -13.3150    9.4310 hc        1 LHG      0.038700
     81 H162       10.8180  -14.0560    8.1200 hc        1 LHG      0.038700
     82 H171       13.9130  -13.9100    8.1750 hc        1 LHG      0.039700
     83 H172       12.9180  -14.6520    6.8640 hc        1 LHG      0.039700
     84 H181       11.9240  -16.2600    8.5280 hc        1 LHG      0.038700
     85 H182       12.9190  -15.5180    9.8400 hc        1 LHG      0.038700
     86 H191       15.0190  -16.1140    8.5830 hc        1 LHG      0.039200
     87 H192       14.0240  -16.8560    7.2720 hc        1 LHG      0.039200
     88 H201       14.0250  -17.7220   10.2480 hc        1 LHG      0.038700
     89 H202       13.0310  -18.4640    8.9370 hc        1 LHG      0.038700
     90 H211       15.1300  -19.0580    7.6800 hc        1 LHG      0.038200
     91 H212       16.1240  -18.3160    8.9910 hc        1 LHG      0.038200
     92 H221       15.1610  -19.9480   10.6490 hc        1 LHG      0.031367
     93 H222       15.9710  -20.7910    9.2660 hc        1 LHG      0.031367
     94 H223       14.1630  -20.6920    9.3350 hc        1 LHG      0.031367
     95 H251        3.1880    2.9820    7.7620 hc        1 LHG      0.044700
     96 H252        3.0290    1.8730    9.1770 hc        1 LHG      0.044700
     97 H261        0.7110    1.2280    8.4090 hc        1 LHG      0.045200
     98 H262        0.8730    2.3490    7.0020 hc        1 LHG      0.045200
     99 H271        1.0490    3.1630    9.9890 hc        1 LHG      0.036700
    100 H272        1.2080    4.2820    8.5820 hc        1 LHG      0.036700
    101 H281       -1.2650    2.5260    9.2200 hc        1 LHG      0.039700
    102 H282       -1.1040    3.6470    7.8140 hc        1 LHG      0.039700
    103 H291       -0.7700    5.5800    9.3920 hc        1 LHG      0.037700
    104 H292       -0.9280    4.4610   10.7990 hc        1 LHG      0.037700
    105 H301       -3.2410    3.8230   10.0320 hc        1 LHG      0.039200
    106 H302       -3.0830    4.9430    8.6250 hc        1 LHG      0.039200
    107 H311       -2.7480    6.8770   10.2030 hc        1 LHG      0.038200
    108 H312       -2.9040    5.7580   11.6100 hc        1 LHG      0.038200
    109 H321       -5.2170    5.1180   10.8450 hc        1 LHG      0.039700
    110 H322       -5.0610    6.2380    9.4380 hc        1 LHG      0.039700
    111 H331       -4.8810    7.0530   12.4220 hc        1 LHG      0.038700
    112 H332       -4.7270    8.1730   11.0150 hc        1 LHG      0.038700
    113 H341       -7.1940    6.4120   11.6580 hc        1 LHG      0.039200
    114 H342       -7.0400    7.5320   10.2510 hc        1 LHG      0.039200
    115 H351       -6.7050    9.4670   11.8270 hc        1 LHG      0.038700
    116 H352       -6.8580    8.3480   13.2350 hc        1 LHG      0.038700
    117 H361       -9.0180    8.8260   11.0650 hc        1 LHG      0.039200
    118 H362       -9.1720    7.7060   12.4720 hc        1 LHG      0.039200
    119 H371       -8.6820   10.7600   12.6400 hc        1 LHG      0.037700
    120 H372       -8.8350    9.6400   14.0480 hc        1 LHG      0.037700
    121 H381      -11.1620    9.0250   13.3090 hc        1 LHG      0.031367
    122 H382      -10.9910   10.8080   13.5850 hc        1 LHG      0.031367
    123 H383      -11.0090   10.1480   11.8980 hc        1 LHG      0.031367
@<TRIPOS>BOND
     1    1    2 1   
     2    1   50 1   
     3    2    3 1   
     4    2   51 1   
     5    2   52 1   
     6    3    4 1   
     7    3    5 1   
     8    3   53 1   
     9    4   54 1   
    10    5    6 1   
    11    5   55 1   
    12    5   56 1   
    13    6    7 1   
    14    7    8 1   
    15    7    9 1   
    16    7   10 1   
    17   10   11 1   
    18   11   12 1   
    19   11   57 1   
    20   11   58 1   
    21   12   13 1   
    22   12   14 1   
    23   12   59 1   
    24   13   20 1   
    25   13   60 1   
    26   13   61 1   
    27   14   15 1   
    28   15   16 2   
    29   15   17 1   
    30   17   18 1   
    31   17   62 1   
    32   17   63 1   
    33   18   19 1   
    34   18   64 1   
    35   18   65 1   
    36   19   24 1   
    37   19   66 1   
    38   19   67 1   
    39   20   21 1   
    40   21   22 2   
    41   21   23 1   
    42   23   36 1   
    43   23   68 1   
    44   23   69 1   
    45   24   25 1   
    46   24   70 1   
    47   24   71 1   
    48   25   26 1   
    49   25   72 1   
    50   25   73 1   
    51   26   27 1   
    52   26   74 1   
    53   26   75 1   
    54   27   28 1   
    55   27   76 1   
    56   27   77 1   
    57   28   29 1   
    58   28   78 1   
    59   28   79 1   
    60   29   30 1   
    61   29   80 1   
    62   29   81 1   
    63   30   31 1   
    64   30   82 1   
    65   30   83 1   
    66   31   32 1   
    67   31   84 1   
    68   31   85 1   
    69   32   33 1   
    70   32   86 1   
    71   32   87 1   
    72   33   34 1   
    73   33   88 1   
    74   33   89 1   
    75   34   35 1   
    76   34   90 1   
    77   34   91 1   
    78   35   92 1   
    79   35   93 1   
    80   35   94 1   
    81   36   37 1   
    82   36   95 1   
    83   36   96 1   
    84   37   38 1   
    85   37   97 1   
    86   37   98 1   
    87   38   39 1   
    88   38   99 1   
    89   38  100 1   
    90   39   40 1   
    91   39  101 1   
    92   39  102 1   
    93   40   41 1   
    94   40  103 1   
    95   40  104 1   
    96   41   42 1   
    97   41  105 1   
    98   41  106 1   
    99   42   43 1   
   100   42  107 1   
   101   42  108 1   
   102   43   44 1   
   103   43  109 1   
   104   43  110 1   
   105   44   45 1   
   106   44  111 1   
   107   44  112 1   
   108   45   46 1   
   109   45  113 1   
   110   45  114 1   
   111   46   47 1   
   112   46  115 1   
   113   46  116 1   
   114   47   48 1   
   115   47  117 1   
   116   47  118 1   
   117   48   49 1   
   118   48  119 1   
   119   48  120 1   
   120   49  121 1   
   121   49  122 1   
   122   49  123 1   
@<TRIPOS>SUBSTRUCTURE
     1 LHG         1 TEMP              0 ****  ****    0 ROOT
