@<TRIPOS>MOLECULE
LHG
  123   122     1     0     0
SMALL
bcc


@<TRIPOS>ATOM
      1 O1         -6.5400    1.9800   -2.2460 oh        1 LHG     -0.618800
      2 C1         -5.5520    2.9810   -2.4040 c3        1 LHG      0.125400
      3 C2         -4.4080    2.7980   -1.4050 c3        1 LHG      0.099100
      4 O2         -4.9870    2.8400   -0.1060 oh        1 LHG     -0.644800
      5 C3         -3.3360    3.8710   -1.5930 c3        1 LHG      0.134400
      6 O3         -2.4570    3.8000   -0.5100 os        1 LHG     -0.583200
      7 P          -1.2880    4.9880   -0.6240 p5        1 LHG      1.420800
      8 O4         -0.6170    4.7540   -1.9170 o         1 LHG     -0.820500
      9 O5         -1.9060    6.2420   -0.1700 o         1 LHG     -0.820500
     10 O6         -0.3080    4.4070    0.5650 os        1 LHG     -0.559200
     11 C4          0.4720    3.3290    0.1380 c3        1 LHG      0.181400
     12 C5          1.2360    2.7860    1.3530 c3        1 LHG      0.138100
     13 C6          0.3280    2.1260    2.3850 c3        1 LHG      0.125400
     14 O7          2.1620    1.8240    0.8050 os        1 LHG     -0.425900
     15 C7          3.2720    1.5160    1.5290 c         1 LHG      0.634100
     16 O9          3.4600    2.0530    2.6240 o         1 LHG     -0.562000
     17 C8          4.1310    0.4970    0.8410 c3        1 LHG     -0.130400
     18 C9          5.5990    0.7660    1.0890 c3        1 LHG     -0.078400
     19 C10         6.4550   -0.3410    0.5130 c3        1 LHG     -0.078400
     20 O8         -0.5330    1.2100    1.6940 os        1 LHG     -0.439900
     21 C23        -1.7970    1.0450    2.1920 c         1 LHG      0.647100
     22 O10        -2.0130    1.3530    3.3670 o         1 LHG     -0.559000
     23 C24        -2.7350    0.5010    1.1630 c3        1 LHG     -0.141400
     24 C11         7.9260   -0.0680    0.7420 c3        1 LHG     -0.079400
     25 C12         8.7860   -1.1750    0.1720 c3        1 LHG     -0.078400
     26 C13        10.2570   -0.9020    0.4000 c3        1 LHG     -0.079400
     27 C14        11.1170   -2.0100   -0.1700 c3        1 LHG     -0.078400
     28 C15        12.5880   -1.7360    0.0590 c3        1 LHG     -0.079400
     29 C16        13.4480   -2.8440   -0.5100 c3        1 LHG     -0.078400
     30 C17        14.9190   -2.5710   -0.2820 c3        1 LHG     -0.079400
     31 C18        15.7800   -3.6780   -0.8510 c3        1 LHG     -0.078400
     32 C19        17.2510   -3.4050   -0.6220 c3        1 LHG     -0.079400
     33 C20        18.1110   -4.5120   -1.1920 c3        1 LHG     -0.079400
     34 C21        19.5830   -4.2400   -0.9640 c3        1 LHG     -0.080400
     35 C22        20.4430   -5.3400   -1.5290 c3        1 LHG     -0.092100
     36 C25        -3.9530   -0.1480    1.7840 c3        1 LHG     -0.071400
     37 C26        -5.0070   -0.4020    0.7280 c3        1 LHG     -0.090400
     38 C27        -6.2650   -0.9890    1.3310 c3        1 LHG     -0.074400
     39 C28        -7.3240   -1.2030    0.2700 c3        1 LHG     -0.080400
     40 C29        -8.6080   -1.7310    0.8720 c3        1 LHG     -0.077400
     41 C30        -9.6620   -1.9540   -0.1910 c3        1 LHG     -0.080400
     42 C31       -10.9490   -2.4780    0.4110 c3        1 LHG     -0.078400
     43 C32       -12.0020   -2.7010   -0.6530 c3        1 LHG     -0.079400
     44 C33       -13.2890   -3.2240   -0.0520 c3        1 LHG     -0.078400
     45 C34       -14.3420   -3.4470   -1.1160 c3        1 LHG     -0.079400
     46 C35       -15.6290   -3.9710   -0.5150 c3        1 LHG     -0.078400
     47 C36       -16.6830   -4.1940   -1.5790 c3        1 LHG     -0.079400
     48 C37       -17.9700   -4.7180   -0.9790 c3        1 LHG     -0.080400
     49 C38       -19.0220   -4.9400   -2.0350 c3        1 LHG     -0.092100
     50 HO1        -6.7360    1.9250   -1.3010 ho        1 LHG      0.413000
     51 HC11       -6.0190    3.9930   -2.2750 h1        1 LHG      0.045200
     52 HC12       -5.1750    2.8630   -3.4540 h1        1 LHG      0.045200
     53 HC2        -3.9520    1.7750   -1.5310 h1        1 LHG      0.045700
     54 H02        -4.3680    3.3090    0.4730 ho        1 LHG      0.445000
     55 HC31       -3.8030    4.8960   -1.6120 h1        1 LHG      0.043700
     56 HC32       -2.7660    3.7020   -2.5470 h1        1 LHG      0.043700
     57 HC41        1.1900    3.6770   -0.6530 h1        1 LHG      0.050700
     58 HC42       -0.1940    2.5340   -0.2960 h1        1 LHG      0.050700
     59 HC5         1.8060    3.6110    1.8640 h1        1 LHG      0.082700
     60 HC61       -0.2790    2.9180    2.9000 h1        1 LHG      0.068700
     61 HC62        0.9250    1.5380    3.1300 h1        1 LHG      0.068700
     62 HC81        3.8420   -0.5100    1.2440 hc        1 LHG      0.075700
     63 HC82        3.9090    0.5010   -0.2590 hc        1 LHG      0.075700
     64 HC91        5.8840    1.7470    0.6260 hc        1 LHG      0.056700
     65 HC92        5.7790    0.8580    2.1940 hc        1 LHG      0.056700
     66 H101        6.1760   -1.3190    0.9860 hc        1 LHG      0.039200
     67 H102        6.2570   -0.4370   -0.5870 hc        1 LHG      0.039200
     68 H241       -2.1900   -0.2230    0.5030 hc        1 LHG      0.093700
     69 H242       -3.0410    1.3810    0.5220 hc        1 LHG      0.093700
     70 H111        8.2060    0.9090    0.2660 hc        1 LHG      0.042200
     71 H112        8.1230    0.0330    1.8420 hc        1 LHG      0.042200
     72 H121        8.5060   -2.1520    0.6480 hc        1 LHG      0.038700
     73 H122        8.5880   -1.2760   -0.9280 hc        1 LHG      0.038700
     74 H131       10.5360    0.0740   -0.0760 hc        1 LHG      0.040200
     75 H132       10.4540   -0.8010    1.5000 hc        1 LHG      0.040200
     76 H141       10.8370   -2.9860    0.3070 hc        1 LHG      0.039200
     77 H142       10.9200   -2.1110   -1.2690 hc        1 LHG      0.039200
     78 H151       12.8680   -0.7600   -0.4180 hc        1 LHG      0.039200
     79 H152       12.7850   -1.6350    1.1590 hc        1 LHG      0.039200
     80 H161       13.1690   -3.8200   -0.0340 hc        1 LHG      0.039200
     81 H162       13.2510   -2.9450   -1.6100 hc        1 LHG      0.039200
     82 H171       15.1990   -1.5940   -0.7590 hc        1 LHG      0.039200
     83 H172       15.1160   -2.4690    0.8180 hc        1 LHG      0.039200
     84 H181       15.5000   -4.6540   -0.3740 hc        1 LHG      0.039200
     85 H182       15.5820   -3.7800   -1.9510 hc        1 LHG      0.039200
     86 H191       17.5300   -2.4280   -1.0990 hc        1 LHG      0.039200
     87 H192       17.4480   -3.3030    0.4770 hc        1 LHG      0.039200
     88 H201       17.8320   -5.4890   -0.7150 hc        1 LHG      0.039200
     89 H202       17.9140   -4.6140   -2.2920 hc        1 LHG      0.039200
     90 H211       19.8600   -3.2620   -1.4400 hc        1 LHG      0.038200
     91 H212       19.7770   -4.1370    0.1370 hc        1 LHG      0.038200
     92 H221       21.5230   -5.1200   -1.3500 hc        1 LHG      0.031367
     93 H222       20.1990   -6.3180   -1.0490 hc        1 LHG      0.031367
     94 H223       20.2810   -5.4410   -2.6300 hc        1 LHG      0.031367
     95 H251       -4.3660    0.5230    2.5830 hc        1 LHG      0.047700
     96 H252       -3.6620   -1.1120    2.2780 hc        1 LHG      0.047700
     97 H261       -4.6010   -1.1010   -0.0510 hc        1 LHG      0.053200
     98 H262       -5.2540    0.5670    0.2100 hc        1 LHG      0.053200
     99 H271       -6.6590   -0.2970    2.1210 hc        1 LHG      0.035700
    100 H272       -6.0280   -1.9640    1.8320 hc        1 LHG      0.035700
    101 H281       -6.9440   -1.9250   -0.5000 hc        1 LHG      0.043200
    102 H282       -7.5240   -0.2340   -0.2600 hc        1 LHG      0.043200
    103 H291       -8.9920   -1.0040    1.6350 hc        1 LHG      0.036200
    104 H292       -8.4040   -2.6960    1.4080 hc        1 LHG      0.036200
    105 H301       -9.2790   -2.6830   -0.9530 hc        1 LHG      0.041700
    106 H302       -9.8630   -0.9900   -0.7280 hc        1 LHG      0.041700
    107 H311      -11.3320   -1.7480    1.1720 hc        1 LHG      0.037200
    108 H312      -10.7480   -3.4420    0.9490 hc        1 LHG      0.037200
    109 H321      -11.6190   -3.4300   -1.4150 hc        1 LHG      0.040200
    110 H322      -12.2030   -1.7370   -1.1900 hc        1 LHG      0.040200
    111 H331      -13.6720   -2.4950    0.7100 hc        1 LHG      0.037700
    112 H332      -13.0880   -4.1880    0.4860 hc        1 LHG      0.037700
    113 H341      -13.9590   -4.1760   -1.8780 hc        1 LHG      0.039700
    114 H342      -14.5430   -2.4830   -1.6530 hc        1 LHG      0.039700
    115 H351      -16.0120   -3.2420    0.2470 hc        1 LHG      0.038200
    116 H352      -15.4280   -4.9350    0.0230 hc        1 LHG      0.038200
    117 H361      -16.2990   -4.9220   -2.3410 hc        1 LHG      0.039200
    118 H362      -16.8840   -3.2290   -2.1160 hc        1 LHG      0.039200
    119 H371      -18.3510   -3.9880   -0.2160 hc        1 LHG      0.037700
    120 H372      -17.7660   -5.6810   -0.4410 hc        1 LHG      0.037700
    121 H381      -18.6700   -5.6830   -2.7910 hc        1 LHG      0.031367
    122 H382      -19.9620   -5.3260   -1.5720 hc        1 LHG      0.031367
    123 H383      -19.2560   -3.9860   -2.5660 hc        1 LHG      0.031367
@<TRIPOS>BOND
     1    1    2 1   
     2    1   50 1   
     3    2    3 1   
     4    2   51 1   
     5    2   52 1   
     6    3    4 1   
     7    3    5 1   
     8    3   53 1   
     9    4   54 1   
    10    5    6 1   
    11    5   55 1   
    12    5   56 1   
    13    6    7 1   
    14    7    8 1   
    15    7    9 1   
    16    7   10 1   
    17   10   11 1   
    18   11   12 1   
    19   11   57 1   
    20   11   58 1   
    21   12   13 1   
    22   12   14 1   
    23   12   59 1   
    24   13   20 1   
    25   13   60 1   
    26   13   61 1   
    27   14   15 1   
    28   15   16 2   
    29   15   17 1   
    30   17   18 1   
    31   17   62 1   
    32   17   63 1   
    33   18   19 1   
    34   18   64 1   
    35   18   65 1   
    36   19   24 1   
    37   19   66 1   
    38   19   67 1   
    39   20   21 1   
    40   21   22 2   
    41   21   23 1   
    42   23   36 1   
    43   23   68 1   
    44   23   69 1   
    45   24   25 1   
    46   24   70 1   
    47   24   71 1   
    48   25   26 1   
    49   25   72 1   
    50   25   73 1   
    51   26   27 1   
    52   26   74 1   
    53   26   75 1   
    54   27   28 1   
    55   27   76 1   
    56   27   77 1   
    57   28   29 1   
    58   28   78 1   
    59   28   79 1   
    60   29   30 1   
    61   29   80 1   
    62   29   81 1   
    63   30   31 1   
    64   30   82 1   
    65   30   83 1   
    66   31   32 1   
    67   31   84 1   
    68   31   85 1   
    69   32   33 1   
    70   32   86 1   
    71   32   87 1   
    72   33   34 1   
    73   33   88 1   
    74   33   89 1   
    75   34   35 1   
    76   34   90 1   
    77   34   91 1   
    78   35   92 1   
    79   35   93 1   
    80   35   94 1   
    81   36   37 1   
    82   36   95 1   
    83   36   96 1   
    84   37   38 1   
    85   37   97 1   
    86   37   98 1   
    87   38   39 1   
    88   38   99 1   
    89   38  100 1   
    90   39   40 1   
    91   39  101 1   
    92   39  102 1   
    93   40   41 1   
    94   40  103 1   
    95   40  104 1   
    96   41   42 1   
    97   41  105 1   
    98   41  106 1   
    99   42   43 1   
   100   42  107 1   
   101   42  108 1   
   102   43   44 1   
   103   43  109 1   
   104   43  110 1   
   105   44   45 1   
   106   44  111 1   
   107   44  112 1   
   108   45   46 1   
   109   45  113 1   
   110   45  114 1   
   111   46   47 1   
   112   46  115 1   
   113   46  116 1   
   114   47   48 1   
   115   47  117 1   
   116   47  118 1   
   117   48   49 1   
   118   48  119 1   
   119   48  120 1   
   120   49  121 1   
   121   49  122 1   
   122   49  123 1   
@<TRIPOS>SUBSTRUCTURE
     1 LHG         1 TEMP              0 ****  ****    0 ROOT
