@<TRIPOS>MOLECULE
LHG
  123   122     1     0     0
SMALL
bcc


@<TRIPOS>ATOM
      1 O1          0.2730   -0.4310    3.6910 oh        1 LHG     -0.628800
      2 C1          1.4950    0.2290    3.3950 c3        1 LHG      0.071400
      3 C2          2.3140    0.4220    4.6740 c3        1 LHG      0.081100
      4 O2          1.6740    1.3470    5.5500 oh        1 LHG     -0.618800
      5 C3          3.7110    0.9860    4.3560 c3        1 LHG      0.189400
      6 O3          4.6930    0.0340    4.6320 os        1 LHG     -0.570200
      7 P           5.4430   -0.6460    3.3260 p5        1 LHG      1.440800
      8 O4          6.2430   -1.8060    3.7610 o         1 LHG     -0.835500
      9 O5          4.4260   -0.6640    2.2560 o         1 LHG     -0.835500
     10 O6          6.4800    0.6110    3.0290 os        1 LHG     -0.573200
     11 C4          7.7360    0.2900    2.5340 c3        1 LHG      0.178400
     12 C5          8.8800    0.6110    3.5130 c3        1 LHG      0.117100
     13 C6          8.7370    1.9720    4.1950 c3        1 LHG      0.156400
     14 O7          8.9410   -0.3650    4.5630 os        1 LHG     -0.414900
     15 C7          9.3410   -1.6300    4.2200 c         1 LHG      0.669100
     16 O9         10.0270   -1.7750    3.2020 o         1 LHG     -0.589000
     17 C8          8.8570   -2.6560    5.1900 c3        1 LHG     -0.153400
     18 C9          9.6890   -3.9160    5.1420 c3        1 LHG     -0.070400
     19 C10         9.0690   -5.0000    5.9970 c3        1 LHG     -0.079400
     20 O8          7.9870    1.8000    5.3990 os        1 LHG     -0.408900
     21 C23         7.0760    2.7670    5.7240 c         1 LHG      0.649100
     22 O10         7.1530    3.8650    5.1640 o         1 LHG     -0.576000
     23 C24         6.1120    2.2930    6.7650 c3        1 LHG     -0.145400
     24 C11         9.8970   -6.2670    5.9600 c3        1 LHG     -0.078400
     25 C12         9.2750   -7.3540    6.8110 c3        1 LHG     -0.079400
     26 C13        10.1020   -8.6210    6.7760 c3        1 LHG     -0.078400
     27 C14         9.4800   -9.7080    7.6260 c3        1 LHG     -0.079400
     28 C15        10.3060  -10.9760    7.5910 c3        1 LHG     -0.078400
     29 C16         9.6840  -12.0620    8.4410 c3        1 LHG     -0.079400
     30 C17        10.5110  -13.3300    8.4060 c3        1 LHG     -0.078400
     31 C18         9.8880  -14.4160    9.2570 c3        1 LHG     -0.079400
     32 C19        10.7150  -15.6840    9.2220 c3        1 LHG     -0.079400
     33 C20        10.0920  -16.7700   10.0720 c3        1 LHG     -0.079400
     34 C21        10.9180  -18.0380   10.0380 c3        1 LHG     -0.080400
     35 C22        10.3020  -19.1230   10.8830 c3        1 LHG     -0.092100
     36 C25         5.1200    3.3700    7.1460 c3        1 LHG     -0.071400
     37 C26         3.9010    2.7660    7.8090 c3        1 LHG     -0.091400
     38 C27         2.9140    3.8360    8.2280 c3        1 LHG     -0.070400
     39 C28         1.5850    3.2200    8.6110 c3        1 LHG     -0.083400
     40 C29         0.5850    4.2780    9.0230 c3        1 LHG     -0.077400
     41 C30        -0.7420    3.6600    9.4080 c3        1 LHG     -0.079400
     42 C31        -1.7440    4.7170    9.8190 c3        1 LHG     -0.078400
     43 C32        -3.0710    4.0980   10.2020 c3        1 LHG     -0.079400
     44 C33        -4.0730    5.1560   10.6140 c3        1 LHG     -0.078400
     45 C34        -5.4000    4.5360   10.9980 c3        1 LHG     -0.079400
     46 C35        -6.4020    5.5930   11.4090 c3        1 LHG     -0.078400
     47 C36        -7.7290    4.9740   11.7930 c3        1 LHG     -0.079400
     48 C37        -8.7320    6.0300   12.2050 c3        1 LHG     -0.080400
     49 C38       -10.0550    5.4180   12.5880 c3        1 LHG     -0.092100
     50 HO1         0.4940   -1.3510    3.8770 ho        1 LHG      0.396000
     51 HC11        2.0960   -0.3380    2.6330 h1        1 LHG      0.084200
     52 HC12        1.1850    1.2230    2.9750 h1        1 LHG      0.084200
     53 HC2         2.4120   -0.5620    5.2120 h1        1 LHG      0.045700
     54 H02         0.7370    1.1150    5.5490 ho        1 LHG      0.398000
     55 HC31        3.8970    1.8810    5.0170 h1        1 LHG      0.047200
     56 HC32        3.7630    1.3010    3.2770 h1        1 LHG      0.047200
     57 HC41        7.9120    0.9110    1.6080 h1        1 LHG      0.036200
     58 HC42        7.7950   -0.8060    2.2760 h1        1 LHG      0.036200
     59 HC5         9.8480    0.5920    2.9370 h1        1 LHG      0.052700
     60 HC61        8.2240    2.6860    3.4980 h1        1 LHG      0.053700
     61 HC62        9.7410    2.3700    4.4960 h1        1 LHG      0.053700
     62 HC81        8.8440   -2.2210    6.2230 hc        1 LHG      0.115200
     63 HC82        7.7800   -2.8580    4.8940 hc        1 LHG      0.115200
     64 HC91       10.7310   -3.7000    5.4980 hc        1 LHG      0.043700
     65 HC92        9.7710   -4.2660    4.0780 hc        1 LHG      0.043700
     66 H101        8.9780   -4.6390    7.0550 hc        1 LHG      0.044200
     67 H102        8.0300   -5.2150    5.6300 hc        1 LHG      0.044200
     68 H241        5.5800    1.3930    6.3340 hc        1 LHG      0.098700
     69 H242        6.6880    1.9420    7.6610 hc        1 LHG      0.098700
     70 H111       10.9350   -6.0500    6.3260 hc        1 LHG      0.036700
     71 H112        9.9880   -6.6250    4.9010 hc        1 LHG      0.036700
     72 H121        9.1820   -6.9950    7.8700 hc        1 LHG      0.039700
     73 H122        8.2380   -7.5700    6.4440 hc        1 LHG      0.039700
     74 H131       11.1400   -8.4040    7.1420 hc        1 LHG      0.037200
     75 H132       10.1940   -8.9790    5.7160 hc        1 LHG      0.037200
     76 H141        9.3870   -9.3490    8.6850 hc        1 LHG      0.039200
     77 H142        8.4420   -9.9250    7.2590 hc        1 LHG      0.039200
     78 H151       11.3440  -10.7580    7.9580 hc        1 LHG      0.038200
     79 H152       10.3990  -11.3340    6.5320 hc        1 LHG      0.038200
     80 H161        9.5910  -11.7030    9.5000 hc        1 LHG      0.039200
     81 H162        8.6470  -12.2790    8.0740 hc        1 LHG      0.039200
     82 H171       11.5480  -13.1120    8.7730 hc        1 LHG      0.038200
     83 H172       10.6040  -13.6880    7.3470 hc        1 LHG      0.038200
     84 H181        8.8510  -14.6330    8.8890 hc        1 LHG      0.039200
     85 H182        9.7950  -14.0570   10.3160 hc        1 LHG      0.039200
     86 H191       10.8080  -16.0420    8.1620 hc        1 LHG      0.038700
     87 H192       11.7520  -15.4660    9.5890 hc        1 LHG      0.038700
     88 H201        9.0550  -16.9870    9.7050 hc        1 LHG      0.039200
     89 H202        9.9990  -16.4110   11.1310 hc        1 LHG      0.039200
     90 H211       11.9560  -17.8180   10.4040 hc        1 LHG      0.037700
     91 H212       11.0110  -18.3940    8.9770 hc        1 LHG      0.037700
     92 H221       10.9260  -20.0480   10.8440 hc        1 LHG      0.031033
     93 H222       10.2230  -18.7960   11.9480 hc        1 LHG      0.031033
     94 H223        9.2770  -19.3730   10.5180 hc        1 LHG      0.031033
     95 H251        5.6070    4.1110    7.8330 hc        1 LHG      0.045700
     96 H252        4.8080    3.9310    6.2250 hc        1 LHG      0.045700
     97 H261        4.2120    2.1680    8.7050 hc        1 LHG      0.056200
     98 H262        3.3980    2.0580    7.0910 hc        1 LHG      0.056200
     99 H271        3.3280    4.4220    9.0890 hc        1 LHG      0.031700
    100 H272        2.7590    4.5560    7.3810 hc        1 LHG      0.031700
    101 H281        1.7360    2.4950    9.4540 hc        1 LHG      0.047700
    102 H282        1.1860    2.6350    7.7380 hc        1 LHG      0.047700
    103 H291        0.4330    4.9990    8.1780 hc        1 LHG      0.034700
    104 H292        0.9910    4.8650    9.8890 hc        1 LHG      0.034700
    105 H301       -1.1470    3.0740    8.5410 hc        1 LHG      0.040200
    106 H302       -0.5900    2.9370   10.2520 hc        1 LHG      0.040200
    107 H311       -1.8960    5.4390    8.9730 hc        1 LHG      0.036700
    108 H312       -1.3380    5.3040   10.6850 hc        1 LHG      0.036700
    109 H321       -2.9190    3.3750   11.0470 hc        1 LHG      0.039700
    110 H322       -3.4770    3.5130    9.3360 hc        1 LHG      0.039700
    111 H331       -3.6670    5.7410   11.4810 hc        1 LHG      0.037700
    112 H332       -4.2250    5.8780    9.7700 hc        1 LHG      0.037700
    113 H341       -5.8060    3.9510   10.1310 hc        1 LHG      0.039700
    114 H342       -5.2480    3.8130   11.8420 hc        1 LHG      0.039700
    115 H351       -6.5540    6.3160   10.5650 hc        1 LHG      0.038200
    116 H352       -5.9960    6.1790   12.2760 hc        1 LHG      0.038200
    117 H361       -8.1350    4.3890   10.9260 hc        1 LHG      0.039200
    118 H362       -7.5770    4.2510   12.6370 hc        1 LHG      0.039200
    119 H371       -8.3230    6.6160   13.0710 hc        1 LHG      0.037200
    120 H372       -8.8820    6.7530   11.3600 hc        1 LHG      0.037200
    121 H381      -10.4890    4.8510   11.7290 hc        1 LHG      0.031033
    122 H382      -10.7790    6.2130   12.8880 hc        1 LHG      0.031033
    123 H383       -9.9300    4.7130   13.4450 hc        1 LHG      0.031033
@<TRIPOS>BOND
     1    1    2 1   
     2    1   50 1   
     3    2    3 1   
     4    2   51 1   
     5    2   52 1   
     6    3    4 1   
     7    3    5 1   
     8    3   53 1   
     9    4   54 1   
    10    5    6 1   
    11    5   55 1   
    12    5   56 1   
    13    6    7 1   
    14    7    8 1   
    15    7    9 1   
    16    7   10 1   
    17   10   11 1   
    18   11   12 1   
    19   11   57 1   
    20   11   58 1   
    21   12   13 1   
    22   12   14 1   
    23   12   59 1   
    24   13   20 1   
    25   13   60 1   
    26   13   61 1   
    27   14   15 1   
    28   15   16 2   
    29   15   17 1   
    30   17   18 1   
    31   17   62 1   
    32   17   63 1   
    33   18   19 1   
    34   18   64 1   
    35   18   65 1   
    36   19   24 1   
    37   19   66 1   
    38   19   67 1   
    39   20   21 1   
    40   21   22 2   
    41   21   23 1   
    42   23   36 1   
    43   23   68 1   
    44   23   69 1   
    45   24   25 1   
    46   24   70 1   
    47   24   71 1   
    48   25   26 1   
    49   25   72 1   
    50   25   73 1   
    51   26   27 1   
    52   26   74 1   
    53   26   75 1   
    54   27   28 1   
    55   27   76 1   
    56   27   77 1   
    57   28   29 1   
    58   28   78 1   
    59   28   79 1   
    60   29   30 1   
    61   29   80 1   
    62   29   81 1   
    63   30   31 1   
    64   30   82 1   
    65   30   83 1   
    66   31   32 1   
    67   31   84 1   
    68   31   85 1   
    69   32   33 1   
    70   32   86 1   
    71   32   87 1   
    72   33   34 1   
    73   33   88 1   
    74   33   89 1   
    75   34   35 1   
    76   34   90 1   
    77   34   91 1   
    78   35   92 1   
    79   35   93 1   
    80   35   94 1   
    81   36   37 1   
    82   36   95 1   
    83   36   96 1   
    84   37   38 1   
    85   37   97 1   
    86   37   98 1   
    87   38   39 1   
    88   38   99 1   
    89   38  100 1   
    90   39   40 1   
    91   39  101 1   
    92   39  102 1   
    93   40   41 1   
    94   40  103 1   
    95   40  104 1   
    96   41   42 1   
    97   41  105 1   
    98   41  106 1   
    99   42   43 1   
   100   42  107 1   
   101   42  108 1   
   102   43   44 1   
   103   43  109 1   
   104   43  110 1   
   105   44   45 1   
   106   44  111 1   
   107   44  112 1   
   108   45   46 1   
   109   45  113 1   
   110   45  114 1   
   111   46   47 1   
   112   46  115 1   
   113   46  116 1   
   114   47   48 1   
   115   47  117 1   
   116   47  118 1   
   117   48   49 1   
   118   48  119 1   
   119   48  120 1   
   120   49  121 1   
   121   49  122 1   
   122   49  123 1   
@<TRIPOS>SUBSTRUCTURE
     1 LHG         1 TEMP              0 ****  ****    0 ROOT
