@<TRIPOS>MOLECULE
LHJ
   53    55     1     0     0
SMALL
bcc


@<TRIPOS>ATOM
      1 N1          0.0140   -0.2470   -0.0280 n         1 LHJ     -0.217000
      2 N3         -2.1270    0.3880    1.1760 na        1 LHJ     -0.121000
      3 C4          2.0400    0.3750    1.2930 c2        1 LHJ     -0.238000
      4 C5          1.2610    0.9080    2.2960 c2        1 LHJ      0.086000
      5 C6         -1.2580    1.2920    2.9810 c2        1 LHJ     -0.079000
      6 C7         -0.6010   -0.7650   -1.2240 c3        1 LHJ     -0.102000
      7 C8          3.4930    0.4110    1.3660 c2        1 LHJ      0.053000
      8 C10        -3.3870   -1.5030    0.2310 c2        1 LHJ      0.084000
      9 C13        -5.1310    0.3060   -1.1530 c1        1 LHJ     -0.038000
     10 C15         4.2020   -0.8000    0.9850 c2        1 LHJ      0.027000
     11 C17         6.3720    0.2730    1.4970 c3        1 LHJ     -0.197000
     12 C22         8.9500   -5.7420   -0.7280 c2        1 LHJ     -0.083500
     13 C24        10.0770   -4.9750   -0.5830 c2        1 LHJ     -0.083500
     14 C23         8.8170   -4.4030   -0.2990 c1        1 LHJ     -0.110000
     15 C16         5.5590   -0.8810    1.0320 c2        1 LHJ     -0.208000
     16 C18         5.6400    1.4650    1.8950 c1        1 LHJ     -0.039000
     17 C19         4.2140    1.5140    1.7690 c2        1 LHJ     -0.114000
     18 C3          1.4350   -0.2390    0.1000 c2        1 LHJ      0.360000
     19 O1          2.0930   -0.7560   -0.8250 o         1 LHJ     -0.369000
     20 C2         -0.7330    0.2630    1.0060 c2        1 LHJ      0.156000
     21 C1         -0.1320    0.8570    2.1800 c2        1 LHJ     -0.253000
     22 N2         -2.4140    0.9960    2.3650 n2        1 LHJ     -0.037000
     23 C9         -3.1570   -0.1480    0.3560 c2        1 LHJ     -0.019000
     24 C14        -4.0760    0.8220   -0.3150 c3        1 LHJ     -0.195000
     25 C12        -5.2890   -1.1250   -1.2640 c2        1 LHJ      0.048000
     26 F2         -6.2860   -1.5950   -2.0450 f         1 LHJ     -0.065000
     27 C11        -4.4630   -2.0000   -0.6020 c2        1 LHJ     -0.135000
     28 H5          1.7160    1.3640    3.1920 ha        1 LHJ      0.161000
     29 H6         -1.2270    1.7950    3.9520 h4        1 LHJ      0.204000
     30 H7         -1.3750   -0.0420   -1.5970 h1        1 LHJ      0.110667
     31 H7A        -1.0870   -1.7540   -1.0060 h1        1 LHJ      0.110667
     32 H7B         0.1820   -0.9090   -2.0180 h1        1 LHJ      0.110667
     33 H13        -3.4850    1.5630   -0.9380 hc        1 LHJ      0.199000
     34 H15         3.5920   -1.6540    0.6300 ha        1 LHJ      0.183000
     35 H17         7.0850    0.6180    0.6870 hc        1 LHJ      0.164000
     36 H20         4.2830    3.6500    1.7800 hc        1 LHJ      0.101667
     37 H20A        2.6120    2.9520    1.5900 hc        1 LHJ      0.101667
     38 H20B        3.4530    2.9070    3.2040 hc        1 LHJ      0.101667
     39 H22         5.8990   -3.9470    0.0840 ho        1 LHJ      0.258000
     40 H24        11.1510   -4.8960   -0.6490 ha        1 LHJ      0.233000
     41 H24A        8.0680   -3.1960    0.1350 hn        1 LHJ      0.303500
     42 H23         9.7740    0.0680    1.0570 ha        1 LHJ      0.002000
     43 H23A        9.2280    0.2520    1.4130 ha        1 LHJ      0.002000
     44 HN4         8.5150   -6.6940   -0.9890 ha        1 LHJ      0.233000
     45 H18         7.0090   -0.0190    2.3860 hc        1 LHJ      0.164000
     46 H14        -4.5970    1.4600    0.4750 hc        1 LHJ      0.199000
     47 H11        -4.5900   -3.0940   -0.6670 ha        1 LHJ      0.178000
     48 C20         3.6000    2.8210    2.0960 c3        1 LHJ     -0.178000
     49 C21         6.2560   -2.1010    0.6150 c2        1 LHJ      0.324000
     50 H42         8.1440   -1.4450    0.6470 hn        1 LHJ      0.303500
     51 F1         -2.6200   -2.4320    0.8490 f         1 LHJ     -0.086000
     52 N4          7.5610   -2.2360    0.4660 n3        1 LHJ     -0.377000
     53 O2          5.4220   -3.1530    0.3880 oh        1 LHJ     -0.217000
@<TRIPOS>BOND
     1    1    6 1   
     2    1   18 1   
     3    1   20 1   
     4    2   20 1   
     5    2   22 1   
     6    2   23 1   
     7    3    4 1   
     8    3    7 1   
     9    3   18 1   
    10    4   21 1   
    11    4   28 1   
    12    5   21 1   
    13    5   22 1   
    14    5   29 1   
    15    6   30 1   
    16    6   31 1   
    17    6   32 1   
    18    7   10 1   
    19    7   17 1   
    20    8   23 1   
    21    8   27 1   
    22    8   51 1   
    23    9   24 1   
    24    9   25 1   
    25   10   15 1   
    26   10   34 1   
    27   11   15 1   
    28   11   16 1   
    29   11   35 1   
    30   11   45 1   
    31   12   13 1   
    32   12   14 1   
    33   12   44 1   
    34   13   14 1   
    35   13   40 1   
    36   15   49 1   
    37   16   17 1   
    38   17   48 1   
    39   18   19 1   
    40   20   21 1   
    41   23   24 1   
    42   24   33 1   
    43   24   46 1   
    44   25   26 1   
    45   25   27 1   
    46   27   47 1   
    47   36   48 1   
    48   37   48 1   
    49   38   48 1   
    50   39   53 1   
    51   41   52 1   
    52   42   43 1   
    53   49   52 1   
    54   49   53 1   
    55   50   52 1   
@<TRIPOS>SUBSTRUCTURE
     1 LHJ         1 TEMP              0 ****  ****    0 ROOT
