@<TRIPOS>MOLECULE
LHJ
   52    56     1     0     0
SMALL
bcc


@<TRIPOS>ATOM
      1 N1         -1.5260   -0.2800    0.8120 n         1 LHJ     -0.330000
      2 N3         -3.3140   -0.4250   -0.9880 na        1 LHJ      0.118300
      3 C4          0.6960   -1.0440   -0.0320 cc        1 LHJ     -0.177400
      4 C5          0.1890   -1.2570   -1.2840 cd        1 LHJ      0.048800
      5 C6         -2.0710   -1.1260   -2.6540 cd        1 LHJ      0.371200
      6 C7         -2.3660    0.2770    1.8390 c3        1 LHJ      0.059300
      7 C8          2.1170   -1.2660    0.2430 ca        1 LHJ     -0.044800
      8 C10        -4.8900    1.4650   -0.7050 ca        1 LHJ      0.177900
      9 C13        -6.3380   -0.0590    1.1600 ca        1 LHJ     -0.183000
     10 C15         3.0540   -0.4490   -0.4030 ca        1 LHJ     -0.063000
     11 C17         4.8630   -1.6450    0.6680 ca        1 LHJ     -0.095000
     12 C22         7.4290    1.5920   -0.7630 cx        1 LHJ      0.054700
     13 C24         8.8780    1.5800   -0.3130 cx        1 LHJ     -0.154900
     14 C23         8.0030    2.7490    0.0330 cx        1 LHJ     -0.154900
     15 N4          6.4780    0.7010   -0.2060 n         1 LHJ     -0.541900
     16 O2          5.1820    0.5920   -2.1000 o         1 LHJ     -0.603100
     17 C16         4.4220   -0.6310   -0.1870 ca        1 LHJ     -0.152600
     18 C18         3.9340   -2.4630    1.3040 ca        1 LHJ     -0.144000
     19 C19         2.5590   -2.2850    1.1050 ca        1 LHJ     -0.018300
     20 C3         -0.1440   -0.5430    1.0720 c         1 LHJ      0.716700
     21 O1          0.2620   -0.3270    2.2280 o         1 LHJ     -0.624500
     22 C2         -2.0080   -0.5260   -0.4520 cc        1 LHJ      0.102300
     23 C1         -1.1780   -1.0120   -1.5220 cd        1 LHJ     -0.316100
     24 N2         -3.3170   -0.7530   -2.3110 nc        1 LHJ     -0.483800
     25 C9         -4.4520    0.1550   -0.3620 ca        1 LHJ     -0.047200
     26 C14        -5.2050   -0.5940    0.5630 ca        1 LHJ     -0.067000
     27 C12        -6.7580    1.2430    0.8270 ca        1 LHJ      0.170900
     28 F2         -7.8640    1.7620    1.4060 f         1 LHJ     -0.124900
     29 C11        -6.0400    2.0060   -0.1050 ca        1 LHJ     -0.211000
     30 H5          0.8280   -1.6160   -2.1060 ha        1 LHJ      0.157000
     31 H6         -1.8200   -1.4600   -3.6630 h4        1 LHJ      0.056100
     32 H7         -1.7450    0.5160    2.7450 h1        1 LHJ      0.062367
     33 H7A        -2.8550    1.2170    1.4690 h1        1 LHJ      0.062367
     34 H7B        -3.1620   -0.4630    2.1250 h1        1 LHJ      0.062367
     35 H13        -6.9190   -0.6490    1.8860 ha        1 LHJ      0.163000
     36 H15         2.7160    0.3410   -1.0940 ha        1 LHJ      0.155000
     37 H17         5.9380   -1.8150    0.8310 ha        1 LHJ      0.135000
     38 H20         0.8610   -3.5960    1.0780 hc        1 LHJ      0.054033
     39 H20A        2.1160   -4.0090    2.3240 hc        1 LHJ      0.054033
     40 H20B        1.0290   -2.5710    2.5660 hc        1 LHJ      0.054033
     41 H22         7.2260    1.7640   -1.8470 h1        1 LHJ      0.121700
     42 H24         9.1980    0.8990    0.4950 hc        1 LHJ      0.073450
     43 H24A        9.6590    1.6960   -1.0840 hc        1 LHJ      0.073450
     44 H23         8.1520    3.7120   -0.4860 hc        1 LHJ      0.073450
     45 H23A        7.7040    2.8940    1.0870 hc        1 LHJ      0.073450
     46 HN4         6.5530    0.4850    0.7590 hn        1 LHJ      0.311500
     47 H18         4.2840   -3.2640    1.9730 ha        1 LHJ      0.137000
     48 H14        -4.8980   -1.6220    0.8180 ha        1 LHJ      0.161000
     49 H11        -6.3730    3.0200   -0.3740 ha        1 LHJ      0.175000
     50 C20         1.5960   -3.1670    1.8040 c3        1 LHJ     -0.067800
     51 C21         5.3730    0.2590   -0.9130 c         1 LHJ      0.680700
     52 F1         -4.2130    2.2100   -1.6050 f         1 LHJ     -0.111900
@<TRIPOS>BOND
     1    1    6 1   
     2    1   20 1   
     3    1   22 1   
     4    2   22 1   
     5    2   24 1   
     6    2   25 1   
     7    3    4 2   
     8    3    7 1   
     9    3   20 1   
    10    4   23 1   
    11    4   30 1   
    12    5   23 1   
    13    5   24 2   
    14    5   31 1   
    15    6   32 1   
    16    6   33 1   
    17    6   34 1   
    18    7   10 ar  
    19    7   19 ar  
    20    8   25 ar  
    21    8   29 ar  
    22    8   52 1   
    23    9   26 ar  
    24    9   27 ar  
    25    9   35 1   
    26   10   17 ar  
    27   10   36 1   
    28   11   17 ar  
    29   11   18 ar  
    30   11   37 1   
    31   12   13 1   
    32   12   14 1   
    33   12   15 1   
    34   12   41 1   
    35   13   14 1   
    36   13   42 1   
    37   13   43 1   
    38   14   44 1   
    39   14   45 1   
    40   15   46 1   
    41   15   51 1   
    42   16   51 2   
    43   17   51 1   
    44   18   19 ar  
    45   18   47 1   
    46   19   50 1   
    47   20   21 2   
    48   22   23 2   
    49   25   26 ar  
    50   26   48 1   
    51   27   28 1   
    52   27   29 ar  
    53   29   49 1   
    54   38   50 1   
    55   39   50 1   
    56   40   50 1   
@<TRIPOS>SUBSTRUCTURE
     1 LHJ         1 TEMP              0 ****  ****    0 ROOT
