@<TRIPOS>MOLECULE
LHJ
   53    55     1     0     0
SMALL
bcc


@<TRIPOS>ATOM
      1 N1          0.0430   -0.7830    0.1860 n         1 LHJ     -0.242000
      2 N3         -1.8240    0.6540    1.0830 na        1 LHJ     -0.109000
      3 C4          1.9310   -1.0460    1.8970 c3        1 LHJ     -0.096000
      4 C5          1.2770   -0.0530    2.7680 c1        1 LHJ     -0.081000
      5 C6         -0.9430    1.2670    3.0060 c2        1 LHJ     -0.025000
      6 C7         -0.5480   -1.0480   -1.1040 c3        1 LHJ     -0.109000
      7 C8          3.4060   -0.8120    1.7800 c2        1 LHJ     -0.048000
      8 C10        -3.5910   -0.5900   -0.0920 c2        1 LHJ      0.095000
      9 C13        -4.2160    1.7180   -1.6790 c1        1 LHJ     -0.036000
     10 C15         4.2000   -1.9280    1.3280 c2        1 LHJ      0.049000
     11 C17         6.2880   -0.6880    1.7980 c3        1 LHJ     -0.190000
     12 C22         8.4720   -4.0610    0.0990 c3        1 LHJ     -0.192000
     13 C24         8.7280    0.0990   -0.7310 c1        1 LHJ     -0.229500
     14 C23         8.2390   -0.3610   -1.7220 c1        1 LHJ     -0.229500
     15 C16         5.5680   -1.8770    1.2750 c2        1 LHJ     -0.276000
     16 C18         5.4390    0.3880    2.2860 c1        1 LHJ     -0.008000
     17 C19         4.0280    0.3850    2.0630 c2        1 LHJ     -0.021000
     18 C3          1.3290   -1.2970    0.5010 c2        1 LHJ      0.295000
     19 O1          1.9160   -1.9810   -0.3520 o         1 LHJ     -0.335000
     20 C2         -0.5850    0.0140    1.1160 c2        1 LHJ      0.182000
     21 C1          0.0460    0.3940    2.3890 c2        1 LHJ     -0.278000
     22 N2         -2.0210    1.3970    2.2260 n2        1 LHJ     -0.060000
     23 C9         -2.8470    0.5560    0.0980 c2        1 LHJ     -0.036000
     24 C14        -3.1810    1.7920   -0.6750 c3        1 LHJ     -0.194000
     25 C12        -4.9370    0.4760   -1.8380 c2        1 LHJ      0.052000
     26 F2         -5.9200    0.4280   -2.7640 f         1 LHJ     -0.063000
     27 C11        -4.6460   -0.6350   -1.0850 c2        1 LHJ     -0.138000
     28 H5          1.7740   -2.0320    2.4510 hc        1 LHJ      0.176000
     29 H6         -0.8510    1.7610    3.9800 h4        1 LHJ      0.214000
     30 H7         -1.4310   -1.7340   -0.9820 h1        1 LHJ      0.111333
     31 H7A         0.2070   -1.5420   -1.7740 h1        1 LHJ      0.111333
     32 H7B        -0.8840   -0.0870   -1.5770 h1        1 LHJ      0.111333
     33 H13        -2.2550    2.2110   -1.1760 hc        1 LHJ      0.198000
     34 H15         3.6550   -2.8190    0.9510 ha        1 LHJ      0.188000
     35 H17         6.9670   -0.2210    1.0190 hc        1 LHJ      0.155500
     36 H20         2.4930    1.7960    1.5420 hc        1 LHJ      0.121000
     37 H20A        2.8470    1.6370    3.3170 hc        1 LHJ      0.121000
     38 H20B        4.0160    2.5230    2.2360 hc        1 LHJ      0.121000
     39 H22         8.2960   -4.8860    0.8420 hx        1 LHJ      0.149667
     40 H24         9.1860    0.5630    0.1110 ha        1 LHJ      0.238000
     41 H24A        9.5710   -3.8550    0.0050 hx        1 LHJ      0.149667
     42 H23         7.8130   -0.7350   -2.6240 ha        1 LHJ      0.238000
     43 H23A        8.0530   -4.3800   -0.8940 hx        1 LHJ      0.149667
     44 HN4         8.1590   -2.5440    1.4620 hn        1 LHJ      0.255000
     45 H18         6.9360   -0.9790    2.6800 hc        1 LHJ      0.155500
     46 H14        -3.5190    2.6100    0.0450 hc        1 LHJ      0.198000
     47 H11        -5.2000   -1.5830   -1.1950 ha        1 LHJ      0.182000
     48 C20         3.3120    1.6550    2.2910 c3        1 LHJ     -0.191000
     49 C21         6.2740   -3.0080    0.7000 c2        1 LHJ      0.305000
     50 H42         7.9530   -2.0690   -0.1200 hn        1 LHJ      0.255000
     51 F1         -3.3690   -1.7270    0.6070 f         1 LHJ     -0.083000
     52 N4          7.7840   -2.8350    0.5530 n4        1 LHJ     -0.112000
     53 O2          5.8320   -4.0890    0.3310 o         1 LHJ     -0.197000
@<TRIPOS>BOND
     1    1    6 1   
     2    1   18 1   
     3    1   20 1   
     4    2   20 1   
     5    2   22 1   
     6    2   23 1   
     7    3    4 1   
     8    3    7 1   
     9    3   18 1   
    10    3   28 1   
    11    4   21 1   
    12    5   21 1   
    13    5   22 1   
    14    5   29 1   
    15    6   30 1   
    16    6   31 1   
    17    6   32 1   
    18    7   10 1   
    19    7   17 1   
    20    8   23 1   
    21    8   27 1   
    22    8   51 1   
    23    9   24 1   
    24    9   25 1   
    25   10   15 1   
    26   10   34 1   
    27   11   15 1   
    28   11   16 1   
    29   11   35 1   
    30   11   45 1   
    31   12   39 1   
    32   12   41 1   
    33   12   43 1   
    34   12   52 1   
    35   13   14 1   
    36   13   40 1   
    37   14   42 1   
    38   15   49 1   
    39   16   17 1   
    40   17   48 1   
    41   18   19 1   
    42   20   21 1   
    43   23   24 1   
    44   24   33 1   
    45   24   46 1   
    46   25   26 1   
    47   25   27 1   
    48   27   47 1   
    49   36   48 1   
    50   37   48 1   
    51   38   48 1   
    52   44   52 1   
    53   49   52 1   
    54   49   53 1   
    55   50   52 1   
@<TRIPOS>SUBSTRUCTURE
     1 LHJ         1 TEMP              0 ****  ****    0 ROOT
