@<TRIPOS>MOLECULE
LHJ
   53    56     1     0     0
SMALL
bcc


@<TRIPOS>ATOM
      1 N1         -0.0600    0.2850   -0.0820 n         1 LHJ     -0.220000
      2 N3         -2.0510   -0.4800    1.2990 na        1 LHJ     -0.117000
      3 C4          2.0890   -0.0410    1.1450 c2        1 LHJ     -0.231000
      4 C5          1.4350   -0.6110    2.2120 c2        1 LHJ      0.081000
      5 C6         -0.9810   -1.2340    3.0640 c2        1 LHJ     -0.083000
      6 C7         -0.7800    0.7290   -1.2500 c3        1 LHJ     -0.101000
      7 C8          3.5330    0.1040    1.1380 c2        1 LHJ     -0.062000
      8 C10        -3.7150   -1.4090   -0.2490 c2        1 LHJ      0.111000
      9 C13        -4.9260    1.1690   -0.5750 c1        1 LHJ     -0.039000
     10 C15         4.3650   -1.0210    1.0180 c2        1 LHJ      0.056000
     11 C17         6.3910    0.2560    1.7550 c3        1 LHJ     -0.093000
     12 C22         8.7310   -3.2470    0.6750 c3        1 LHJ     -0.274000
     13 C24         9.7460   -3.3380   -0.4520 c3        1 LHJ     -0.337000
     14 C23         8.5430   -4.1800   -0.5260 c1        1 LHJ      0.201000
     15 C16         5.7540   -0.9860    1.2040 c2        1 LHJ     -0.303000
     16 C18         5.3830    1.2780    1.8020 c1        1 LHJ      0.010000
     17 C19         4.1700    1.3920    1.2100 c2        1 LHJ      0.042000
     18 C3          1.3610    0.4310   -0.0430 c2        1 LHJ      0.357000
     19 O1          1.9090    0.9410   -1.0380 o         1 LHJ     -0.355000
     20 C2         -0.6870   -0.2650    1.0090 c2        1 LHJ      0.159000
     21 C1          0.0430   -0.7300    2.1700 c2        1 LHJ     -0.257000
     22 N2         -2.1950   -1.0910    2.5120 n2        1 LHJ     -0.031000
     23 C9         -3.1570   -0.3360    0.4140 c2        1 LHJ     -0.042000
     24 C14        -3.7910    1.0140    0.3050 c3        1 LHJ     -0.193000
     25 C12        -5.4660   -0.0020   -1.2220 c2        1 LHJ      0.050000
     26 F2         -6.5650    0.1490   -1.9940 f         1 LHJ     -0.063000
     27 C11        -4.8830   -1.2390   -1.0910 c2        1 LHJ     -0.136000
     28 H5          1.9850   -0.9670    3.0990 ha        1 LHJ      0.153000
     29 H6         -0.8380   -1.6750    4.0550 h4        1 LHJ      0.202000
     30 H7         -1.6340    0.0350   -1.4680 h1        1 LHJ      0.111000
     31 H7A        -0.0840    0.7400   -2.1340 h1        1 LHJ      0.111000
     32 H7B        -1.1680    1.7700   -1.0880 h1        1 LHJ      0.111000
     33 H13        -3.0260    1.7950    0.0100 hc        1 LHJ      0.190500
     34 H15         3.8940   -1.9700    0.6900 ha        1 LHJ      0.182000
     35 H17         7.2490    0.6200    1.1150 hc        1 LHJ      0.153000
     36 H20         2.5630    2.7800    1.4000 hc        1 LHJ      0.127000
     37 H20A        3.2620    2.6240   -0.2650 hc        1 LHJ      0.127000
     38 H20B        4.1810    3.5310    1.0290 hc        1 LHJ      0.127000
     39 H22         6.4320   -3.9720    0.2390 ho        1 LHJ      0.289000
     40 H24         9.8490   -2.5290   -1.2080 hc        1 LHJ      0.188500
     41 H24A       10.7480   -3.7430   -0.1970 hc        1 LHJ      0.188500
     42 H23         8.9690   -6.2730   -0.0410 ha        1 LHJ      0.022000
     43 H23A        9.2650   -5.9000    0.4510 ha        1 LHJ      0.022000
     44 HN4         9.0540   -3.6960    1.6480 h1        1 LHJ      0.173000
     45 H18         6.8000    0.0720    2.7910 hc        1 LHJ      0.153000
     46 H14        -4.1640    1.3380    1.3330 hc        1 LHJ      0.190500
     47 H11        -5.2750   -2.1340   -1.6030 ha        1 LHJ      0.182000
     48 C20         3.5190    2.6540    0.8290 c3        1 LHJ     -0.199000
     49 C21         6.5610   -2.1070    0.8460 c2        1 LHJ      0.357000
     50 H42         8.3880   -1.2700    1.1890 hn        1 LHJ      0.271000
     51 F1         -3.2110   -2.6600   -0.1570 f         1 LHJ     -0.077000
     52 N4          7.9190   -2.1000    0.8890 n7        1 LHJ     -0.267000
     53 O2          5.8610   -3.2150    0.4920 oh        1 LHJ     -0.219000
@<TRIPOS>BOND
     1    1    6 1   
     2    1   18 1   
     3    1   20 1   
     4    2   20 1   
     5    2   22 1   
     6    2   23 1   
     7    3    4 1   
     8    3    7 1   
     9    3   18 1   
    10    4   21 1   
    11    4   28 1   
    12    5   21 1   
    13    5   22 1   
    14    5   29 1   
    15    6   30 1   
    16    6   31 1   
    17    6   32 1   
    18    7   10 1   
    19    7   17 1   
    20    8   23 1   
    21    8   27 1   
    22    8   51 1   
    23    9   24 1   
    24    9   25 1   
    25   10   15 1   
    26   10   34 1   
    27   11   15 1   
    28   11   16 1   
    29   11   35 1   
    30   11   45 1   
    31   12   13 1   
    32   12   14 1   
    33   12   44 1   
    34   12   52 1   
    35   13   14 1   
    36   13   40 1   
    37   13   41 1   
    38   15   49 1   
    39   16   17 1   
    40   17   48 1   
    41   18   19 1   
    42   20   21 1   
    43   23   24 1   
    44   24   33 1   
    45   24   46 1   
    46   25   26 1   
    47   25   27 1   
    48   27   47 1   
    49   36   48 1   
    50   37   48 1   
    51   38   48 1   
    52   39   53 1   
    53   42   43 1   
    54   49   52 1   
    55   49   53 1   
    56   50   52 1   
@<TRIPOS>SUBSTRUCTURE
     1 LHJ         1 TEMP              0 ****  ****    0 ROOT
