@<TRIPOS>MOLECULE
LHL
   64    67     1     0     0
SMALL
bcc


@<TRIPOS>ATOM
      1 N1         -0.1320   -1.0570    0.3460 nb        1 LHL     -0.767000
      2 C2          1.2290   -0.8120    0.2470 ca        1 LHL      0.897900
      3 N2          1.8830   -0.9980   -0.9940 nh        1 LHL     -0.716300
      4 N3          2.0540   -0.4220    1.2870 nb        1 LHL     -0.786000
      5 C4          1.4750   -0.3170    2.5230 ca        1 LHL      0.627200
      6 C5          3.6730    0.2790    3.4710 c3        1 LHL      0.084300
      7 N5          2.2560    0.0460    3.6230 n         1 LHL     -0.445300
      8 C6          1.6480    0.3470    4.8810 c         1 LHL      0.831500
      9 O6          2.3590    0.7890    5.8060 o         1 LHL     -0.614500
     10 N7          0.2660    0.1630    5.0410 n         1 LHL     -0.391000
     11 C8         -0.5600   -0.4870    4.0480 c3        1 LHL      0.178300
     12 C9          0.0770   -0.5750    2.7080 ca        1 LHL     -0.411900
     13 C10        -0.6610   -0.9300    1.5740 ca        1 LHL      0.491200
     14 C21         1.1870   -1.0750   -2.2150 ca        1 LHL      0.158600
     15 C22         1.5760   -0.2400   -3.2910 ca        1 LHL     -0.117000
     16 C23         0.9620   -0.3470   -4.5320 ca        1 LHL     -0.134000
     17 C24        -0.0490   -1.2980   -4.7130 ca        1 LHL      0.053100
     18 O24        -0.5710   -1.4110   -6.0030 os        1 LHL     -0.375900
     19 C25        -0.4470   -2.1390   -3.6700 ca        1 LHL     -0.134000
     20 C26         0.1700   -2.0330   -2.4290 ca        1 LHL     -0.117000
     21 C27        -1.9790   -1.6270   -6.0530 c3        1 LHL      0.106400
     22 C28        -2.4870   -1.0130   -7.3640 c3        1 LHL      0.095800
     23 N28        -1.7520   -1.5180   -8.5700 n4        1 LHL     -0.680400
     24 C29        -2.6910   -1.7530   -9.7140 c3        1 LHL      0.108300
     25 C30        -2.0380   -2.4090  -10.9130 c3        1 LHL     -0.129100
     26 C31        -0.6030   -0.6210   -8.9360 c3        1 LHL      0.108300
     27 C32        -0.9800    0.7000   -9.5680 c3        1 LHL     -0.129100
     28 C71        -0.3170    0.3820    6.3170 ca        1 LHL      0.052600
     29 C72        -0.9260    1.6220    6.6210 ca        1 LHL      0.036400
     30 CL72       -0.9720    2.8700    5.4690 cl        1 LHL     -0.070400
     31 C73        -1.5040    1.8460    7.8730 ca        1 LHL     -0.122500
     32 C74        -1.4860    0.8430    8.8390 ca        1 LHL     -0.099000
     33 C75        -0.8980   -0.3890    8.5630 ca        1 LHL     -0.122500
     34 C76        -0.3190   -0.6220    7.3130 ca        1 LHL      0.036400
     35 CL76        0.3880   -2.1370    7.0120 cl        1 LHL     -0.070400
     36 HN2         2.7920   -0.5820   -1.0550 hn        1 LHL      0.449800
     37 H5          4.1340    0.4920    4.4730 h1        1 LHL      0.064700
     38 H5A         4.1540   -0.6350    3.0310 h1        1 LHL      0.064700
     39 H5B         3.8500    1.1540    2.7910 h1        1 LHL      0.064700
     40 H8         -0.8160   -1.5320    4.4030 h1        1 LHL      0.058700
     41 H8A        -1.5270    0.0950    3.9700 h1        1 LHL      0.058700
     42 H10        -1.7480   -1.1280    1.6450 h4        1 LHL      0.032100
     43 H22         2.3740    0.5080   -3.1560 ha        1 LHL      0.161500
     44 H23         1.2690    0.3010   -5.3660 ha        1 LHL      0.140000
     45 H25        -1.2360   -2.8890   -3.8250 ha        1 LHL      0.140000
     46 H26        -0.1420   -2.7120   -1.6180 ha        1 LHL      0.161500
     47 H27        -2.1710   -2.7330   -6.0210 h1        1 LHL      0.080200
     48 H27A       -2.5080   -1.1280   -5.1970 h1        1 LHL      0.080200
     49 H28        -3.5820   -1.2620   -7.4640 hx        1 LHL      0.108700
     50 H28A       -2.3740    0.1080   -7.3240 hx        1 LHL      0.108700
     51 H29        -3.1320   -0.7570  -10.0050 hx        1 LHL      0.105450
     52 H29A       -3.5230   -2.4160   -9.3350 hx        1 LHL      0.105450
     53 H30        -1.5310   -3.3670  -10.6400 hc        1 LHL      0.075200
     54 H30A       -2.8410   -2.6400  -11.6590 hc        1 LHL      0.075200
     55 H30B       -1.2960   -1.7310  -11.4000 hc        1 LHL      0.075200
     56 H31         0.0490   -1.2050   -9.6500 hx        1 LHL      0.105450
     57 H31A       -0.0200   -0.4420   -7.9810 hx        1 LHL      0.105450
     58 H32        -1.6870    1.2890   -8.9360 hc        1 LHL      0.075200
     59 H32A       -0.0410    1.3000   -9.6880 hc        1 LHL      0.075200
     60 H32B       -1.4320    0.5590  -10.5800 hc        1 LHL      0.075200
     61 H73        -1.9670    2.8200    8.0970 ha        1 LHL      0.158500
     62 H74        -1.9360    1.0260    9.8270 ha        1 LHL      0.151000
     63 H75        -0.8830   -1.1780    9.3310 ha        1 LHL      0.158500
     64 H281       -1.3330   -2.4260   -8.3160 hn        1 LHL      0.452800
@<TRIPOS>BOND
     1    1    2 ar  
     2    1   13 ar  
     3    2    3 1   
     4    2    4 ar  
     5    3   14 1   
     6    3   36 1   
     7    4    5 ar  
     8    5    7 1   
     9    5   12 ar  
    10    6    7 1   
    11    6   37 1   
    12    6   38 1   
    13    6   39 1   
    14    7    8 1   
    15    8    9 2   
    16    8   10 1   
    17   10   11 1   
    18   10   28 1   
    19   11   12 1   
    20   11   40 1   
    21   11   41 1   
    22   12   13 ar  
    23   13   42 1   
    24   14   15 ar  
    25   14   20 ar  
    26   15   16 ar  
    27   15   43 1   
    28   16   17 ar  
    29   16   44 1   
    30   17   18 1   
    31   17   19 ar  
    32   18   21 1   
    33   19   20 ar  
    34   19   45 1   
    35   20   46 1   
    36   21   22 1   
    37   21   47 1   
    38   21   48 1   
    39   22   23 1   
    40   22   49 1   
    41   22   50 1   
    42   23   24 1   
    43   23   26 1   
    44   23   64 1   
    45   24   25 1   
    46   24   51 1   
    47   24   52 1   
    48   25   53 1   
    49   25   54 1   
    50   25   55 1   
    51   26   27 1   
    52   26   56 1   
    53   26   57 1   
    54   27   58 1   
    55   27   59 1   
    56   27   60 1   
    57   28   29 ar  
    58   28   34 ar  
    59   29   30 1   
    60   29   31 ar  
    61   31   32 ar  
    62   31   61 1   
    63   32   33 ar  
    64   32   62 1   
    65   33   34 ar  
    66   33   63 1   
    67   34   35 1   
@<TRIPOS>SUBSTRUCTURE
     1 LHL         1 TEMP              0 ****  ****    0 ROOT
