@<TRIPOS>MOLECULE
LHL
   65    68     1     0     0
SMALL
bcc


@<TRIPOS>ATOM
      1 N1          1.4830    1.9660    0.1170 nb        1 LHL     -0.707000
      2 C2          2.1720    0.7930    0.0130 ca        1 LHL      0.741900
      3 N2          2.9300    0.5870   -1.2720 n4        1 LHL     -0.609100
      4 N3          2.2700   -0.2300    0.9110 nb        1 LHL     -0.750000
      5 C4          1.6000   -0.0350    2.1030 ca        1 LHL      0.626200
      6 C5          2.4480   -2.1890    2.9350 c3        1 LHL      0.071300
      7 N5          1.6420   -0.9980    3.0900 n         1 LHL     -0.428300
      8 C6          0.7750   -0.9040    4.2460 c         1 LHL      0.822500
      9 O6          0.7350   -1.8750    5.0180 o         1 LHL     -0.560500
     10 N7         -0.0140    0.2400    4.4110 n         1 LHL     -0.373000
     11 C8          0.1860    1.4380    3.6260 c3        1 LHL      0.151300
     12 C9          0.8620    1.1890    2.3220 ca        1 LHL     -0.318900
     13 C10         0.8350    2.1350    1.2970 ca        1 LHL      0.477200
     14 C21         2.0530    0.1130   -2.3450 ca        1 LHL     -0.065400
     15 C22         1.2780    1.0410   -3.0710 ca        1 LHL     -0.048000
     16 C23         0.4700    0.5960   -4.1070 ca        1 LHL     -0.157000
     17 C24         0.4290   -0.7780   -4.4160 ca        1 LHL      0.160100
     18 O24        -0.3800   -1.1030   -5.4890 os        1 LHL     -0.349900
     19 C25         1.1860   -1.7030   -3.6870 ca        1 LHL     -0.157000
     20 C26         1.9960   -1.2580   -2.6450 ca        1 LHL     -0.048000
     21 C27        -0.6500   -2.4960   -5.6840 c3        1 LHL      0.102400
     22 C28        -1.8340   -2.5840   -6.6510 c3        1 LHL      0.097800
     23 N28        -1.5470   -2.0480   -8.0200 n4        1 LHL     -0.685400
     24 C29        -2.1960   -2.9020   -9.0740 c3        1 LHL      0.110800
     25 C30        -1.8240   -2.5050  -10.4870 c3        1 LHL     -0.132600
     26 C31        -1.9250   -0.5970   -8.1420 c3        1 LHL      0.110800
     27 C32        -3.4090   -0.3110   -8.2100 c3        1 LHL     -0.132600
     28 C71        -0.7730    0.3840    5.6080 ca        1 LHL      0.016600
     29 C72        -0.1850    0.8450    6.8080 ca        1 LHL      0.039400
     30 CL72        1.4630    1.2510    6.8590 cl        1 LHL     -0.070400
     31 C73        -0.9490    0.9730    7.9710 ca        1 LHL     -0.113500
     32 C74        -2.3030    0.6460    7.9540 ca        1 LHL     -0.083000
     33 C75        -2.9050    0.1960    6.7810 ca        1 LHL     -0.113500
     34 C76        -2.1500    0.0640    5.6130 ca        1 LHL      0.039400
     35 CL76       -2.9170   -0.4850    4.2000 cl        1 LHL     -0.070400
     36 HN2         3.6810   -0.1010   -1.1100 hn        1 LHL      0.480800
     37 H5          2.0600   -2.8090    2.0840 h1        1 LHL      0.075033
     38 H5A         2.4090   -2.7980    3.8800 h1        1 LHL      0.075033
     39 H5B         3.5130   -1.8950    2.7320 h1        1 LHL      0.075033
     40 H8          0.8070    2.1840    4.2130 h1        1 LHL      0.086700
     41 H8A        -0.8300    1.9020    3.4470 h1        1 LHL      0.086700
     42 H10         0.2810    3.0900    1.3980 h4        1 LHL      0.071100
     43 H22         1.2950    2.1180   -2.8220 ha        1 LHL      0.178500
     44 H23        -0.1390    1.3090   -4.6860 ha        1 LHL      0.173000
     45 H25         1.1610   -2.7790   -3.9200 ha        1 LHL      0.173000
     46 H26         2.5820   -1.9980   -2.0700 ha        1 LHL      0.178500
     47 H27         0.2690   -2.9950   -6.0910 h1        1 LHL      0.085700
     48 H27A       -0.9550   -2.9800   -4.7170 h1        1 LHL      0.085700
     49 H28        -2.1190   -3.6750   -6.7330 hx        1 LHL      0.122200
     50 H28A       -2.7120   -2.0170   -6.2240 hx        1 LHL      0.122200
     51 H29        -3.3120   -2.8350   -8.9280 hx        1 LHL      0.105450
     52 H29A       -1.8720   -3.9680   -8.8890 hx        1 LHL      0.105450
     53 H30        -0.7180   -2.4980  -10.6430 hc        1 LHL      0.080700
     54 H30A       -2.2680   -3.2640  -11.1840 hc        1 LHL      0.080700
     55 H30B       -2.2390   -1.5040  -10.7600 hc        1 LHL      0.080700
     56 H31        -1.4720   -0.0710   -7.2500 hx        1 LHL      0.105450
     57 H31A       -1.4290   -0.2130   -9.0820 hx        1 LHL      0.105450
     58 H32        -3.5420    0.8020   -8.1970 hc        1 LHL      0.080700
     59 H32A       -3.9670   -0.7360   -7.3420 hc        1 LHL      0.080700
     60 H32B       -3.8610   -0.6990   -9.1560 hc        1 LHL      0.080700
     61 H73        -0.4770    1.3270    8.9030 ha        1 LHL      0.169500
     62 H74        -2.9010    0.7420    8.8750 ha        1 LHL      0.165000
     63 H75        -3.9770   -0.0630    6.7740 ha        1 LHL      0.169500
     64 H221        3.3490    1.4880   -1.5480 hn        1 LHL      0.480800
     65 H281       -0.5290   -2.0950   -8.1710 hn        1 LHL      0.444800
@<TRIPOS>BOND
     1    1    2 ar  
     2    1   13 ar  
     3    2    3 1   
     4    2    4 ar  
     5    3   14 1   
     6    3   36 1   
     7    3   64 1   
     8    4    5 ar  
     9    5    7 1   
    10    5   12 ar  
    11    6    7 1   
    12    6   37 1   
    13    6   38 1   
    14    6   39 1   
    15    7    8 1   
    16    8    9 2   
    17    8   10 1   
    18   10   11 1   
    19   10   28 1   
    20   11   12 1   
    21   11   40 1   
    22   11   41 1   
    23   12   13 ar  
    24   13   42 1   
    25   14   15 ar  
    26   14   20 ar  
    27   15   16 ar  
    28   15   43 1   
    29   16   17 ar  
    30   16   44 1   
    31   17   18 1   
    32   17   19 ar  
    33   18   21 1   
    34   19   20 ar  
    35   19   45 1   
    36   20   46 1   
    37   21   22 1   
    38   21   47 1   
    39   21   48 1   
    40   22   23 1   
    41   22   49 1   
    42   22   50 1   
    43   23   24 1   
    44   23   26 1   
    45   23   65 1   
    46   24   25 1   
    47   24   51 1   
    48   24   52 1   
    49   25   53 1   
    50   25   54 1   
    51   25   55 1   
    52   26   27 1   
    53   26   56 1   
    54   26   57 1   
    55   27   58 1   
    56   27   59 1   
    57   27   60 1   
    58   28   29 ar  
    59   28   34 ar  
    60   29   30 1   
    61   29   31 ar  
    62   31   32 ar  
    63   31   61 1   
    64   32   33 ar  
    65   32   62 1   
    66   33   34 ar  
    67   33   63 1   
    68   34   35 1   
@<TRIPOS>SUBSTRUCTURE
     1 LHL         1 TEMP              0 ****  ****    0 ROOT
