@<TRIPOS>MOLECULE
LHL
   64    67     1     0     0
SMALL
bcc


@<TRIPOS>ATOM
      1 N1         -0.1210   -1.0580    0.3450 nb        1 LHL     -0.767000
      2 C2          1.2360   -0.7960    0.2440 ca        1 LHL      0.896900
      3 N2          1.8910   -0.9740   -0.9970 nu        1 LHL     -0.716300
      4 N3          2.0570   -0.3930    1.2830 nb        1 LHL     -0.786000
      5 C4          1.4790   -0.2930    2.5200 ca        1 LHL      0.627200
      6 C5          3.6710    0.3320    3.4640 c3        1 LHL      0.084300
      7 N5          2.2570    0.0810    3.6180 n         1 LHL     -0.445300
      8 C6          1.6470    0.3770    4.8760 c         1 LHL      0.831500
      9 O6          2.3530    0.8310    5.7980 o         1 LHL     -0.614500
     10 N7          0.2680    0.1750    5.0380 n         1 LHL     -0.391000
     11 C8         -0.5510   -0.4890    4.0480 c3        1 LHL      0.178300
     12 C9          0.0850   -0.5710    2.7070 ca        1 LHL     -0.411900
     13 C10        -0.6500   -0.9370    1.5740 ca        1 LHL      0.491200
     14 C21         1.1940   -1.0610   -2.2170 ca        1 LHL      0.158600
     15 C22         1.5700   -0.2210   -3.2940 ca        1 LHL     -0.117000
     16 C23         0.9550   -0.3360   -4.5340 ca        1 LHL     -0.134000
     17 C24        -0.0430   -1.3000   -4.7120 ca        1 LHL      0.053100
     18 O24        -0.5660   -1.4200   -6.0020 os        1 LHL     -0.375900
     19 C25        -0.4280   -2.1460   -3.6690 ca        1 LHL     -0.134000
     20 C26         0.1900   -2.0320   -2.4290 ca        1 LHL     -0.117000
     21 C27        -1.9710   -1.6570   -6.0490 c3        1 LHL      0.106400
     22 C28        -2.4910   -1.0480   -7.3580 c3        1 LHL      0.095800
     23 N28        -1.7510   -1.5410   -8.5670 nx        1 LHL     -0.680400
     24 C29        -2.6880   -1.7880   -9.7090 c3        1 LHL      0.108300
     25 C30        -2.0280   -2.4320  -10.9100 c3        1 LHL     -0.129100
     26 C31        -0.6160   -0.6250   -8.9330 c3        1 LHL      0.108300
     27 C32        -1.0160    0.6910   -9.5620 c3        1 LHL     -0.129100
     28 C71        -0.3170    0.3890    6.3140 ca        1 LHL      0.052600
     29 C72        -0.9430    1.6210    6.6160 ca        1 LHL      0.036400
     30 Cl72       -1.0080    2.8650    5.4620 cl        1 LHL     -0.070400
     31 C73        -1.5220    1.8390    7.8690 ca        1 LHL     -0.122500
     32 C74        -1.4890    0.8390    8.8370 ca        1 LHL     -0.099000
     33 C75        -0.8840   -0.3850    8.5630 ca        1 LHL     -0.122500
     34 C76        -0.3030   -0.6130    7.3130 ca        1 LHL      0.036400
     35 Cl76        0.4240   -2.1190    7.0140 cl        1 LHL     -0.070400
     36 HN2         2.7950   -0.5460   -1.0600 hn        1 LHL      0.449800
     37 H5          4.1620   -0.5760    3.0240 h1        1 LHL      0.064700
     38 H5A         4.1300    0.5520    4.4650 h1        1 LHL      0.064700
     39 H5B         3.8350    1.2090    2.7830 h1        1 LHL      0.064700
     40 H8         -0.7910   -1.5370    4.4050 h1        1 LHL      0.058700
     41 H8A        -1.5270    0.0780    3.9710 h1        1 LHL      0.058700
     42 H10        -1.7330   -1.1490    1.6480 h4        1 LHL      0.032100
     43 H22         2.3580    0.5380   -3.1610 ha        1 LHL      0.161500
     44 H23         1.2520    0.3160   -5.3680 ha        1 LHL      0.140000
     45 H25        -1.2080   -2.9060   -3.8230 ha        1 LHL      0.140000
     46 H26        -0.1120   -2.7150   -1.6170 ha        1 LHL      0.161500
     47 H27        -2.5050   -1.1680   -5.1910 h1        1 LHL      0.080200
     48 H27A       -2.1460   -2.7660   -6.0190 h1        1 LHL      0.080200
     49 H28        -3.5820   -1.3140   -7.4560 hx        1 LHL      0.108700
     50 H28A       -2.3950    0.0740   -7.3160 hx        1 LHL      0.108700
     51 H29        -3.5090   -2.4640   -9.3290 hx        1 LHL      0.105450
     52 H29A       -3.1450   -0.7990   -9.9970 hx        1 LHL      0.105450
     53 H30        -1.5060   -3.3820  -10.6400 hc        1 LHL      0.075200
     54 H30A       -2.8290   -2.6740  -11.6550 hc        1 LHL      0.075200
     55 H30B       -1.2980   -1.7420  -11.3980 hc        1 LHL      0.075200
     56 H31         0.0420   -1.1980   -9.6500 hx        1 LHL      0.105450
     57 H31A       -0.0350   -0.4390   -7.9800 hx        1 LHL      0.105450
     58 H32        -1.4670    0.5450  -10.5740 hc        1 LHL      0.075200
     59 H32A       -0.0860    1.3060   -9.6830 hc        1 LHL      0.075200
     60 H32B       -1.7310    1.2680   -8.9280 hc        1 LHL      0.075200
     61 H73        -1.9990    2.8070    8.0910 ha        1 LHL      0.158500
     62 H74        -1.9400    1.0180    9.8260 ha        1 LHL      0.151000
     63 H75        -0.8570   -1.1730    9.3330 ha        1 LHL      0.158500
     64 H281       -1.3170   -2.4420   -8.3150 hn        1 LHL      0.452800
@<TRIPOS>BOND
     1    1    2 ar  
     2    1   13 ar  
     3    2    3 1   
     4    2    4 ar  
     5    3   14 1   
     6    3   36 1   
     7    4    5 ar  
     8    5    7 1   
     9    5   12 ar  
    10    6    7 1   
    11    6   37 1   
    12    6   38 1   
    13    6   39 1   
    14    7    8 1   
    15    8    9 2   
    16    8   10 1   
    17   10   11 1   
    18   10   28 1   
    19   11   12 1   
    20   11   40 1   
    21   11   41 1   
    22   12   13 ar  
    23   13   42 1   
    24   14   15 ar  
    25   14   20 ar  
    26   15   16 ar  
    27   15   43 1   
    28   16   17 ar  
    29   16   44 1   
    30   17   18 1   
    31   17   19 ar  
    32   18   21 1   
    33   19   20 ar  
    34   19   45 1   
    35   20   46 1   
    36   21   22 1   
    37   21   47 1   
    38   21   48 1   
    39   22   23 1   
    40   22   49 1   
    41   22   50 1   
    42   23   24 1   
    43   23   26 1   
    44   23   64 1   
    45   24   25 1   
    46   24   51 1   
    47   24   52 1   
    48   25   53 1   
    49   25   54 1   
    50   25   55 1   
    51   26   27 1   
    52   26   56 1   
    53   26   57 1   
    54   27   58 1   
    55   27   59 1   
    56   27   60 1   
    57   28   29 ar  
    58   28   34 ar  
    59   29   30 1   
    60   29   31 ar  
    61   31   32 ar  
    62   31   61 1   
    63   32   33 ar  
    64   32   62 1   
    65   33   34 ar  
    66   33   63 1   
    67   34   35 1   
@<TRIPOS>SUBSTRUCTURE
     1 LHL         1 TEMP              0 ****  ****    0 ROOT
