@<TRIPOS>MOLECULE
LHL
   63    66     1     0     0
SMALL
bcc


@<TRIPOS>ATOM
      1 N1         -0.0960    0.4370    0.3790 nb        1 LHL     -0.749000
      2 C2         -0.0930   -0.8580    0.8860 ca        1 LHL      0.898900
      3 N2         -1.3070   -1.4330    1.3160 nh        1 LHL     -0.696300
      4 N3          1.0380   -1.6380    1.0720 nb        1 LHL     -0.796000
      5 C4          2.2400   -1.0600    0.7760 ca        1 LHL      0.623200
      6 C5          3.3760   -3.1290    1.5010 c3        1 LHL      0.088300
      7 N5          3.4240   -1.7860    0.9730 n         1 LHL     -0.448300
      8 C6          4.6720   -1.2810    0.5120 c         1 LHL      0.835500
      9 O6          5.6910   -1.9990    0.5970 o         1 LHL     -0.633500
     10 N7          4.7360    0.0070   -0.0420 n         1 LHL     -0.396000
     11 C8          3.6150    0.9210   -0.0490 c3        1 LHL      0.184300
     12 C9          2.3160    0.2750    0.2680 ca        1 LHL     -0.431900
     13 C10         1.1030    0.9560    0.0880 ca        1 LHL      0.493200
     14 C21        -2.5520   -0.9850    0.8060 ca        1 LHL      0.081600
     15 C22        -3.3820   -1.8780    0.0890 ca        1 LHL     -0.095000
     16 C23        -4.6380   -1.4840   -0.3440 ca        1 LHL     -0.173500
     17 C24        -5.0870   -0.1760   -0.0790 ca        1 LHL      0.125100
     18 O24        -6.3480    0.1110   -0.5590 os        1 LHL     -0.334900
     19 C25        -4.2770    0.7190    0.6260 ca        1 LHL     -0.173500
     20 C26        -3.0190    0.3160    1.0700 ca        1 LHL     -0.095000
     21 C27        -6.8130    1.4490   -0.3410 c3        1 LHL      0.124400
     22 C28        -8.1860    1.5400   -1.0220 c3        1 LHL      0.171800
     23 N28        -9.2880    1.1770   -0.1440 n3        1 LHL     -0.742600
     24 C29       -10.5410    1.7930   -0.5610 c3        1 LHL      0.169300
     25 C30       -11.7080    1.5450    0.3810 c3        1 LHL     -0.110600
     26 C31        -9.3760   -0.2470    0.1280 c3        1 LHL      0.169300
     27 C32        -9.8890   -1.1500   -0.9830 c3        1 LHL     -0.110600
     28 C71         5.9940    0.5310   -0.4350 ca        1 LHL      0.064600
     29 C72         6.4280    0.4260   -1.7780 ca        1 LHL      0.035400
     30 CL72        5.4570   -0.3340   -2.9450 cl        1 LHL     -0.069400
     31 C73         7.6640    0.9470   -2.1730 ca        1 LHL     -0.125500
     32 C74         8.4840    1.5790   -1.2430 ca        1 LHL     -0.105000
     33 C75         8.0790    1.7000    0.0840 ca        1 LHL     -0.125500
     34 C76         6.8450    1.1830    0.4880 ca        1 LHL      0.035400
     35 CL76        6.3850    1.3540    2.1140 cl        1 LHL     -0.069400
     36 HN2        -1.2660   -2.4220    1.4700 hn        1 LHL      0.436800
     37 H5          2.8220   -3.8020    0.7930 h1        1 LHL      0.061367
     38 H5A         4.4180   -3.5210    1.6430 h1        1 LHL      0.061367
     39 H5B         2.8460   -3.1190    2.4900 h1        1 LHL      0.061367
     40 H8          3.8100    1.7470    0.7020 h1        1 LHL      0.052700
     41 H8A         3.5620    1.3970   -1.0740 h1        1 LHL      0.052700
     42 H10         1.0910    1.9860   -0.3170 h4        1 LHL      0.029100
     43 H22        -3.0410   -2.9030   -0.1280 ha        1 LHL      0.145000
     44 H23        -5.2880   -2.1760   -0.8980 ha        1 LHL      0.145500
     45 H25        -4.6150    1.7420    0.8430 ha        1 LHL      0.145500
     46 H26        -2.3950    1.0320    1.6280 ha        1 LHL      0.145000
     47 H27        -6.8650    1.6550    0.7590 h1        1 LHL      0.049700
     48 H27A       -6.1060    2.1690   -0.8330 h1        1 LHL      0.049700
     49 H28        -8.3160    2.6150   -1.3370 h1        1 LHL      0.046200
     50 H28A       -8.1590    0.9060   -1.9560 h1        1 LHL      0.046200
     51 H29       -10.3610    2.9060   -0.6100 h1        1 LHL      0.041700
     52 H29A      -10.8420    1.4560   -1.5970 h1        1 LHL      0.041700
     53 H30       -12.5620    2.1940    0.0680 hc        1 LHL      0.038033
     54 H30A      -12.0390    0.4800    0.3400 hc        1 LHL      0.038033
     55 H30B      -11.4390    1.7940    1.4350 hc        1 LHL      0.038033
     56 H31        -8.3430   -0.5940    0.4220 h1        1 LHL      0.041700
     57 H31A      -10.0470   -0.3630    1.0270 h1        1 LHL      0.041700
     58 H32        -9.2430   -1.0790   -1.8910 hc        1 LHL      0.038033
     59 H32A       -9.8800   -2.2080   -0.6260 hc        1 LHL      0.038033
     60 H32B      -10.9340   -0.8810   -1.2700 hc        1 LHL      0.038033
     61 H73         7.9890    0.8510   -3.2210 ha        1 LHL      0.154000
     62 H74         9.4590    1.9820   -1.5570 ha        1 LHL      0.146000
     63 H75         8.7320    2.1980    0.8180 ha        1 LHL      0.154000
@<TRIPOS>BOND
     1    1    2 ar  
     2    1   13 ar  
     3    2    3 1   
     4    2    4 ar  
     5    3   14 1   
     6    3   36 1   
     7    4    5 ar  
     8    5    7 1   
     9    5   12 ar  
    10    6    7 1   
    11    6   37 1   
    12    6   38 1   
    13    6   39 1   
    14    7    8 1   
    15    8    9 2   
    16    8   10 1   
    17   10   11 1   
    18   10   28 1   
    19   11   12 1   
    20   11   40 1   
    21   11   41 1   
    22   12   13 ar  
    23   13   42 1   
    24   14   15 ar  
    25   14   20 ar  
    26   15   16 ar  
    27   15   43 1   
    28   16   17 ar  
    29   16   44 1   
    30   17   18 1   
    31   17   19 ar  
    32   18   21 1   
    33   19   20 ar  
    34   19   45 1   
    35   20   46 1   
    36   21   22 1   
    37   21   47 1   
    38   21   48 1   
    39   22   23 1   
    40   22   49 1   
    41   22   50 1   
    42   23   24 1   
    43   23   26 1   
    44   24   25 1   
    45   24   51 1   
    46   24   52 1   
    47   25   53 1   
    48   25   54 1   
    49   25   55 1   
    50   26   27 1   
    51   26   56 1   
    52   26   57 1   
    53   27   58 1   
    54   27   59 1   
    55   27   60 1   
    56   28   29 ar  
    57   28   34 ar  
    58   29   30 1   
    59   29   31 ar  
    60   31   32 ar  
    61   31   61 1   
    62   32   33 ar  
    63   32   62 1   
    64   33   34 ar  
    65   33   63 1   
    66   34   35 1   
@<TRIPOS>SUBSTRUCTURE
     1 LHL         1 TEMP              0 ****  ****    0 ROOT
