@<TRIPOS>MOLECULE
LHO
   40    42     1     0     0
SMALL
bcc


@<TRIPOS>ATOM
      1 P           3.8080    1.7370   -0.7820 p5        1 LHO      1.309900
      2 C1         -0.7230    0.5290    0.0250 cc        1 LHO      0.026600
      3 N1         -1.0690   -0.7980    0.2140 n         1 LHO     -0.253000
      4 C2         -1.6710    1.5050   -0.1630 cd        1 LHO     -0.232200
      5 C3         -3.0530    1.1640   -0.1580 ca        1 LHO      0.032200
      6 C4         -3.4140   -0.1850    0.0640 ca        1 LHO     -0.150600
      7 C5         -2.3880   -1.2020    0.2760 c         1 LHO      0.444000
      8 C6         -4.0670    2.1320   -0.3610 ca        1 LHO     -0.151000
      9 C7         -5.4010    1.7700   -0.3440 ca        1 LHO     -0.063300
     10 C8         -5.7560    0.4180   -0.1210 ca        1 LHO     -0.189000
     11 C9         -4.7830   -0.5370    0.0780 ca        1 LHO     -0.061000
     12 C1'        -0.0050   -1.8100    0.4590 c3        1 LHO      0.280500
     13 C10        -6.4710    2.7710   -0.5580 c3        1 LHO     -0.046800
     14 OP2         4.0080    1.8710   -2.2650 o         1 LHO     -0.922500
     15 C2'         0.2450   -2.7840   -0.7190 c3        1 LHO     -0.133400
     16 OP3         3.6220    2.9920    0.0130 o         1 LHO     -0.922500
     17 C3'         1.7540   -2.6780   -1.0010 c3        1 LHO      0.109100
     18 O3'         2.4330   -3.8140   -0.4930 oh        1 LHO     -0.619800
     19 C4'         2.1710   -1.3590   -0.3270 c3        1 LHO      0.036100
     20 O4'         1.2300   -1.1860    0.7630 os        1 LHO     -0.392600
     21 C5'         2.1450   -0.1950   -1.3450 c3        1 LHO      0.227400
     22 O5'         2.1840    1.0270   -0.7430 os        1 LHO     -0.554200
     23 H2         -1.3500    2.5440   -0.3230 ha        1 LHO      0.168000
     24 H6         -3.7670    3.1760   -0.5340 ha        1 LHO      0.133000
     25 H8         -6.8190    0.1410   -0.1100 ha        1 LHO      0.114000
     26 H9         -5.0420   -1.5970    0.2540 ha        1 LHO      0.166000
     27 H1'        -0.3270   -2.3640    1.3940 h2        1 LHO      0.090700
     28 H110       -7.0760    2.5030   -1.4600 hc        1 LHO      0.033367
     29 H210       -7.1570    2.7990    0.3250 hc        1 LHO      0.033367
     30 H310       -6.0480    3.7950   -0.7080 hc        1 LHO      0.033367
     31 H12'       -0.0430   -3.8180   -0.4140 hc        1 LHO      0.065700
     32 H22'       -0.3360   -2.5060   -1.6290 hc        1 LHO      0.065700
     33 H3'         1.9750   -2.6760   -2.1000 h1        1 LHO      0.083700
     34 H4'         3.1780   -1.3710    0.1820 h1        1 LHO      0.156700
     35 H15'        3.0260   -0.3390   -2.0340 h1        1 LHO     -0.004800
     36 H25'        1.1840   -0.2990   -1.9400 h1        1 LHO     -0.004800
     37 HO3'        2.6390   -3.6300    0.4310 ho        1 LHO      0.402000
     38 OP1         4.5390    0.5870   -0.1410 o         1 LHO     -0.922500
     39 S1         -2.8240   -2.7390    0.5860 s         1 LHO     -0.685400
     40 H1          0.3830    0.7780    0.0330 h4        1 LHO      0.296000
@<TRIPOS>BOND
     1    1   14 1   
     2    1   16 1   
     3    1   22 1   
     4    1   38 1   
     5    2    3 1   
     6    2    4 2   
     7    2   40 1   
     8    3    7 1   
     9    3   12 1   
    10    4    5 1   
    11    4   23 1   
    12    5    6 ar  
    13    5    8 ar  
    14    6    7 1   
    15    6   11 ar  
    16    7   39 2   
    17    8    9 ar  
    18    8   24 1   
    19    9   10 ar  
    20    9   13 1   
    21   10   11 ar  
    22   10   25 1   
    23   11   26 1   
    24   12   15 1   
    25   12   20 1   
    26   12   27 1   
    27   13   28 1   
    28   13   29 1   
    29   13   30 1   
    30   15   17 1   
    31   15   31 1   
    32   15   32 1   
    33   17   18 1   
    34   17   19 1   
    35   17   33 1   
    36   18   37 1   
    37   19   20 1   
    38   19   21 1   
    39   19   34 1   
    40   21   22 1   
    41   21   35 1   
    42   21   36 1   
@<TRIPOS>SUBSTRUCTURE
     1 LHO         1 TEMP              0 ****  ****    0 ROOT
