@<TRIPOS>MOLECULE
LHO
   40    37     1     0     0
SMALL
bcc


@<TRIPOS>ATOM
      1 P          -1.1000   -5.4810    3.4660 p3        1 LHO      2.522000
      2 C1          0.6780    0.3040    0.7510 c1        1 LHO      0.024000
      3 N1         -0.4840    0.4460   -0.0430 n2        1 LHO     -0.153000
      4 S1         -2.0330    1.8080   -1.7580 s         1 LHO     -0.365000
      5 C2          1.7750    1.3630    0.6910 c1        1 LHO     -0.238000
      6 C3          1.6220    2.5520   -0.2120 c2        1 LHO      0.039000
      7 C4          0.4990    2.6860   -0.9770 c2        1 LHO     -0.123000
      8 C5         -0.6320    1.5940   -0.9120 c2        1 LHO      0.078000
      9 C6          2.6500    3.4960   -0.3080 c1        1 LHO     -0.150000
     10 C7          2.5290    4.5590   -1.1710 c2        1 LHO     -0.054000
     11 C8          1.3990    4.6950   -1.9410 c1        1 LHO     -0.181000
     12 C9          0.3790    3.7620   -1.8490 c2        1 LHO     -0.063000
     13 C1'        -1.5040   -0.5400    0.0040 c3        1 LHO      0.125000
     14 C10         3.6960    5.4280   -1.4540 c3        1 LHO     -0.173000
     15 OP2        -1.3110   -5.4000    5.0030 o         1 LHO     -1.237000
     16 C2'        -1.4830   -1.2570   -1.0860 c3        1 LHO     -0.207000
     17 OP3        -1.9770   -6.5490    2.9000 os        1 LHO     -1.270000
     18 C3'        -1.9300   -2.6750   -0.6460 c3        1 LHO      0.042000
     19 O3'        -3.1690   -2.9250   -1.0760 oh        1 LHO     -0.394000
     20 C4'        -1.8880   -2.6640    0.9200 c3        1 LHO     -0.064000
     21 O4'        -1.2500   -1.5740    1.2350 os        1 LHO     -0.290000
     22 C5'        -1.1390   -3.8830    1.4320 c3        1 LHO      0.076000
     23 O5'        -1.4700   -4.1030    2.8160 os        1 LHO     -0.714000
     24 H1          0.7470   -0.4020    1.3520 ha        1 LHO      0.230000
     25 H2          2.5970    1.2540    1.2260 DU        1 LHO      0.137000
     26 H6          3.4590    3.4000    0.2420 DU        1 LHO      0.137000
     27 H8          1.3150    5.4430   -2.5470 DU        1 LHO      0.137000
     28 H9         -0.4130    3.8590   -2.3890 ha        1 LHO      0.169000
     29 H1'        -2.3510   -0.1230    0.1020 h2        1 LHO      0.151000
     30 H110        3.4850    6.3640   -1.1870 hc        1 LHO      0.074667
     31 H210        3.9060    5.3990   -2.4380 hc        1 LHO      0.074667
     32 H310        4.5120    5.0930   -0.9180 hc        1 LHO      0.074667
     33 H12'       -0.5320   -1.2900   -1.4710 hc        1 LHO      0.097000
     34 H22'       -2.0890   -0.9030   -1.7290 hc        1 LHO      0.097000
     35 H3'        -1.3060   -3.3530   -0.9980 h1        1 LHO      0.140000
     36 H4'        -2.8020   -2.6440    1.2870 h1        1 LHO      0.115000
     37 H15'       -0.1930   -3.7360    1.3480 h1        1 LHO      0.037000
     38 H25'       -1.3980   -4.6740    0.9000 h1        1 LHO      0.037000
     39 HO3'       -3.1390   -3.5210   -1.7380 ho        1 LHO      0.300000
     40 OP1         0.3450   -5.8070    3.1730 o         1 LHO     -1.237000
@<TRIPOS>BOND
     1    1   15 1   
     2    1   23 1   
     3    1   40 1   
     4    2    5 1   
     5    2   24 1   
     6    3    8 1   
     7    3   13 1   
     8    4    8 1   
     9    5    6 1   
    10    6    7 1   
    11    6    9 1   
    12    7    8 1   
    13    7   12 1   
    14    9   10 1   
    15   10   11 1   
    16   10   14 1   
    17   11   12 1   
    18   12   28 1   
    19   13   16 1   
    20   13   21 1   
    21   13   29 1   
    22   14   30 1   
    23   14   31 1   
    24   14   32 1   
    25   16   18 1   
    26   16   33 1   
    27   16   34 1   
    28   18   19 1   
    29   18   20 1   
    30   18   35 1   
    31   19   39 1   
    32   20   21 1   
    33   20   22 1   
    34   20   36 1   
    35   22   23 1   
    36   22   37 1   
    37   22   38 1   
@<TRIPOS>SUBSTRUCTURE
     1 LHO         1 TEMP              0 ****  ****    0 ROOT
