@<TRIPOS>MOLECULE
LHP
   74    77     1     0     0
SMALL
bcc


@<TRIPOS>ATOM
      1 O3          0.1030    0.1000   -0.1240 os        1 LHP     -0.440900
      2 C1          3.6660    0.1670    1.0390 c3        1 LHP     -0.070400
      3 C2          2.5140    0.2500    0.0650 c3        1 LHP     -0.099400
      4 C3          1.1940    0.1890    0.8180 c3        1 LHP      0.151100
      5 C4          1.1060   -1.0760    1.6610 c3        1 LHP     -0.078400
      6 C5          2.2810   -1.1750    2.6240 c3        1 LHP     -0.048700
      7 C6          2.1550   -2.4430    3.4570 c3        1 LHP     -0.071400
      8 C7          2.4290   -3.6950    2.6550 c3        1 LHP     -0.074400
      9 C8          3.7840   -3.6290    1.9720 c3        1 LHP     -0.047700
     10 C9          3.8950   -2.3680    1.0970 c3        1 LHP     -0.046700
     11 C10         3.6510   -1.0910    1.9190 c3        1 LHP     -0.036000
     12 C11         5.2130   -2.3420    0.3320 c3        1 LHP     -0.072400
     13 C12         5.4960   -3.6170   -0.4500 c3        1 LHP     -0.065400
     14 C13         5.4140   -4.8430    0.4450 c3        1 LHP     -0.047000
     15 C14         3.9990   -4.8320    1.0780 c3        1 LHP     -0.067700
     16 C15         3.8430   -6.2290    1.6590 c3        1 LHP     -0.073400
     17 C16         4.6260   -7.1290    0.7000 c3        1 LHP     -0.080400
     18 C17         5.3980   -6.2150   -0.2760 c3        1 LHP     -0.047700
     19 C18         6.5220   -4.8200    1.4840 c3        1 LHP     -0.080100
     20 C19         4.7370   -0.8900    2.9740 c3        1 LHP     -0.087100
     21 C20         6.7420   -6.8170   -0.6720 c3        1 LHP     -0.061700
     22 C21         7.5090   -5.9040   -1.6090 c3        1 LHP     -0.086100
     23 C22         6.5330   -8.1760   -1.3390 c3        1 LHP     -0.068400
     24 C23         7.7920   -9.0080   -1.3890 c3        1 LHP     -0.195400
     25 C24         7.4790  -10.4700   -1.7590 c         1 LHP      0.907600
     26 C26        -0.3790    1.2580   -0.6590 c         1 LHP      0.633100
     27 C27        -1.4750    1.0130   -1.6530 c3        1 LHP     -0.130400
     28 C28        -2.5800    2.0270   -1.5080 c3        1 LHP     -0.092100
     29 OT1         6.5020  -11.0400   -1.1940 o         1 LHP     -0.852300
     30 OT2         8.2350  -11.0360   -2.6010 o         1 LHP     -0.852300
     31 O25         0.1090    2.3350   -0.3080 o         1 LHP     -0.552000
     32 H3          2.5650   -0.5880   -0.6780 hc        1 LHP      0.055700
     33 H4          2.5650    1.2150   -0.5060 hc        1 LHP      0.055700
     34 H5          1.0610    1.1080    1.4520 h1        1 LHP      0.067700
     35 H6          0.1480   -1.0650    2.2430 hc        1 LHP      0.054700
     36 H7          1.0750   -1.9680    0.9830 hc        1 LHP      0.054700
     37 H8          2.2160   -0.2930    3.3260 hc        1 LHP      0.038700
     38 H9          1.1220   -2.4970    3.8920 hc        1 LHP      0.036200
     39 H10         2.8760   -2.3860    4.3160 hc        1 LHP      0.036200
     40 H11         2.4040   -4.5890    3.3320 hc        1 LHP      0.042200
     41 H12         1.6250   -3.8410    1.8860 hc        1 LHP      0.042200
     42 H13         4.5780   -3.6090    2.7680 hc        1 LHP      0.053700
     43 H14         3.0690   -2.4270    0.3290 hc        1 LHP      0.047700
     44 H15         6.0580   -2.1540    1.0440 hc        1 LHP      0.034200
     45 H16         5.1940   -1.4900   -0.3990 hc        1 LHP      0.034200
     46 H17         4.7560   -3.7180   -1.2860 hc        1 LHP      0.042200
     47 H18         6.5140   -3.5400   -0.9110 hc        1 LHP      0.042200
     48 H19         3.2560   -4.7490    0.2290 hc        1 LHP      0.042700
     49 H20         2.7680   -6.5270    1.7160 hc        1 LHP      0.032700
     50 H21         4.2650   -6.2820    2.6930 hc        1 LHP      0.032700
     51 H22         3.9340   -7.7970    0.1300 hc        1 LHP      0.056200
     52 H23         5.3350   -7.7810    1.2680 hc        1 LHP      0.056200
     53 H24         4.7900   -6.0960   -1.2150 hc        1 LHP      0.041700
     54 H25         7.5190   -4.8260    0.9790 hc        1 LHP      0.033033
     55 H26         6.4520   -5.7210    2.1410 hc        1 LHP      0.033033
     56 H27         6.4680   -3.9090    2.1250 hc        1 LHP      0.033033
     57 H28         4.8630   -1.8000    3.6060 hc        1 LHP      0.034367
     58 H29         4.4730   -0.0340    3.6410 hc        1 LHP      0.034367
     59 H30         5.7140   -0.6620    2.4830 hc        1 LHP      0.034367
     60 H31         7.3550   -6.9740    0.2600 hc        1 LHP      0.043700
     61 H32         6.8400   -5.5130   -2.4130 hc        1 LHP      0.025700
     62 H33         7.9460   -5.0360   -1.0590 hc        1 LHP      0.025700
     63 H34         8.3460   -6.4670   -2.0880 hc        1 LHP      0.025700
     64 H35         6.1440   -8.0190   -2.3780 hc        1 LHP      0.047700
     65 H36         5.7580   -8.7690   -0.7810 hc        1 LHP      0.047700
     66 H37         8.2910   -9.0120   -0.3870 hc        1 LHP      0.019700
     67 H38         8.5170   -8.5910   -2.1320 hc        1 LHP      0.019700
     68 H39        -1.8730   -0.0280   -1.5230 hc        1 LHP      0.076700
     69 H40        -1.0140    1.0790   -2.6750 hc        1 LHP      0.076700
     70 H41        -3.3200    1.9010   -2.3350 hc        1 LHP      0.045700
     71 H42        -3.1090    1.8980   -0.5340 hc        1 LHP      0.045700
     72 H43        -2.1660    3.0640   -1.5480 hc        1 LHP      0.045700
     73 H1          4.6330    0.2210    0.4760 hc        1 LHP      0.042700
     74 H2          3.6300    1.0650    1.7140 hc        1 LHP      0.042700
@<TRIPOS>BOND
     1    1    4 1   
     2    1   26 1   
     3    2    3 1   
     4    2   11 1   
     5    2   73 1   
     6    2   74 1   
     7    3    4 1   
     8    3   32 1   
     9    3   33 1   
    10    4    5 1   
    11    4   34 1   
    12    5    6 1   
    13    5   35 1   
    14    5   36 1   
    15    6    7 1   
    16    6   11 1   
    17    6   37 1   
    18    7    8 1   
    19    7   38 1   
    20    7   39 1   
    21    8    9 1   
    22    8   40 1   
    23    8   41 1   
    24    9   10 1   
    25    9   15 1   
    26    9   42 1   
    27   10   11 1   
    28   10   12 1   
    29   10   43 1   
    30   11   20 1   
    31   12   13 1   
    32   12   44 1   
    33   12   45 1   
    34   13   14 1   
    35   13   46 1   
    36   13   47 1   
    37   14   15 1   
    38   14   18 1   
    39   14   19 1   
    40   15   16 1   
    41   15   48 1   
    42   16   17 1   
    43   16   49 1   
    44   16   50 1   
    45   17   18 1   
    46   17   51 1   
    47   17   52 1   
    48   18   21 1   
    49   18   53 1   
    50   19   54 1   
    51   19   55 1   
    52   19   56 1   
    53   20   57 1   
    54   20   58 1   
    55   20   59 1   
    56   21   22 1   
    57   21   23 1   
    58   21   60 1   
    59   22   61 1   
    60   22   62 1   
    61   22   63 1   
    62   23   24 1   
    63   23   64 1   
    64   23   65 1   
    65   24   25 1   
    66   24   66 1   
    67   24   67 1   
    68   25   29 1   
    69   25   30 1   
    70   26   27 1   
    71   26   31 2   
    72   27   28 1   
    73   27   68 1   
    74   27   69 1   
    75   28   70 1   
    76   28   71 1   
    77   28   72 1   
@<TRIPOS>SUBSTRUCTURE
     1 LHP         1 TEMP              0 ****  ****    0 ROOT
