@<TRIPOS>MOLECULE
LHP
   74    77     1     0     0
SMALL
bcc


@<TRIPOS>ATOM
      1 O3         -5.1670    1.1370   -0.5500 os        1 LHP     -0.440900
      2 C1         -3.2130   -0.8330    1.9700 c3        1 LHP     -0.070400
      3 C2         -3.8670    0.3790    1.3500 c3        1 LHP     -0.099400
      4 C3         -4.6830   -0.0380    0.1350 c3        1 LHP      0.151100
      5 C4         -3.8150   -0.7700   -0.8790 c3        1 LHP     -0.078400
      6 C5         -3.1330   -1.9760   -0.2480 c3        1 LHP     -0.048700
      7 C6         -2.2840   -2.6880   -1.2920 c3        1 LHP     -0.071400
      8 C7         -1.0430   -1.9080   -1.6620 c3        1 LHP     -0.074400
      9 C8         -0.2160   -1.5680   -0.4330 c3        1 LHP     -0.047700
     10 C9         -1.0650   -0.8100    0.6030 c3        1 LHP     -0.046700
     11 C10        -2.3110   -1.6180    1.0070 c3        1 LHP     -0.036000
     12 C11        -0.2200   -0.3790    1.7970 c3        1 LHP     -0.072400
     13 C12         1.0420    0.3790    1.4160 c3        1 LHP     -0.065400
     14 C13         1.8790   -0.4060    0.4180 c3        1 LHP     -0.047000
     15 C14         0.9610   -0.6870   -0.8000 c3        1 LHP     -0.067700
     16 C15         1.9200   -1.1420   -1.8890 c3        1 LHP     -0.073400
     17 C16         3.2010   -0.3470   -1.6220 c3        1 LHP     -0.080400
     18 C17         3.0340    0.3690   -0.2650 c3        1 LHP     -0.047700
     19 C18         2.4160   -1.6750    1.0550 c3        1 LHP     -0.080100
     20 C19        -1.9290   -2.9070    1.7310 c3        1 LHP     -0.087100
     21 C20         4.3550    0.4700    0.4890 c3        1 LHP     -0.061700
     22 C21         4.1820    1.1500    1.8330 c3        1 LHP     -0.086100
     23 C22         5.3800    1.2370   -0.3450 c3        1 LHP     -0.068400
     24 C23         6.7990    1.0330    0.1300 c3        1 LHP     -0.195400
     25 C24         7.8130    1.5430   -0.9110 c         1 LHP      0.907600
     26 C26        -6.3220    1.7100   -0.1030 c         1 LHP      0.633100
     27 C27        -6.6800    2.9450   -0.8750 c3        1 LHP     -0.130400
     28 C28        -8.1620    3.0120   -1.1420 c3        1 LHP     -0.092100
     29 OT1         7.6260    1.2550   -2.1290 o         1 LHP     -0.852300
     30 OT2         8.8000    2.2120   -0.4900 o         1 LHP     -0.852300
     31 O25        -6.9240    1.1980    0.8440 o         1 LHP     -0.552000
     32 H3         -4.5460    0.8710    2.0950 hc        1 LHP      0.055700
     33 H4         -3.0950    1.1320    1.0450 hc        1 LHP      0.055700
     34 H5         -5.5580   -0.6700    0.4490 h1        1 LHP      0.066700
     35 H6         -4.4550   -1.1090   -1.7350 hc        1 LHP      0.054700
     36 H7         -3.0550   -0.0580   -1.2930 hc        1 LHP      0.054700
     37 H8         -3.9450   -2.6870    0.0810 hc        1 LHP      0.038700
     38 H9         -1.9870   -3.6940   -0.8920 hc        1 LHP      0.036200
     39 H10        -2.9020   -2.8640   -2.2120 hc        1 LHP      0.036200
     40 H11        -0.4150   -2.5130   -2.3690 hc        1 LHP      0.042200
     41 H12        -1.3280   -0.9650   -2.1980 hc        1 LHP      0.042200
     42 H13         0.1610   -2.5280    0.0140 hc        1 LHP      0.053700
     43 H14        -1.4320    0.1320    0.1020 hc        1 LHP      0.047700
     44 H15        -0.8350    0.2900    2.4560 hc        1 LHP      0.034200
     45 H16         0.0620   -1.2790    2.4030 hc        1 LHP      0.034200
     46 H17         0.7660    1.3710    0.9700 hc        1 LHP      0.042200
     47 H18         1.6360    0.5830    2.3440 hc        1 LHP      0.042200
     48 H19         0.5370    0.3070   -1.1340 hc        1 LHP      0.042700
     49 H20         2.1090   -2.2420   -1.8230 hc        1 LHP      0.032700
     50 H21         1.5090   -0.9290   -2.9060 hc        1 LHP      0.032700
     51 H22         4.0850   -1.0320   -1.5950 hc        1 LHP      0.056200
     52 H23         3.3780    0.4030   -2.4310 hc        1 LHP      0.056200
     53 H24         2.6720    1.4180   -0.4540 hc        1 LHP      0.041700
     54 H25         1.5930   -2.3330    1.4230 hc        1 LHP      0.033033
     55 H26         3.0240   -2.2500    0.3140 hc        1 LHP      0.033033
     56 H27         3.0670   -1.4200    1.9260 hc        1 LHP      0.033033
     57 H28        -2.8360   -3.5380    1.9000 hc        1 LHP      0.034367
     58 H29        -1.1940   -3.5020    1.1410 hc        1 LHP      0.034367
     59 H30        -1.4770   -2.6730    2.7250 hc        1 LHP      0.034367
     60 H31         4.7520   -0.5710    0.6610 hc        1 LHP      0.043700
     61 H32         3.6960    0.4690    2.5720 hc        1 LHP      0.025700
     62 H33         5.1790    1.4490    2.2400 hc        1 LHP      0.025700
     63 H34         3.5540    2.0680    1.7320 hc        1 LHP      0.025700
     64 H35         5.3330    0.9090   -1.4190 hc        1 LHP      0.047700
     65 H36         5.1280    2.3290   -0.3220 hc        1 LHP      0.047700
     66 H37         6.9760    1.5610    1.0990 hc        1 LHP      0.019700
     67 H38         6.9990   -0.0570    0.2900 hc        1 LHP      0.019700
     68 H39        -6.3530    3.8250   -0.2580 hc        1 LHP      0.076700
     69 H40        -6.1030    2.9670   -1.8370 hc        1 LHP      0.076700
     70 H41        -8.4750    2.1970   -1.8390 hc        1 LHP      0.045700
     71 H42        -8.7360    2.8990   -0.1890 hc        1 LHP      0.045700
     72 H43        -8.4190    3.9940   -1.6050 hc        1 LHP      0.045700
     73 H1         -2.6200   -0.5170    2.8670 hc        1 LHP      0.042700
     74 H2         -4.0180   -1.5260    2.3370 hc        1 LHP      0.042700
@<TRIPOS>BOND
     1    1    4 1   
     2    1   26 1   
     3    2    3 1   
     4    2   11 1   
     5    2   73 1   
     6    2   74 1   
     7    3    4 1   
     8    3   32 1   
     9    3   33 1   
    10    4    5 1   
    11    4   34 1   
    12    5    6 1   
    13    5   35 1   
    14    5   36 1   
    15    6    7 1   
    16    6   11 1   
    17    6   37 1   
    18    7    8 1   
    19    7   38 1   
    20    7   39 1   
    21    8    9 1   
    22    8   40 1   
    23    8   41 1   
    24    9   10 1   
    25    9   15 1   
    26    9   42 1   
    27   10   11 1   
    28   10   12 1   
    29   10   43 1   
    30   11   20 1   
    31   12   13 1   
    32   12   44 1   
    33   12   45 1   
    34   13   14 1   
    35   13   46 1   
    36   13   47 1   
    37   14   15 1   
    38   14   18 1   
    39   14   19 1   
    40   15   16 1   
    41   15   48 1   
    42   16   17 1   
    43   16   49 1   
    44   16   50 1   
    45   17   18 1   
    46   17   51 1   
    47   17   52 1   
    48   18   21 1   
    49   18   53 1   
    50   19   54 1   
    51   19   55 1   
    52   19   56 1   
    53   20   57 1   
    54   20   58 1   
    55   20   59 1   
    56   21   22 1   
    57   21   23 1   
    58   21   60 1   
    59   22   61 1   
    60   22   62 1   
    61   22   63 1   
    62   23   24 1   
    63   23   64 1   
    64   23   65 1   
    65   24   25 1   
    66   24   66 1   
    67   24   67 1   
    68   25   29 1   
    69   25   30 1   
    70   26   27 1   
    71   26   31 2   
    72   27   28 1   
    73   27   68 1   
    74   27   69 1   
    75   28   70 1   
    76   28   71 1   
    77   28   72 1   
@<TRIPOS>SUBSTRUCTURE
     1 LHP         1 TEMP              0 ****  ****    0 ROOT
