@<TRIPOS>MOLECULE
LHP
   74    77     1     0     0
SMALL
bcc


@<TRIPOS>ATOM
      1 O3          0.1000    0.0980   -0.1100 os        1 LHP     -0.440900
      2 C1          3.6710    0.1690    1.0270 c3        1 LHP     -0.070400
      3 C2          2.5130    0.2490    0.0610 c3        1 LHP     -0.099400
      4 C3          1.1980    0.1910    0.8240 c3        1 LHP      0.151100
      5 C4          1.1150   -1.0700    1.6730 c3        1 LHP     -0.078400
      6 C5          2.2970   -1.1660    2.6280 c3        1 LHP     -0.048700
      7 C6          2.1770   -2.4310    3.4660 c3        1 LHP     -0.071400
      8 C7          2.4440   -3.6860    2.6670 c3        1 LHP     -0.074400
      9 C8          3.7950   -3.6230    1.9740 c3        1 LHP     -0.047700
     10 C9          3.8990   -2.3660    1.0930 c3        1 LHP     -0.046700
     11 C10         3.6620   -1.0850    1.9120 c3        1 LHP     -0.036000
     12 C11         5.2130   -2.3430    0.3190 c3        1 LHP     -0.072400
     13 C12         5.4890   -3.6210   -0.4600 c3        1 LHP     -0.065400
     14 C13         5.4130   -4.8440    0.4400 c3        1 LHP     -0.047000
     15 C14         4.0020   -4.8300    1.0830 c3        1 LHP     -0.067700
     16 C15         3.8500   -6.2250    1.6700 c3        1 LHP     -0.073400
     17 C16         4.6260   -7.1280    0.7090 c3        1 LHP     -0.080400
     18 C17         5.3910   -6.2190   -0.2760 c3        1 LHP     -0.047700
     19 C18         6.5290   -4.8170    1.4700 c3        1 LHP     -0.080100
     20 C19         4.7560   -0.8810    2.9580 c3        1 LHP     -0.087100
     21 C20         6.7320   -6.8220   -0.6790 c3        1 LHP     -0.061700
     22 C21         7.4930   -5.9130   -1.6250 c3        1 LHP     -0.086100
     23 C22         6.5180   -8.1840   -1.3400 c3        1 LHP     -0.068400
     24 C23         7.7760   -9.0160   -1.3960 c3        1 LHP     -0.195400
     25 C24         7.4600  -10.4790   -1.7590 c         1 LHP      0.907600
     26 C26        -0.3840    1.2540   -0.6480 c         1 LHP      0.633100
     27 C27        -1.4880    1.0060   -1.6330 c3        1 LHP     -0.130400
     28 C28        -2.5880    2.0250   -1.4900 c3        1 LHP     -0.093100
     29 OT1         6.4860  -11.0480   -1.1840 o         1 LHP     -0.852300
     30 OT2         8.2090  -11.0490   -2.6040 o         1 LHP     -0.852300
     31 O25         0.1060    2.3330   -0.3040 o         1 LHP     -0.552000
     32 H3          2.5590    1.2120   -0.5140 hc        1 LHP      0.055700
     33 H4          2.5570   -0.5920   -0.6790 hc        1 LHP      0.055700
     34 H5          1.0690    1.1120    1.4550 h1        1 LHP      0.066700
     35 H6          1.0790   -1.9650    0.9980 hc        1 LHP      0.054700
     36 H7          0.1610   -1.0570    2.2610 hc        1 LHP      0.054700
     37 H8          2.2370   -0.2810    3.3260 hc        1 LHP      0.038700
     38 H9          2.9030   -2.3710    4.3190 hc        1 LHP      0.036200
     39 H10         1.1470   -2.4830    3.9090 hc        1 LHP      0.036200
     40 H11         2.4240   -4.5780    3.3470 hc        1 LHP      0.042200
     41 H12         1.6350   -3.8340    1.9040 hc        1 LHP      0.042200
     42 H13         4.5940   -3.6000    2.7640 hc        1 LHP      0.053700
     43 H14         3.0680   -2.4270    0.3320 hc        1 LHP      0.047700
     44 H15         5.1890   -1.4940   -0.4150 hc        1 LHP      0.034200
     45 H16         6.0620   -2.1520    1.0250 hc        1 LHP      0.034200
     46 H17         6.5040   -3.5460   -0.9290 hc        1 LHP      0.042200
     47 H18         4.7430   -3.7250   -1.2910 hc        1 LHP      0.042200
     48 H19         3.2530   -4.7500    0.2390 hc        1 LHP      0.042700
     49 H20         4.2800   -6.2740    2.7010 hc        1 LHP      0.032700
     50 H21         2.7750   -6.5210    1.7360 hc        1 LHP      0.032700
     51 H22         5.3380   -7.7780    1.2740 hc        1 LHP      0.056200
     52 H23         3.9300   -7.7980    0.1460 hc        1 LHP      0.056200
     53 H24         4.7770   -6.1030   -1.2110 hc        1 LHP      0.041700
     54 H25         6.4630   -5.7150    2.1320 hc        1 LHP      0.033033
     55 H26         7.5220   -4.8260    0.9590 hc        1 LHP      0.033033
     56 H27         6.4800   -3.9030    2.1090 hc        1 LHP      0.033033
     57 H28         4.4970   -0.0220    3.6240 hc        1 LHP      0.034367
     58 H29         4.8860   -1.7880    3.5930 hc        1 LHP      0.034367
     59 H30         5.7290   -0.6550    2.4600 hc        1 LHP      0.034367
     60 H31         7.3520   -6.9760    0.2480 hc        1 LHP      0.043700
     61 H32         6.8190   -5.5250   -2.4260 hc        1 LHP      0.025700
     62 H33         8.3260   -6.4780   -2.1080 hc        1 LHP      0.025700
     63 H34         7.9340   -5.0430   -1.0810 hc        1 LHP      0.025700
     64 H35         6.1220   -8.0300   -2.3770 hc        1 LHP      0.047700
     65 H36         5.7470   -8.7740   -0.7740 hc        1 LHP      0.047700
     66 H37         8.4960   -8.6030   -2.1450 hc        1 LHP      0.019700
     67 H38         8.2820   -9.0180   -0.3970 hc        1 LHP      0.019700
     68 H39        -1.8890   -0.0330   -1.4920 hc        1 LHP      0.076700
     69 H40        -1.0320    1.0620   -2.6580 hc        1 LHP      0.076700
     70 H41        -3.3330    1.8950   -2.3110 hc        1 LHP      0.045700
     71 H42        -3.1120    1.9060   -0.5110 hc        1 LHP      0.045700
     72 H43        -2.1700    3.0610   -1.5400 hc        1 LHP      0.045700
     73 H1          3.6400    1.0700    1.6990 hc        1 LHP      0.042700
     74 H2          4.6350    0.2200    0.4580 hc        1 LHP      0.042700
@<TRIPOS>BOND
     1    1    4 1   
     2    1   26 1   
     3    2    3 1   
     4    2   11 1   
     5    2   73 1   
     6    2   74 1   
     7    3    4 1   
     8    3   32 1   
     9    3   33 1   
    10    4    5 1   
    11    4   34 1   
    12    5    6 1   
    13    5   35 1   
    14    5   36 1   
    15    6    7 1   
    16    6   11 1   
    17    6   37 1   
    18    7    8 1   
    19    7   38 1   
    20    7   39 1   
    21    8    9 1   
    22    8   40 1   
    23    8   41 1   
    24    9   10 1   
    25    9   15 1   
    26    9   42 1   
    27   10   11 1   
    28   10   12 1   
    29   10   43 1   
    30   11   20 1   
    31   12   13 1   
    32   12   44 1   
    33   12   45 1   
    34   13   14 1   
    35   13   46 1   
    36   13   47 1   
    37   14   15 1   
    38   14   18 1   
    39   14   19 1   
    40   15   16 1   
    41   15   48 1   
    42   16   17 1   
    43   16   49 1   
    44   16   50 1   
    45   17   18 1   
    46   17   51 1   
    47   17   52 1   
    48   18   21 1   
    49   18   53 1   
    50   19   54 1   
    51   19   55 1   
    52   19   56 1   
    53   20   57 1   
    54   20   58 1   
    55   20   59 1   
    56   21   22 1   
    57   21   23 1   
    58   21   60 1   
    59   22   61 1   
    60   22   62 1   
    61   22   63 1   
    62   23   24 1   
    63   23   64 1   
    64   23   65 1   
    65   24   25 1   
    66   24   66 1   
    67   24   67 1   
    68   25   29 1   
    69   25   30 1   
    70   26   27 1   
    71   26   31 2   
    72   27   28 1   
    73   27   68 1   
    74   27   69 1   
    75   28   70 1   
    76   28   71 1   
    77   28   72 1   
@<TRIPOS>SUBSTRUCTURE
     1 LHP         1 TEMP              0 ****  ****    0 ROOT
