@<TRIPOS>MOLECULE
LHU
   32    33     1     0     0
SMALL
bcc


@<TRIPOS>ATOM
      1 OP3        -3.5230    3.3980   -0.2800 o         1 LHU     -0.924167
      2 P          -3.3390    2.3580    0.7990 p5        1 LHU      1.340900
      3 OP1        -4.6870    1.9650    1.3540 o         1 LHU     -0.924167
      4 OP2        -2.4850    2.9270    1.9070 o         1 LHU     -0.924167
      5 O5'        -2.6300    1.0850    0.1880 os        1 LHU     -0.567200
      6 C5'        -1.2450    1.1420   -0.0590 c3        1 LHU      0.226400
      7 C4'        -0.9530    0.5360   -1.3850 c3        1 LHU      0.063100
      8 O4'        -0.8930   -0.7550   -1.2820 os        1 LHU     -0.437600
      9 C3'         0.5320    1.0290   -1.9210 c3        1 LHU      0.072100
     10 O3'         0.6280    0.8490   -3.3890 oh        1 LHU     -0.665800
     11 C2'         1.3550    0.3120   -1.3530 c3        1 LHU      0.109100
     12 O2'         2.5170    0.0420   -2.2550 oh        1 LHU     -0.619800
     13 C1'         0.5640   -1.0580   -1.0370 c3        1 LHU      0.271500
     14 N1          0.7480   -1.4060    0.1880 n         1 LHU     -0.368000
     15 C2         -0.2950   -2.1420    0.9010 c         1 LHU      0.797500
     16 O2         -1.2870   -2.5170    0.3090 o         1 LHU     -0.702500
     17 N3         -0.1410   -2.4330    2.3260 n         1 LHU     -0.599500
     18 C4          1.0620   -2.0880    2.9950 c         1 LHU      0.716700
     19 O4          1.2190   -2.3960    4.1600 o         1 LHU     -0.693500
     20 C5          2.1480   -1.4260    2.2570 cc        1 LHU     -0.371200
     21 C6          1.9730   -1.1040    0.8350 cd        1 LHU      0.074600
     22 H5'        -0.9510    2.0760   -0.0550 h1        1 LHU     -0.001300
     23 H5''       -0.7680    0.6460    0.6380 h1        1 LHU     -0.001300
     24 H4'        -1.6430    0.7900   -2.0300 h1        1 LHU      0.048700
     25 H3'         0.6810    1.9670   -1.6850 h1        1 LHU      0.167700
     26 HO3'        0.7280    1.6420   -3.7790 ho        1 LHU      0.495000
     27 H2'         1.6580    0.7310   -0.5220 h1        1 LHU      0.075700
     28 HO2'        3.2260    0.4970   -1.9710 ho        1 LHU      0.423000
     29 H1'         0.8660   -1.7670   -1.6380 h2        1 LHU      0.103700
     30 H3         -0.7930   -2.8920    2.7690 hn        1 LHU      0.320500
     31 H5          3.0080   -1.2680    2.6920 ha        1 LHU      0.188000
     32 H6          2.7190   -0.7400    0.3210 h4        1 LHU      0.304000
@<TRIPOS>BOND
     1    1    2 1   
     2    2    3 1   
     3    2    4 1   
     4    2    5 1   
     5    5    6 1   
     6    6    7 1   
     7    6   22 1   
     8    6   23 1   
     9    7    8 1   
    10    7    9 1   
    11    7   24 1   
    12    8   13 1   
    13    9   10 1   
    14    9   11 1   
    15    9   25 1   
    16   10   26 1   
    17   11   12 1   
    18   11   13 1   
    19   11   27 1   
    20   12   28 1   
    21   13   14 1   
    22   13   29 1   
    23   14   15 1   
    24   14   21 1   
    25   15   16 2   
    26   15   17 1   
    27   17   18 1   
    28   17   30 1   
    29   18   19 2   
    30   18   20 1   
    31   20   21 2   
    32   20   31 1   
    33   21   32 1   
@<TRIPOS>SUBSTRUCTURE
     1 LHU         1 TEMP              0 ****  ****    0 ROOT
