@<TRIPOS>MOLECULE
LHU
   32    33     1     0     0
SMALL
bcc


@<TRIPOS>ATOM
      1 OP3         3.5490    1.2480    2.7190 o         1 LHU     -0.849500
      2 P           3.4340    2.6570    3.1550 p5        1 LHU      1.440800
      3 OP1         4.5350    3.5400    3.5950 o         1 LHU     -0.849500
      4 OP2         2.3590    2.7710    4.3830 oh        1 LHU     -0.784400
      5 O5'         2.5680    3.4360    1.9920 os        1 LHU     -0.586200
      6 C5'         1.3690    2.8440    1.5820 c3        1 LHU      0.191400
      7 C4'         1.5310    2.1270    0.2320 c3        1 LHU      0.085100
      8 O4'         0.5540    2.6310   -0.6860 os        1 LHU     -0.431600
      9 C3'         1.3700    0.5970    0.3180 c3        1 LHU      0.106100
     10 O3'         2.6150   -0.0610    0.1970 oh        1 LHU     -0.648800
     11 C2'         0.4900    0.2080   -0.8850 c3        1 LHU      0.124100
     12 O2'         1.2020   -0.4360   -1.9230 oh        1 LHU     -0.608800
     13 C1'        -0.0920    1.5590   -1.4090 c3        1 LHU      0.299500
     14 N1         -1.5360    1.6530   -1.3010 n         1 LHU     -0.320400
     15 C2         -2.2070    2.5020   -2.2210 c         1 LHU      0.721100
     16 O2         -1.6390    3.0910   -3.1830 o         1 LHU     -0.712100
     17 N3         -3.5950    2.6540   -2.0770 n         1 LHU     -0.596500
     18 C4         -4.3350    1.9910   -1.0640 c         1 LHU      0.671300
     19 O4         -5.5740    2.2140   -1.0450 o         1 LHU     -0.735100
     20 C5         -3.5780    1.1350   -0.1910 ce        1 LHU     -0.550300
     21 C6         -2.2090    0.9850   -0.3050 c1        1 LHU     -0.095900
     22 H5'         1.0160    2.1240    2.3710 h1        1 LHU      0.040700
     23 H5''        0.6110    3.6670    1.4590 h1        1 LHU      0.040700
     24 H4'         2.5370    2.3790   -0.2090 h1        1 LHU      0.058700
     25 H3'         0.8660    0.2980    1.2760 h1        1 LHU      0.070700
     26 HO3'        3.1170    0.1480    1.0050 ho        1 LHU      0.470000
     27 H2'        -0.3230   -0.5090   -0.5860 h1        1 LHU      0.122700
     28 HO2'        2.0900   -0.0580   -1.9430 ho        1 LHU      0.406000
     29 H1'         0.1940    1.7220   -2.4930 h2        1 LHU      0.074700
     30 H3         -4.0560    3.2600   -2.7120 hn        1 LHU      0.297500
     31 H5         -4.1290    0.6030    0.5870 ha        1 LHU      0.128000
     32 H6          2.5290    3.5290    4.9290 ho        1 LHU      0.422000
@<TRIPOS>BOND
     1    1    2 1   
     2    2    3 1   
     3    2    4 1   
     4    2    5 1   
     5    4   32 1   
     6    5    6 1   
     7    6    7 1   
     8    6   22 1   
     9    6   23 1   
    10    7    8 1   
    11    7    9 1   
    12    7   24 1   
    13    8   13 1   
    14    9   10 1   
    15    9   11 1   
    16    9   25 1   
    17   10   26 1   
    18   11   12 1   
    19   11   13 1   
    20   11   27 1   
    21   12   28 1   
    22   13   14 1   
    23   13   29 1   
    24   14   15 1   
    25   14   21 2   
    26   15   16 2   
    27   15   17 1   
    28   17   18 1   
    29   17   30 1   
    30   18   19 2   
    31   18   20 1   
    32   20   21 2   
    33   20   31 1   
@<TRIPOS>SUBSTRUCTURE
     1 LHU         1 TEMP              0 ****  ****    0 ROOT
