@<TRIPOS>MOLECULE
LHY
   27    27     1     0     0
SMALL
bcc


@<TRIPOS>ATOM
      1 N           0.2940   -0.7120    1.0820 n         1 LHY     -0.478900
      2 CA         -0.9230   -0.0300    0.6650 c3        1 LHY     -0.060300
      3 C          -2.0610   -0.1410    1.7530 c         1 LHY      0.905600
      4 O          -3.0850    0.5630    1.5560 o         1 LHY     -0.826300
      5 CB         -1.4950   -0.6060   -0.6370 c3        1 LHY     -0.037100
      6 CG         -0.6820   -0.3000   -1.8430 ca        1 LHY     -0.041300
      7 CD1        -0.0440   -1.3230   -2.5560 ca        1 LHY     -0.125500
      8 CD2        -0.5660    1.0200   -2.3000 ca        1 LHY     -0.125500
      9 CE1         0.6910   -1.0320   -3.7050 ca        1 LHY     -0.137000
     10 CE2         0.1700    1.3080   -3.4470 ca        1 LHY     -0.137000
     11 CZ          0.7980    0.2820   -4.1550 ca        1 LHY     -0.154000
     12 OXT        -1.8770   -0.9180    2.7300 o         1 LHY     -0.826300
     13 C1          1.4310    0.0290    1.3680 c         1 LHY      0.658100
     14 O1          1.6920    1.1470    0.8580 o         1 LHY     -0.651100
     15 N2          2.5090   -0.6090    2.1470 n         1 LHY     -0.325400
     16 O2          3.4080    0.2900    2.5720 oh        1 LHY     -0.467100
     17 H           0.0860   -1.4660    1.7140 hn        1 LHY      0.311500
     18 HA         -0.7040    1.0650    0.5090 h1        1 LHY      0.076700
     19 HB1        -1.6310   -1.7150   -0.5330 hc        1 LHY      0.063200
     20 HB2        -2.5180   -0.1480   -0.7530 hc        1 LHY      0.063200
     21 HD1        -0.1180   -2.3610   -2.2000 ha        1 LHY      0.134000
     22 HD2        -1.0520    1.8300   -1.7350 ha        1 LHY      0.134000
     23 HE1         1.1900   -1.8430   -4.2540 ha        1 LHY      0.114000
     24 HE2         0.2610    2.3480   -3.7930 ha        1 LHY      0.114000
     25 HZ          1.3790    0.5110   -5.0580 ha        1 LHY      0.111000
     26 H2N         2.1260   -1.0370    2.9880 hn        1 LHY      0.269500
     27 H2O         3.6970    0.7870    1.7800 ho        1 LHY      0.436000
@<TRIPOS>BOND
     1    1    2 1   
     2    1   13 1   
     3    1   17 1   
     4    2    3 1   
     5    2    5 1   
     6    2   18 1   
     7    3    4 1   
     8    3   12 1   
     9    5    6 1   
    10    5   19 1   
    11    5   20 1   
    12    6    7 ar  
    13    6    8 ar  
    14    7    9 ar  
    15    7   21 1   
    16    8   10 ar  
    17    8   22 1   
    18    9   11 ar  
    19    9   23 1   
    20   10   11 ar  
    21   10   24 1   
    22   11   25 1   
    23   13   14 2   
    24   13   15 1   
    25   15   16 1   
    26   15   26 1   
    27   16   27 1   
@<TRIPOS>SUBSTRUCTURE
     1 LHY         1 TEMP              0 ****  ****    0 ROOT
