@<TRIPOS>MOLECULE
LHY
   27    25     1     0     0
SMALL
bcc


@<TRIPOS>ATOM
      1 N          -0.6140    0.0760    1.9350 n         1 LHY     -0.307000
      2 CA          0.0280   -0.2990    0.7250 c3        1 LHY     -0.082000
      3 C           1.1830   -1.2270    1.0320 c2        1 LHY      0.329000
      4 O           2.0910   -0.8610    1.8240 o         1 LHY     -0.560500
      5 CB          0.5470    0.9380    0.0270 c3        1 LHY     -0.111000
      6 CG          0.3890    0.7770   -1.4690 c2        1 LHY     -0.050000
      7 CD1        -0.6580    1.4030   -2.1260 c1        1 LHY     -0.136000
      8 CD2         1.3250    0.0520   -2.1900 c2        1 LHY     -0.120000
      9 CE1        -0.7700    1.3040   -3.5040 c1        1 LHY     -0.151000
     10 CE2         1.2130   -0.0470   -3.5680 c1        1 LHY     -0.141000
     11 CZ          0.1660    0.5790   -4.2250 c1        1 LHY     -0.151000
     12 OXT         1.2270   -2.3710    0.5100 o         1 LHY     -0.560500
     13 C1         -1.1280   -0.9230    2.8030 c2        1 LHY      0.284000
     14 O1         -1.4150   -2.0190    2.3650 o         1 LHY     -0.410000
     15 N2         -1.2940   -0.6450    4.1850 n         1 LHY     -0.163000
     16 O2         -1.4710   -1.6720    5.0730 oh        1 LHY     -0.275000
     17 H          -0.6690    0.9560    2.1680 hn        1 LHY      0.239000
     18 HA         -0.6120   -0.7560    0.1440 h1        1 LHY      0.117000
     19 HB1         0.0400    1.7190    0.3260 hc        1 LHY      0.088500
     20 HB2         1.4930    1.0620    0.2430 hc        1 LHY      0.088500
     21 HD1        -1.3170    1.9130   -1.6180 ha        1 LHY      0.119000
     22 HD2         2.0540   -0.4020   -1.7260 ha        1 LHY      0.201000
     23 HE1        -1.5080    1.7450   -3.9670 ha        1 LHY      0.108500
     24 HE2         1.8720   -0.5570   -4.0750 ha        1 LHY      0.118000
     25 HZ          0.1050    0.5370   -5.1980 ha        1 LHY      0.108500
     26 H2N        -1.2600    0.2180    4.4850 hn        1 LHY      0.179000
     27 H2O        -1.0170   -1.5000    5.8190 ho        1 LHY      0.238000
@<TRIPOS>BOND
     1    1    2 1   
     2    1   13 1   
     3    1   17 1   
     4    2    3 1   
     5    2    5 1   
     6    2   18 1   
     7    3    4 1   
     8    3   12 1   
     9    5    6 1   
    10    5   19 1   
    11    5   20 1   
    12    6    7 1   
    13    6    8 1   
    14    7   21 1   
    15    8   10 1   
    16    8   22 1   
    17    9   11 1   
    18    9   23 1   
    19   10   24 1   
    20   11   25 1   
    21   13   14 1   
    22   13   15 1   
    23   15   16 1   
    24   15   26 1   
    25   16   27 1   
@<TRIPOS>SUBSTRUCTURE
     1 LHY         1 TEMP              0 ****  ****    0 ROOT
