@<TRIPOS>MOLECULE
LHY
   29    29     1     0     0
SMALL
bcc


@<TRIPOS>ATOM
      1 N          -0.1260   -0.0600   -0.0550 n         1 LHY     -0.493900
      2 CA          1.3370   -0.0020    0.0420 c3        1 LHY     -0.009300
      3 C           1.7770    0.0730    1.5080 c         1 LHY      0.605100
      4 O           2.4310   -0.7980    2.0670 o         1 LHY     -0.419000
      5 CB          1.9180    1.1850   -0.7440 c3        1 LHY     -0.052100
      6 CG          1.4210    1.2170   -2.1440 ca        1 LHY     -0.136300
      7 CD1         0.3800    2.0840   -2.5000 ca        1 LHY     -0.136000
      8 CD2         2.0090    0.4050   -3.1210 ca        1 LHY     -0.136000
      9 CE1        -0.0690    2.1350   -3.8190 ca        1 LHY     -0.117500
     10 CE2         1.5550    0.4570   -4.4390 ca        1 LHY     -0.117500
     11 CZ          0.5160    1.3190   -4.7890 ca        1 LHY     -0.106000
     12 OXT         1.4390    1.1370    2.2830 oh        1 LHY     -0.544100
     13 C1         -0.7270   -1.2850   -0.0630 c         1 LHY      0.631100
     14 O1         -0.2690   -2.4090    0.1420 o         1 LHY     -0.453100
     15 N2         -2.2860   -1.3060   -0.2490 n4        1 LHY     -0.451300
     16 O2         -2.7320   -2.5230   -0.6240 oh        1 LHY     -0.352300
     17 H           1.0200    1.8290    1.7540 ho        1 LHY      0.430000
     18 HA          1.7730   -0.9640   -0.3790 h1        1 LHY      0.130700
     19 HB1         1.6800    2.1520   -0.2260 hc        1 LHY      0.089700
     20 HB2         3.0380    1.0660   -0.7300 hc        1 LHY      0.089700
     21 HD1        -0.0540    2.7640   -1.7520 ha        1 LHY      0.136500
     22 HD2         2.8440   -0.2610   -2.8540 ha        1 LHY      0.136500
     23 HE1        -0.8710    2.8350   -4.1000 ha        1 LHY      0.153500
     24 HE2         2.0300   -0.1740   -5.2070 ha        1 LHY      0.153500
     25 HZ          0.1690    1.3700   -5.8330 ha        1 LHY      0.156000
     26 H2N        -2.5920   -0.6600   -1.0000 hn        1 LHY      0.480800
     27 H2O        -2.1740   -3.2280   -0.2010 ho        1 LHY      0.499000
     28 H2         -0.5630    0.7230   -0.5030 hn        1 LHY      0.352500
     29 H22        -2.7400   -1.0350    0.6430 hn        1 LHY      0.480800
@<TRIPOS>BOND
     1    1    2 1   
     2    1   13 1   
     3    1   28 1   
     4    2    3 1   
     5    2    5 1   
     6    2   18 1   
     7    3    4 2   
     8    3   12 1   
     9    5    6 1   
    10    5   19 1   
    11    5   20 1   
    12    6    7 ar  
    13    6    8 ar  
    14    7    9 ar  
    15    7   21 1   
    16    8   10 ar  
    17    8   22 1   
    18    9   11 ar  
    19    9   23 1   
    20   10   11 ar  
    21   10   24 1   
    22   11   25 1   
    23   12   17 1   
    24   13   14 2   
    25   13   15 1   
    26   15   16 1   
    27   15   26 1   
    28   15   29 1   
    29   16   27 1   
@<TRIPOS>SUBSTRUCTURE
     1 LHY         1 TEMP              0 ****  ****    0 ROOT
