@<TRIPOS>MOLECULE
LHY
   29    29     1     0     0
SMALL
bcc


@<TRIPOS>ATOM
      1 N          -0.1260   -0.0720   -0.0580 ns        1 LHY     -0.493900
      2 CA          1.3360    0.0070    0.0440 c3        1 LHY     -0.009300
      3 C           1.7690    0.0840    1.5130 c         1 LHY      0.605100
      4 O           2.4330   -0.7810    2.0710 o         1 LHY     -0.419000
      5 CB          1.9030    1.2040   -0.7350 c3        1 LHY     -0.052100
      6 CG          1.4100    1.2340   -2.1370 ca        1 LHY     -0.136300
      7 CD1         0.3580    2.0870   -2.4940 ca        1 LHY     -0.136000
      8 CD2         2.0130    0.4340   -3.1150 ca        1 LHY     -0.136000
      9 CE1        -0.0860    2.1360   -3.8140 ca        1 LHY     -0.117500
     10 CE2         1.5640    0.4840   -4.4340 ca        1 LHY     -0.117500
     11 CZ          0.5140    1.3330   -4.7850 ca        1 LHY     -0.106000
     12 OXT         1.4140    1.1390    2.2900 oh        1 LHY     -0.544100
     13 C1         -0.7080   -1.3060   -0.0730 c         1 LHY      0.631100
     14 O1         -0.2360   -2.4230    0.1300 o         1 LHY     -0.453100
     15 N2         -2.2670   -1.3480   -0.2650 ny        1 LHY     -0.451300
     16 O2         -2.6930   -2.5690   -0.6460 oh        1 LHY     -0.352300
     17 H          -0.5720    0.7070   -0.5040 hn        1 LHY      0.352500
     18 HA          1.7870   -0.9470   -0.3770 h1        1 LHY      0.130700
     19 HB1         3.0250    1.1020   -0.7180 hc        1 LHY      0.089700
     20 HB2         1.6490    2.1660   -0.2150 hc        1 LHY      0.089700
     21 HD1        -0.0870    2.7590   -1.7450 ha        1 LHY      0.136500
     22 HD2         2.8570   -0.2210   -2.8460 ha        1 LHY      0.136500
     23 HE1        -0.8970    2.8250   -4.0960 ha        1 LHY      0.153500
     24 HE2         2.0510   -0.1390   -5.2020 ha        1 LHY      0.153500
     25 HZ          0.1700    1.3810   -5.8310 ha        1 LHY      0.156000
     26 H2N        -2.5800   -0.7030   -1.0150 hn        1 LHY      0.480800
     27 H2O        -2.1270   -3.2680   -0.2250 ho        1 LHY      0.499000
     28 H2          0.9870    1.8280    1.7610 ho        1 LHY      0.430000
     29 H22        -2.7280   -1.0870    0.6270 hn        1 LHY      0.480800
@<TRIPOS>BOND
     1    1    2 1   
     2    1   13 1   
     3    1   17 1   
     4    2    3 1   
     5    2    5 1   
     6    2   18 1   
     7    3    4 2   
     8    3   12 1   
     9    5    6 1   
    10    5   19 1   
    11    5   20 1   
    12    6    7 ar  
    13    6    8 ar  
    14    7    9 ar  
    15    7   21 1   
    16    8   10 ar  
    17    8   22 1   
    18    9   11 ar  
    19    9   23 1   
    20   10   11 ar  
    21   10   24 1   
    22   11   25 1   
    23   12   28 1   
    24   13   14 2   
    25   13   15 1   
    26   15   16 1   
    27   15   26 1   
    28   15   29 1   
    29   16   27 1   
@<TRIPOS>SUBSTRUCTURE
     1 LHY         1 TEMP              0 ****  ****    0 ROOT
