@<TRIPOS>MOLECULE
LI0
   89    89     1     0     0
SMALL
bcc


@<TRIPOS>ATOM
      1 C1          1.4050    1.2330    0.6950 c2        1 LI0     -0.176000
      2 C2          1.6300    0.0040   -0.1440 c3        1 LI0      0.115000
      3 C3          1.8060   -1.2080    0.7970 c3        1 LI0     -0.177000
      4 C4          0.5590   -1.4770    1.5790 c2        1 LI0      0.024000
      5 N1          0.5980   -1.9250    2.7930 n2        1 LI0     -0.191000
      6 C5          0.2950    1.9640    0.7050 c2        1 LI0     -0.192000
      7 C6         -0.5910   -2.2340    3.4780 c2        1 LI0     -0.025000
      8 C7         -0.6120   -2.2130    4.8600 c2        1 LI0     -0.094000
      9 C8         -2.9380   -3.1120    3.4600 c3        1 LI0     -0.175000
     10 C9         -1.7990   -2.5640    2.7620 c1        1 LI0     -0.073000
     11 O1         -4.5750   -4.8520    5.1180 o         1 LI0     -0.315000
     12 N2         -4.2940   -3.5120    6.9480 nt        1 LI0     -0.482000
     13 S14        -3.3220   -4.8640    8.8000 s4        1 LI0      2.193800
     14 C11        -3.5150   -6.3210    8.2550 c2        1 LI0     -1.127000
     15 C12        -4.2930   -6.9810    7.2720 c2        1 LI0      0.209000
     16 C13        -4.1460   -8.3410    7.0870 c2        1 LI0     -0.300000
     17 C14        -3.0710   -9.0820    7.7320 c2        1 LI0      0.229000
     18 C15        -2.6380   -8.5050    9.0800 c3        1 LI0     -0.167000
     19 C16        -2.7810   -7.0730    9.1680 c1        1 LI0     -0.147000
     20 O2         -2.1520   -4.2240    8.5970 o         1 LI0     -0.443400
     21 O3         -4.2730   -4.3410    9.6020 o         1 LI0     -0.443400
     22 N3         -5.1650   -9.0680    6.2900 no        1 LI0      0.581000
     23 O24        -5.4590  -10.1810    6.6310 o         1 LI0     -0.334000
     24 O4         -5.6660   -8.5160    5.3510 o         1 LI0     -0.334000
     25 N4         -2.4060  -10.1200    7.2620 n7        1 LI0     -0.153000
     26 C17        -2.3200  -10.8130    5.9410 c3        1 LI0      0.080000
     27 C18        -2.7690   -9.9400    4.7620 c3        1 LI0     -0.351000
     28 S1         -1.6590  -10.1410    3.3970 ss        1 LI0      0.284000
     29 C19        -1.7460   -9.3620    0.9120 c2        1 LI0     -0.172000
     30 C20        -2.4570   -9.4590    2.0700 c2        1 LI0     -0.261000
     31 C21        -3.8820   -9.0400    2.1200 c3        1 LI0     -0.137000
     32 C22        -4.3630   -8.3600    0.8910 c2        1 LI0     -0.098000
     33 C23        -3.6160   -8.3040   -0.2340 c2        1 LI0     -0.195000
     34 C24        -2.3670   -8.9950   -0.3200 c1        1 LI0     -0.020000
     35 C25        -3.1410  -12.1120    5.9700 c3        1 LI0     -0.250500
     36 C26        -0.8380  -11.2090    5.7460 c3        1 LI0     -0.250500
     37 C27        -1.7260   -2.7540    5.5820 c2        1 LI0     -0.063000
     38 C28        -2.8280   -3.2220    4.9390 c2        1 LI0     -0.214000
     39 O5          0.4640   -0.1770   -0.9560 os        1 LI0     -0.281000
     40 C29         0.5960   -1.0990   -2.0260 c3        1 LI0     -0.086000
     41 C30         2.9290    0.1420   -0.9530 c3        1 LI0     -0.150000
     42 C31         2.4560    2.7220   -4.6470 c2        1 LI0     -0.073000
     43 C32         2.7260    1.3630   -5.0670 c2        1 LI0     -0.433000
     44 C33         2.9420    0.3350   -4.2620 c1        1 LI0      0.151000
     45 C34         2.9960    1.2040   -1.9820 c2        1 LI0     -0.151000
     46 C35         2.0080    2.0430   -2.3290 c2        1 LI0     -0.125000
     47 C36         2.1280    3.0360   -3.3810 c2        1 LI0     -0.163000
     48 H11         4.2680    0.6910    2.1040 ha        1 LI0      0.001500
     49 H12A        2.2740    1.4840    1.3270 ha        1 LI0      0.128000
     50 H31A        4.6990    0.1820    1.9870 ha        1 LI0      0.001500
     51 H32A        2.6910   -1.0180    1.4610 hc        1 LI0      0.117500
     52 H41         2.0260   -2.1260    0.1860 hc        1 LI0      0.117500
     53 H42        -0.3850   -1.2660    1.0220 h4        1 LI0      0.155000
     54 H51        -0.5750    1.7300    0.0750 ha        1 LI0      0.122000
     55 H52         0.1900    2.8530    1.3420 ha        1 LI0      0.122000
     56 H7          0.2340   -1.8180    5.4490 ha        1 LI0      0.167000
     57 H8         -3.1720   -4.1260    3.0080 hc        1 LI0      0.183000
     58 H9         -3.8250   -2.4580    3.1870 hc        1 LI0      0.183000
     59 HN2        -5.2840   -3.5940    7.1150 hn        1 LI0      0.219000
     60 H12        -5.0510   -6.4200    6.6790 ha        1 LI0      0.205000
     61 H15        -3.2840   -8.9630    9.8950 hc        1 LI0      0.192000
     62 H16        -1.5690   -8.7730    9.3310 hc        1 LI0      0.192000
     63 HN4        -1.7440  -10.5330    7.9080 hn        1 LI0      0.259000
     64 H181       -3.8020  -10.2390    4.4470 h1        1 LI0      0.127500
     65 H182       -2.7870   -8.8520    5.0270 h1        1 LI0      0.127500
     66 H21        -4.5310   -9.9490    2.2910 hc        1 LI0      0.126500
     67 H22        -4.0480   -8.3470    2.9940 hc        1 LI0      0.126500
     68 H23        -5.3830   -7.9470    0.9490 ha        1 LI0      0.142000
     69 H24        -3.9740   -7.7900   -1.1420 ha        1 LI0      0.163000
     70 H251       -3.0440  -12.6060    4.9710 hc        1 LI0      0.119833
     71 H252       -4.2240  -11.9200    6.1650 hc        1 LI0      0.119833
     72 H253       -2.7500  -12.8090    6.7500 hc        1 LI0      0.119833
     73 H261       -0.4610  -11.8220    6.6010 hc        1 LI0      0.119833
     74 H262       -0.7600  -11.8450    4.8240 hc        1 LI0      0.119833
     75 H263       -0.1880  -10.3100    5.6200 hc        1 LI0      0.119833
     76 H27        -1.6110   -2.8240    6.6800 ha        1 LI0      0.149000
     77 H291        0.9350   -2.0990   -1.6600 h1        1 LI0      0.084333
     78 H292        1.3040   -0.7060   -2.8000 h1        1 LI0      0.084333
     79 H293       -0.4410   -1.1700   -2.4440 h1        1 LI0      0.084333
     80 H301        3.1360   -0.8410   -1.4630 hc        1 LI0      0.104500
     81 H302        3.7630    0.3160   -0.2140 hc        1 LI0      0.104500
     82 H31         1.8930    4.0730   -3.0950 ha        1 LI0      0.144000
     83 H32         2.5200    3.4970   -5.4280 ha        1 LI0      0.135000
     84 H33         2.7410    1.1870   -6.1620 ha        1 LI0      0.188000
     85 H35         4.0030    1.2960   -2.4370 ha        1 LI0      0.139000
     86 H36         1.0250    2.0050   -1.8200 ha        1 LI0      0.153000
     87 C10        -3.9390   -3.9080    5.6160 c2        1 LI0      0.309000
     88 H221       -3.9800   -2.5810    7.1610 hn        1 LI0      0.219000
     89 H19        -0.6760   -9.6320    0.8710 ha        1 LI0      0.161000
@<TRIPOS>BOND
     1    1    2 1   
     2    1    6 1   
     3    1   49 1   
     4    2    3 1   
     5    2   39 1   
     6    2   41 1   
     7    3    4 1   
     8    3   51 1   
     9    3   52 1   
    10    4    5 1   
    11    4   53 1   
    12    5    7 1   
    13    6   54 1   
    14    6   55 1   
    15    7    8 1   
    16    7   10 1   
    17    8   37 1   
    18    8   56 1   
    19    9   10 1   
    20    9   38 1   
    21    9   57 1   
    22    9   58 1   
    23   11   87 1   
    24   12   59 1   
    25   12   87 1   
    26   12   88 1   
    27   13   14 1   
    28   13   20 1   
    29   13   21 1   
    30   14   15 1   
    31   14   19 1   
    32   15   16 1   
    33   15   60 1   
    34   16   17 1   
    35   16   22 1   
    36   17   18 1   
    37   17   25 1   
    38   18   19 1   
    39   18   61 1   
    40   18   62 1   
    41   22   23 1   
    42   22   24 1   
    43   25   26 1   
    44   25   63 1   
    45   26   27 1   
    46   26   35 1   
    47   26   36 1   
    48   27   28 1   
    49   27   64 1   
    50   27   65 1   
    51   28   30 1   
    52   29   30 1   
    53   29   34 1   
    54   29   89 1   
    55   30   31 1   
    56   31   32 1   
    57   31   66 1   
    58   31   67 1   
    59   32   33 1   
    60   32   68 1   
    61   33   34 1   
    62   33   69 1   
    63   35   70 1   
    64   35   71 1   
    65   35   72 1   
    66   36   73 1   
    67   36   74 1   
    68   36   75 1   
    69   37   38 1   
    70   37   76 1   
    71   38   87 1   
    72   39   40 1   
    73   40   77 1   
    74   40   78 1   
    75   40   79 1   
    76   41   45 1   
    77   41   80 1   
    78   41   81 1   
    79   42   43 1   
    80   42   47 1   
    81   42   83 1   
    82   43   44 1   
    83   43   84 1   
    84   45   46 1   
    85   45   85 1   
    86   46   47 1   
    87   46   86 1   
    88   47   82 1   
    89   48   50 1   
@<TRIPOS>SUBSTRUCTURE
     1 LI0         1 TEMP              0 ****  ****    0 ROOT
