@<TRIPOS>MOLECULE
LI0
   89    89     1     0     0
SMALL
bcc


@<TRIPOS>ATOM
      1 C1         -0.6430   -2.5510   -0.6440 c2        1 LI0     -0.302000
      2 C2          0.5470   -1.7760   -0.7140 c2        1 LI0      0.349000
      3 C3          1.5110    0.7710    2.9500 c3        1 LI0     -0.225000
      4 C4          2.2720   -0.4980    2.5890 c3        1 LI0     -0.088000
      5 N1          1.4700   -1.6250    2.2040 n2        1 LI0     -0.321000
      6 C5         -0.6930   -3.9020   -0.7540 c2        1 LI0     -0.070000
      7 C6          0.8520   -2.3540    3.0970 ca        1 LI0      0.117000
      8 C7          0.8480   -2.1430    4.5490 ca        1 LI0     -0.226000
      9 C8         -0.6660   -4.2500    3.5220 ca        1 LI0     -0.024000
     10 C9          0.0660   -3.5140    2.6590 ca        1 LI0     -0.226000
     11 O1         -2.2940   -5.7230    5.3430 o         1 LI0     -0.461000
     12 N2         -1.6770   -4.4980    7.1960 n4        1 LI0     -0.523000
     13 S14        -3.3700   -4.6440    7.9400 s6        1 LI0      2.861000
     14 C11        -3.5630   -6.2330    7.8490 c2        1 LI0     -1.064000
     15 C12        -4.6320   -6.8630    7.1600 c2        1 LI0      0.208000
     16 C13        -4.5320   -8.1970    6.8080 c2        1 LI0     -0.330000
     17 C14        -3.2890   -8.9130    7.0470 c2        1 LI0      0.251000
     18 C15        -2.5600   -8.4560    8.2990 c3        1 LI0     -0.186000
     19 C16        -2.5800   -7.0040    8.4500 c1        1 LI0     -0.080000
     20 O2         -3.1430   -4.1050    9.1960 o         1 LI0     -0.882500
     21 O3         -4.2200   -3.9440    7.0950 o         1 LI0     -0.882500
     22 N3         -5.6940   -8.8970    6.2270 no        1 LI0      0.585000
     23 O24        -5.8430  -10.0630    6.4710 o         1 LI0     -0.347500
     24 O4         -6.4580   -8.2750    5.5390 o         1 LI0     -0.347500
     25 N4         -2.7090   -9.7840    6.2340 n3        1 LI0     -0.181000
     26 C17        -2.8780  -10.0430    4.7800 c3        1 LI0      0.086000
     27 C18        -3.4430   -8.8180    4.0380 c3        1 LI0     -0.370000
     28 S1         -2.5660   -8.5630    2.5200 ss        1 LI0      0.372000
     29 C19        -2.4360   -6.5650    0.8530 c2        1 LI0     -0.213000
     30 C20        -3.0740   -7.0740    1.9620 c2        1 LI0     -0.191000
     31 C21        -4.1290   -6.2790    2.6360 c3        1 LI0     -0.179000
     32 C22        -4.5510   -5.0590    1.9150 c2        1 LI0     -0.047000
     33 C23        -3.8890   -4.6130    0.8190 c2        1 LI0     -0.194000
     34 C24        -2.7570   -5.3080    0.3100 c1        1 LI0     -0.123000
     35 C25        -3.7620  -11.2720    4.5200 c3        1 LI0     -0.248000
     36 C26        -1.4780  -10.3780    4.2130 c3        1 LI0     -0.248000
     37 C27         0.1090   -2.8970    5.3970 ca        1 LI0     -0.024000
     38 C28        -0.7190   -3.9690    4.9330 ca        1 LI0     -0.321000
     39 O5          1.6770   -2.4470   -0.9370 os        1 LI0     -0.101000
     40 C29         2.9140   -1.7520   -0.9230 c2        1 LI0     -0.031000
     41 C30         0.5230   -0.2940   -0.5520 c3        1 LI0     -0.170000
     42 C31        -0.6170    2.5040   -4.4800 c1        1 LI0     -0.137000
     43 C32         4.0030   -0.8950   -3.1240 c2        1 LI0     -0.088000
     44 C33         3.4360   -1.3250   -2.0400 c1        1 LI0     -0.177000
     45 C34         0.4660    0.3780   -1.8750 c2        1 LI0     -0.192000
     46 C35        -0.5070    1.2390   -2.2100 c2        1 LI0      0.006000
     47 C36        -0.5530    1.9150   -3.4390 c1        1 LI0     -0.177000
     48 H11        -1.6950   -4.5290   -0.5170 ha        1 LI0      0.208500
     49 H12A       -1.5650   -1.9760   -0.4440 ha        1 LI0      0.167000
     50 H31A        0.8680    1.1060    2.1010 hc        1 LI0      0.078333
     51 H32A        2.2390    1.5830    3.1870 hc        1 LI0      0.078333
     52 H41         0.8590    0.6050    3.8410 hc        1 LI0      0.078333
     53 H42         2.9710   -0.7460    3.4420 h1        1 LI0      0.071500
     54 H51         2.9250   -0.2740    1.6940 h1        1 LI0      0.071500
     55 H52         0.2080   -4.4920   -0.9770 ha        1 LI0      0.208500
     56 H7          1.4780   -1.3310    4.9460 ha        1 LI0      0.128000
     57 H8          0.0850   -3.7690    1.5880 ha        1 LI0      0.128000
     58 H9         -1.2600   -5.1080    3.1590 ha        1 LI0      0.109000
     59 HN2        -1.2990   -3.5740    7.3930 hn        1 LI0      0.248500
     60 H12        -5.5470   -6.2850    6.9110 ha        1 LI0      0.190000
     61 H15        -3.0710   -8.8890    9.2140 hc        1 LI0      0.174000
     62 H16        -1.4930   -8.8170    8.3200 hc        1 LI0      0.174000
     63 HN4        -1.9050  -10.2650    6.6070 hn        1 LI0      0.258000
     64 H181       -3.3570   -7.8780    4.6490 h1        1 LI0      0.145500
     65 H182       -4.5300   -8.9800    3.8170 h1        1 LI0      0.145500
     66 H21        -3.7290   -5.9440    3.6500 hc        1 LI0      0.169500
     67 H22        -5.0360   -6.9200    2.8340 hc        1 LI0      0.169500
     68 H23        -5.4070   -4.5180    2.3500 ha        1 LI0      0.152000
     69 H24        -4.2010   -3.6900    0.3030 ha        1 LI0      0.154000
     70 H251       -3.8200  -11.4350    3.4150 hc        1 LI0      0.115167
     71 H252       -3.3140  -12.1800    4.9910 hc        1 LI0      0.115167
     72 H253       -4.7990  -11.1460    4.9100 hc        1 LI0      0.115167
     73 H261       -1.5850  -10.6640    3.1340 hc        1 LI0      0.115167
     74 H262       -1.0300  -11.2550    4.7410 hc        1 LI0      0.115167
     75 H263       -0.7840   -9.5060    4.2920 hc        1 LI0      0.115167
     76 H27         0.1700   -2.6730    6.4740 ha        1 LI0      0.109000
     77 H291        4.6760   -1.7140    1.9690 ha        1 LI0      0.001000
     78 H292        5.1550   -1.9720    1.5650 ha        1 LI0      0.001000
     79 H293        3.3610   -1.7550    0.0870 h4        1 LI0      0.212000
     80 H301        1.4520    0.0400   -0.0020 hc        1 LI0      0.148500
     81 H302       -0.3570   -0.0130    0.0920 hc        1 LI0      0.148500
     82 H31         3.9130    0.1510   -3.4600 ha        1 LI0      0.158500
     83 H32        -0.6770    3.0300   -5.4010 ha        1 LI0      0.236000
     84 H33         4.6140   -1.5520   -3.7660 ha        1 LI0      0.158500
     85 H35         1.3010    0.1480   -2.5580 ha        1 LI0      0.139000
     86 H36        -1.3380    1.4700   -1.5140 ha        1 LI0      0.146000
     87 C10        -1.5710   -4.7630    5.7080 c2        1 LI0      0.305000
     88 H221       -1.0720   -5.1800    7.6590 hn        1 LI0      0.248500
     89 H19        -1.6290   -7.1420    0.3690 ha        1 LI0      0.154000
@<TRIPOS>BOND
     1    1    2 1   
     2    1    6 1   
     3    1   49 1   
     4    2   39 1   
     5    2   41 1   
     6    3    4 1   
     7    3   50 1   
     8    3   51 1   
     9    3   52 1   
    10    4    5 1   
    11    4   53 1   
    12    4   54 1   
    13    5    7 1   
    14    6   48 1   
    15    6   55 1   
    16    7    8 1   
    17    7   10 1   
    18    8   37 1   
    19    8   56 1   
    20    9   10 1   
    21    9   38 1   
    22    9   58 1   
    23   10   57 1   
    24   11   87 1   
    25   12   13 1   
    26   12   59 1   
    27   12   87 1   
    28   12   88 1   
    29   13   14 1   
    30   13   20 1   
    31   13   21 1   
    32   14   15 1   
    33   14   19 1   
    34   15   16 1   
    35   15   60 1   
    36   16   17 1   
    37   16   22 1   
    38   17   18 1   
    39   17   25 1   
    40   18   19 1   
    41   18   61 1   
    42   18   62 1   
    43   22   23 1   
    44   22   24 1   
    45   25   26 1   
    46   25   63 1   
    47   26   27 1   
    48   26   35 1   
    49   26   36 1   
    50   27   28 1   
    51   27   64 1   
    52   27   65 1   
    53   28   30 1   
    54   29   30 1   
    55   29   34 1   
    56   29   89 1   
    57   30   31 1   
    58   31   32 1   
    59   31   66 1   
    60   31   67 1   
    61   32   33 1   
    62   32   68 1   
    63   33   34 1   
    64   33   69 1   
    65   35   70 1   
    66   35   71 1   
    67   35   72 1   
    68   36   73 1   
    69   36   74 1   
    70   36   75 1   
    71   37   38 1   
    72   37   76 1   
    73   38   87 1   
    74   39   40 1   
    75   40   44 1   
    76   40   79 1   
    77   41   45 1   
    78   41   80 1   
    79   41   81 1   
    80   42   47 1   
    81   42   83 1   
    82   43   44 1   
    83   43   82 1   
    84   43   84 1   
    85   45   46 1   
    86   45   85 1   
    87   46   47 1   
    88   46   86 1   
    89   77   78 1   
@<TRIPOS>SUBSTRUCTURE
     1 LI0         1 TEMP              0 ****  ****    0 ROOT
