@<TRIPOS>MOLECULE
LI0
   88    92     1     0     0
SMALL
bcc


@<TRIPOS>ATOM
      1 C1          0.7560    1.1380    1.0320 c3        1 LI0     -0.089900
      2 C2         -0.1970    0.7830    2.1800 c3        1 LI0      0.156800
      3 C3         -1.0000    2.0310    2.5590 c3        1 LI0     -0.089900
      4 C4         -1.7050    2.6420    1.3490 c3        1 LI0      0.194300
      5 N1         -0.7940    2.9210    0.2520 nh        1 LI0     -0.644000
      6 C5          0.0150    1.7740   -0.1400 c3        1 LI0      0.194300
      7 C6         -1.2810    3.7300   -0.7930 ca        1 LI0      0.186600
      8 C7         -2.6350    4.1410   -0.8660 ca        1 LI0     -0.190500
      9 C8         -0.8290    5.1030   -2.7580 ca        1 LI0     -0.053500
     10 C9         -0.3880    4.2310   -1.7750 ca        1 LI0     -0.190500
     11 O1         -2.0170    6.4540   -4.9950 o         1 LI0     -0.590100
     12 N2         -3.5910    7.3720   -3.6270 n         1 LI0     -0.675300
     13 S14        -4.1570    8.5800   -4.6080 sy        1 LI0      1.526900
     14 C11        -4.7810    7.7760   -5.9280 ca        1 LI0     -0.478500
     15 C12        -3.9800    7.3680   -6.9910 ca        1 LI0      0.122000
     16 C13        -4.5160    6.7330   -8.1230 ca        1 LI0     -0.310200
     17 C14        -5.9340    6.4900   -8.2340 ca        1 LI0      0.334600
     18 C15        -6.7230    6.9210   -7.1170 ca        1 LI0     -0.264000
     19 C16        -6.1660    7.5340   -6.0230 ca        1 LI0      0.057000
     20 O2         -5.2220    9.1730   -3.8890 o         1 LI0     -0.644800
     21 O3         -3.1200    9.4330   -5.0050 o         1 LI0     -0.644800
     22 N3         -3.5490    6.3470   -9.1750 no        1 LI0      0.326200
     23 O24        -3.8320    5.4990   -9.9880 o         1 LI0     -0.220000
     24 O4         -2.4760    6.8850   -9.1950 o         1 LI0     -0.220000
     25 N4         -6.4830    5.9110   -9.3350 nh        1 LI0     -0.746600
     26 C17        -7.8980    5.6470   -9.6060 c3        1 LI0      0.261200
     27 C18        -8.4840    4.6230   -8.6100 c3        1 LI0     -0.064300
     28 S1        -10.2470    4.6170   -8.7590 ss        1 LI0     -0.176000
     29 C19       -12.1250    2.9500   -8.0150 ca        1 LI0     -0.130000
     30 C20       -10.7570    3.2460   -7.8990 ca        1 LI0     -0.008100
     31 C21        -9.9510    2.4330   -7.0990 ca        1 LI0     -0.130000
     32 C22       -10.4990    1.3400   -6.4280 ca        1 LI0     -0.113000
     33 C23       -11.8570    1.0520   -6.5450 ca        1 LI0     -0.134000
     34 C24       -12.6690    1.8630   -7.3400 ca        1 LI0     -0.113000
     35 C25        -8.0170    5.0200  -11.0170 c3        1 LI0     -0.116600
     36 C26        -8.7470    6.9280   -9.6270 c3        1 LI0     -0.116600
     37 C27        -3.0620    5.0260   -1.8490 ca        1 LI0     -0.053500
     38 C28        -2.1670    5.5200   -2.8000 ca        1 LI0     -0.192600
     39 O5         -1.0310   -0.2570    1.6510 os        1 LI0     -0.419600
     40 C29        -2.1450   -0.6320    2.4370 c3        1 LI0      0.112700
     41 C30         0.5940    0.3080    3.4090 c3        1 LI0     -0.056100
     42 C31         3.4970   -2.7750    2.7190 ca        1 LI0     -0.130000
     43 C32         2.1560   -2.9980    2.4040 ca        1 LI0     -0.130500
     44 C33         1.2120   -1.9940    2.6130 ca        1 LI0     -0.124000
     45 C34         1.5990   -0.7550    3.1370 ca        1 LI0     -0.081300
     46 C35         2.9470   -0.5380    3.4500 ca        1 LI0     -0.124000
     47 C36         3.8900   -1.5430    3.2420 ca        1 LI0     -0.130500
     48 H11         1.2570    0.2050    0.6660 hc        1 LI0      0.062450
     49 H12A        1.5400    1.8330    1.4290 hc        1 LI0      0.062450
     50 H31A       -0.3000    2.7830    3.0070 hc        1 LI0      0.062450
     51 H32A       -1.7710    1.7780    3.3300 hc        1 LI0      0.062450
     52 H41        -2.5270    1.9380    1.0240 h1        1 LI0      0.046200
     53 H42        -2.1760    3.6140    1.6720 h1        1 LI0      0.046200
     54 H51         0.7750    2.1060   -0.9010 h1        1 LI0      0.046200
     55 H52        -0.6350    0.9810   -0.6150 h1        1 LI0      0.046200
     56 H7         -3.3770    3.7600   -0.1490 ha        1 LI0      0.142000
     57 H8         -0.1260    5.4780   -3.5220 ha        1 LI0      0.144500
     58 H9          0.6760    3.9470   -1.7600 ha        1 LI0      0.142000
     59 HN2        -3.9860    7.3020   -2.7130 hn        1 LI0      0.336500
     60 H12        -2.8810    7.5450   -6.9320 ha        1 LI0      0.204000
     61 H15        -7.8120    6.7630   -7.1270 ha        1 LI0      0.155000
     62 H16        -6.8190    7.8620   -5.1910 ha        1 LI0      0.164000
     63 HN4        -5.8710    5.5650  -10.0490 hn        1 LI0      0.473800
     64 H181       -8.0690    3.6100   -8.8410 h1        1 LI0      0.078200
     65 H182       -8.1970    4.8630   -7.5580 h1        1 LI0      0.078200
     66 H21        -8.8780    2.6480   -6.9870 ha        1 LI0      0.136000
     67 H22        -9.8520    0.7060   -5.8030 ha        1 LI0      0.135000
     68 H23       -12.2880    0.1910   -6.0150 ha        1 LI0      0.135000
     69 H24       -13.7430    1.6410   -7.4360 ha        1 LI0      0.135000
     70 H251       -9.0870    4.7490  -11.1920 hc        1 LI0      0.059533
     71 H252       -7.6950    5.7500  -11.7980 hc        1 LI0      0.059533
     72 H253       -7.3970    4.0960  -11.1040 hc        1 LI0      0.059533
     73 H261       -8.8170    7.4110   -8.6260 hc        1 LI0      0.059533
     74 H262       -9.7830    6.6740   -9.9690 hc        1 LI0      0.059533
     75 H263       -8.3140    7.6660  -10.3470 hc        1 LI0      0.059533
     76 H27        -4.1270    5.3060   -1.8750 ha        1 LI0      0.144500
     77 H291       -1.8560   -0.8660    3.4900 h1        1 LI0      0.034367
     78 H292       -2.5320   -1.5540    1.9300 h1        1 LI0      0.034367
     79 H293       -2.9260    0.1680    2.4230 h1        1 LI0      0.034367
     80 H301       -0.1290   -0.0700    4.1810 hc        1 LI0      0.054200
     81 H302        1.1080    1.2050    3.8490 hc        1 LI0      0.054200
     82 H31         4.2410   -3.5680    2.5550 ha        1 LI0      0.131000
     83 H32         1.8420   -3.9660    1.9890 ha        1 LI0      0.131500
     84 H33         0.1540   -2.1620    2.3530 ha        1 LI0      0.136500
     85 H35         3.2660    0.4300    3.8640 ha        1 LI0      0.136500
     86 H36         4.9460   -1.3630    3.4910 ha        1 LI0      0.131500
     87 C10        -2.5700    6.4540   -3.8790 c         1 LI0      0.714700
     88 H19       -12.7660    3.5860   -8.6460 ha        1 LI0      0.136000
@<TRIPOS>BOND
     1    1    2 1   
     2    1    6 1   
     3    1   48 1   
     4    1   49 1   
     5    2    3 1   
     6    2   39 1   
     7    2   41 1   
     8    3    4 1   
     9    3   50 1   
    10    3   51 1   
    11    4    5 1   
    12    4   52 1   
    13    4   53 1   
    14    5    6 1   
    15    5    7 1   
    16    6   54 1   
    17    6   55 1   
    18    7    8 ar  
    19    7   10 ar  
    20    8   37 ar  
    21    8   56 1   
    22    9   10 ar  
    23    9   38 ar  
    24    9   57 1   
    25   10   58 1   
    26   11   87 2   
    27   12   13 1   
    28   12   59 1   
    29   12   87 1   
    30   13   14 1   
    31   13   20 2   
    32   13   21 2   
    33   14   15 ar  
    34   14   19 ar  
    35   15   16 ar  
    36   15   60 1   
    37   16   17 ar  
    38   16   22 1   
    39   17   18 ar  
    40   17   25 1   
    41   18   19 ar  
    42   18   61 1   
    43   19   62 1   
    44   22   23 1   
    45   22   24 1   
    46   25   26 1   
    47   25   63 1   
    48   26   27 1   
    49   26   35 1   
    50   26   36 1   
    51   27   28 1   
    52   27   64 1   
    53   27   65 1   
    54   28   30 1   
    55   29   30 ar  
    56   29   34 ar  
    57   29   88 1   
    58   30   31 ar  
    59   31   32 ar  
    60   31   66 1   
    61   32   33 ar  
    62   32   67 1   
    63   33   34 ar  
    64   33   68 1   
    65   34   69 1   
    66   35   70 1   
    67   35   71 1   
    68   35   72 1   
    69   36   73 1   
    70   36   74 1   
    71   36   75 1   
    72   37   38 ar  
    73   37   76 1   
    74   38   87 1   
    75   39   40 1   
    76   40   77 1   
    77   40   78 1   
    78   40   79 1   
    79   41   45 1   
    80   41   80 1   
    81   41   81 1   
    82   42   43 ar  
    83   42   47 ar  
    84   42   82 1   
    85   43   44 ar  
    86   43   83 1   
    87   44   45 ar  
    88   44   84 1   
    89   45   46 ar  
    90   46   47 ar  
    91   46   85 1   
    92   47   86 1   
@<TRIPOS>SUBSTRUCTURE
     1 LI0         1 TEMP              0 ****  ****    0 ROOT
