@<TRIPOS>MOLECULE
LI0
   88    80     1     0     0
SMALL
bcc


@<TRIPOS>ATOM
      1 C1         -1.6280    5.6770   -2.7160 c3        1 LI0     -0.168000
      2 C2         -2.6030    6.0570   -3.7970 c3        1 LI0      0.087000
      3 C3         -2.8740    4.9670   -4.6910 c3        1 LI0     -0.168000
      4 C4         -3.2790    3.6900   -3.9500 c3        1 LI0     -0.042000
      5 N1         -2.3150    3.3240   -2.8800 n3        1 LI0     -0.243000
      6 C5         -2.0400    4.4100   -1.9830 c3        1 LI0     -0.042000
      7 C6         -2.8310    2.1740   -2.1180 c2        1 LI0      0.101000
      8 C7         -1.9500    1.1560   -1.6970 c1        1 LI0     -0.179000
      9 C8         -4.6590    1.0790   -0.9480 c1        1 LI0     -0.041000
     10 C9         -4.1910    2.1300   -1.7380 c2        1 LI0     -0.198000
     11 C10        -4.1450   -0.5460    0.8430 c1        1 LI0      0.380000
     12 O1         -5.1740   -0.1540    1.4280 o         1 LI0     -0.326000
     13 N2         -3.3270   -1.6180    1.4330 n2        1 LI0     -0.861000
     14 S14        -3.0610   -1.6420    3.0900 s4        1 LI0      2.089800
     15 C11        -1.6240   -2.6040    3.4670 c1        1 LI0     -0.918000
     16 C12        -0.3770   -2.1230    3.1510 c2        1 LI0      0.100000
     17 C13         0.7680   -2.8400    3.5230 c1        1 LI0     -0.269000
     18 C14         0.6420   -4.0510    4.2200 c2        1 LI0      0.255000
     19 C15        -0.5830   -4.5250    4.5320 c1        1 LI0     -0.257000
     20 C16        -1.7490   -3.7930    4.1510 c1        1 LI0      0.053000
     21 O2         -2.9460   -0.2850    3.6310 o         1 LI0     -0.525900
     22 O3         -4.2430   -2.1370    3.8140 o         1 LI0     -0.525900
     23 N3          2.0320   -2.2960    3.2930 n2        1 LI0      0.472400
     24 O24         2.1720   -1.1120    3.2590 o         1 LI0     -0.318700
     25 O4          3.0940   -3.1280    2.9750 o         1 LI0     -0.318700
     26 N4          1.8450   -4.7630    4.6870 n3        1 LI0     -0.302000
     27 C17         2.1970   -6.1030    4.1090 c3        1 LI0      0.094000
     28 C18         3.5960   -6.4960    4.5630 c3        1 LI0     -0.328000
     29 S1          4.1870   -7.8570    3.5710 ss        1 LI0      0.244000
     30 C19         6.9030   -7.7540    3.1100 c1        1 LI0     -0.122125
     31 C20         5.6600   -7.3610    2.6680 c1        1 LI0     -0.243000
     32 C21         5.5430   -6.6450    1.4680 c1        1 LI0     -0.136000
     33 C22         6.6900   -6.3330    0.7230 c1        1 LI0     -0.122125
     34 C23         7.9270   -6.7270    1.1660 c1        1 LI0     -0.122125
     35 C24         8.0490   -7.4380    2.3560 c1        1 LI0     -0.122125
     36 C25         2.1520   -6.0200    2.5740 c3        1 LI0     -0.239000
     37 C26         1.1580   -7.1870    4.6130 c3        1 LI0     -0.239000
     38 C27        -2.4270    0.0970   -0.8990 c1        1 LI0     -0.072000
     39 C28        -3.7660    0.0540   -0.5250 c1        1 LI0     -0.169000
     40 O5         -3.8720    6.4770   -3.1660 os        1 LI0     -0.281000
     41 C29        -4.8430    7.0180   -4.0940 c3        1 LI0     -0.074000
     42 C30        -2.0180    7.2570   -4.6180 c3        1 LI0     -0.147000
     43 C31         2.2230    7.8630   -3.9460 c1        1 LI0     -0.122125
     44 C32         1.3150    8.4340   -3.0940 c1        1 LI0     -0.122125
     45 C33        -0.0560    8.2040   -3.2770 c1        1 LI0     -0.122125
     46 C34        -0.4940    7.3930   -4.3250 c1        1 LI0     -0.071000
     47 C35         0.4170    6.8200   -5.1770 c1        1 LI0     -0.129000
     48 C36         1.7800    7.0470   -4.9990 c1        1 LI0     -0.122125
     49 H11        -0.7560    5.5310   -3.1180 hc        1 LI0      0.101250
     50 H12A       -1.5610    6.4080   -2.0770 hc        1 LI0      0.101250
     51 H31A       -2.0560    4.7810   -5.2370 hc        1 LI0      0.101250
     52 H32A       -3.5690    5.2170   -5.2620 hc        1 LI0      0.101250
     53 H41        -4.1940    3.8250   -3.5360 h1        1 LI0      0.085250
     54 H42        -3.3240    2.9910   -4.5610 h1        1 LI0      0.085250
     55 H51        -1.3150    4.1450   -1.3680 h1        1 LI0      0.085250
     56 H52        -2.8390    4.5950   -1.4670 h1        1 LI0      0.085250
     57 H7         -1.0020    1.1860   -1.9610 ha        1 LI0      0.140000
     58 H8         -5.6490    1.0460   -0.6730 ha        1 LI0      0.157000
     59 H9         -4.8120    2.8440   -2.0320 ha        1 LI0      0.144000
     60 HN2        -3.0740   -2.3880    0.8910 hn        1 LI0      0.246000
     61 H12        -0.2880   -1.2740    2.6610 ha        1 LI0      0.186000
     62 H15        -0.6690   -5.3500    5.0070 ha        1 LI0      0.156000
     63 H16        -2.6540   -4.1420    4.3800 ha        1 LI0      0.168000
     64 HN4         2.4210   -4.3510    5.2840 hn        1 LI0      0.265000
     65 H181        4.2100   -5.7200    4.4620 h1        1 LI0      0.129500
     66 H182        3.5660   -6.7680    5.5030 h1        1 LI0      0.129500
     67 H19         6.9890   -8.2430    3.9260 ha        1 LI0      0.135750
     68 H21         4.6550   -6.3590    1.1450 ha        1 LI0      0.130000
     69 H22         6.6120   -5.8560   -0.0790 ha        1 LI0      0.135750
     70 H23         8.7860   -6.4920    0.6030 ha        1 LI0      0.135750
     71 H24         8.9390   -7.7190    2.6720 ha        1 LI0      0.135750
     72 H251        2.8960   -5.5190    2.2630 hc        1 LI0      0.096333
     73 H252        1.3360   -5.5850    2.3020 hc        1 LI0      0.096333
     74 H253        2.1820   -6.9100    2.1990 hc        1 LI0      0.096333
     75 H261        0.2910   -6.8060    4.6330 hc        1 LI0      0.096333
     76 H262        1.3980   -7.4750    5.4880 hc        1 LI0      0.096333
     77 H263        1.1620   -7.9560    4.0020 hc        1 LI0      0.096333
     78 H27        -1.8210   -0.6030   -0.6100 ha        1 LI0      0.129000
     79 H291       -4.8640    8.0210   -4.0100 h1        1 LI0      0.072667
     80 H292       -4.5920    6.7680   -5.0240 h1        1 LI0      0.072667
     81 H293       -5.7170    6.6600   -3.8900 h1        1 LI0      0.072667
     82 H301       -2.1480    7.0980   -5.5440 hc        1 LI0      0.097000
     83 H302       -2.4810    8.0970   -4.3590 hc        1 LI0      0.097000
     84 H31         3.2080    8.0280   -3.8150 ha        1 LI0      0.135750
     85 H32         1.6220    9.0020   -2.3600 ha        1 LI0      0.135750
     86 H33        -0.6750    8.5900   -2.6980 ha        1 LI0      0.135750
     87 H35         0.1010    6.2430   -5.9240 ha        1 LI0      0.129000
     88 H36         2.4130    6.6470   -5.5950 ha        1 LI0      0.135750
@<TRIPOS>BOND
     1    1    2 1   
     2    1    6 1   
     3    1   49 1   
     4    1   50 1   
     5    2    3 1   
     6    2   40 1   
     7    2   42 1   
     8    3    4 1   
     9    3   51 1   
    10    3   52 1   
    11    4    5 1   
    12    4   53 1   
    13    4   54 1   
    14    5    6 1   
    15    5    7 1   
    16    6   55 1   
    17    6   56 1   
    18    7    8 1   
    19    7   10 1   
    20    8   57 1   
    21    9   10 1   
    22    9   58 1   
    23   10   59 1   
    24   11   12 1   
    25   11   39 1   
    26   13   14 1   
    27   13   60 1   
    28   14   21 1   
    29   14   22 1   
    30   15   16 1   
    31   15   20 1   
    32   16   17 1   
    33   16   61 1   
    34   17   18 1   
    35   18   19 1   
    36   18   26 1   
    37   19   62 1   
    38   20   63 1   
    39   23   24 2   
    40   23   25 2   
    41   26   27 1   
    42   26   64 1   
    43   27   28 1   
    44   27   36 1   
    45   27   37 1   
    46   28   29 1   
    47   28   65 1   
    48   28   66 1   
    49   29   31 1   
    50   30   35 1   
    51   30   67 1   
    52   31   32 1   
    53   32   68 1   
    54   33   34 1   
    55   33   69 1   
    56   34   70 1   
    57   35   71 1   
    58   36   72 1   
    59   36   73 1   
    60   36   74 1   
    61   37   75 1   
    62   37   76 1   
    63   37   77 1   
    64   38   39 1   
    65   38   78 1   
    66   40   41 1   
    67   41   79 1   
    68   41   80 1   
    69   41   81 1   
    70   42   46 1   
    71   42   82 1   
    72   42   83 1   
    73   43   48 1   
    74   43   84 1   
    75   44   45 1   
    76   44   85 1   
    77   45   86 1   
    78   46   47 1   
    79   47   87 1   
    80   48   88 1   
@<TRIPOS>SUBSTRUCTURE
     1 LI0         1 TEMP              0 ****  ****    0 ROOT
