@<TRIPOS>MOLECULE
LI1
  131   130     1     0     0
SMALL
bcc


@<TRIPOS>ATOM
      1 C1         -1.4910    6.0170    6.8250 c3        1 LI1      0.109400
      2 C2         -1.3360    5.1430    5.5800 c3        1 LI1      0.100100
      3 C3          0.1360    4.8390    5.2760 c3        1 LI1      0.138400
      4 O1         -0.5720    5.5620    7.8110 os        1 LI1     -0.416600
      5 O2         -1.9560    3.8690    5.7650 os        1 LI1     -0.423600
      6 O3          0.2560    4.0850    4.0870 oh        1 LI1     -0.604800
      7 C41        -3.3440    3.8590    5.4340 c3        1 LI1      0.128400
      8 C42        -3.8540    2.4510    5.6850 c3        1 LI1     -0.077400
      9 C43        -3.2820    1.4350    4.7070 c3        1 LI1     -0.064700
     10 C44        -3.9470    1.5520    3.3500 c3        1 LI1     -0.092100
     11 C45        -3.4480    0.0160    5.2340 c3        1 LI1     -0.075400
     12 C46        -2.4960   -0.3070    6.3670 c3        1 LI1     -0.079400
     13 C47        -2.5300   -1.7860    6.6910 c3        1 LI1     -0.076400
     14 C48        -1.7680   -2.1270    7.9650 c3        1 LI1     -0.065700
     15 C49        -0.2790   -1.9210    7.7800 c3        1 LI1     -0.091100
     16 C50        -2.0450   -3.5680    8.3790 c3        1 LI1     -0.076400
     17 C51        -3.3680   -3.7430    9.0940 c3        1 LI1     -0.078400
     18 C52        -3.2680   -3.4270   10.5720 c3        1 LI1     -0.081400
     19 C53        -4.6150   -3.5540   11.2510 c3        1 LI1     -0.079400
     20 C55        -4.4930   -3.4010   12.7520 c3        1 LI1     -0.081400
     21 C56        -5.8480   -3.4770   13.4250 c3        1 LI1     -0.079400
     22 C57        -5.7150   -3.3110   14.9230 c3        1 LI1     -0.080400
     23 C58        -7.0610   -3.3010   15.6340 c3        1 LI1     -0.066700
     24 C59        -7.8000   -2.0000   15.4030 c3        1 LI1     -0.092100
     25 C60        -6.8620   -3.5260   17.1200 c3        1 LI1     -0.092100
     26 C11        -0.8160    6.1480    9.0900 c3        1 LI1      0.129400
     27 C12         0.2400    5.6090   10.0380 c3        1 LI1     -0.076400
     28 C13         0.0320    4.1380   10.3780 c3        1 LI1     -0.068700
     29 C14         1.3380    3.5340   10.8540 c3        1 LI1     -0.089100
     30 C15        -1.0570    3.9740   11.4280 c3        1 LI1     -0.075400
     31 C16        -1.6040    2.5620   11.4710 c3        1 LI1     -0.079400
     32 C17        -2.7390    2.4510   12.4670 c3        1 LI1     -0.075400
     33 C18        -3.1640    1.0110   12.7120 c3        1 LI1     -0.064700
     34 C19        -3.6110    0.3450   11.4250 c3        1 LI1     -0.096100
     35 C20        -4.2890    0.9310   13.7350 c3        1 LI1     -0.075400
     36 C21        -3.9740    1.5240   15.0910 c3        1 LI1     -0.076400
     37 C22        -2.7600    0.9440   15.7810 c3        1 LI1     -0.074400
     38 C23        -2.8660   -0.5380   16.1030 c3        1 LI1     -0.064700
     39 C24        -1.5380   -1.0430   16.6320 c3        1 LI1     -0.090100
     40 C25        -4.0030   -0.8710   17.0560 c3        1 LI1     -0.076400
     41 C26        -3.9400   -0.1560   18.3890 c3        1 LI1     -0.079400
     42 C27        -5.0330   -0.6540   19.3110 c3        1 LI1     -0.074400
     43 C28        -5.0770    0.0490   20.6590 c3        1 LI1     -0.065700
     44 C29        -3.7870   -0.1260   21.4310 c3        1 LI1     -0.089100
     45 C30        -5.4200    1.5170   20.5190 c3        1 LI1     -0.089100
     46 H11        -2.5430    5.9490    7.2130 h1        1 LI1      0.032700
     47 H12        -1.2560    7.0850    6.5720 h1        1 LI1      0.032700
     48 H2         -1.8040    5.6790    4.7080 h1        1 LI1      0.051700
     49 H31         0.5970    4.2910    6.1390 h1        1 LI1      0.063700
     50 H32         0.6890    5.7940    5.0830 h1        1 LI1      0.063700
     51 HO3        -0.2430    3.2680    4.2230 ho        1 LI1      0.411000
     52 H411       -3.8910    4.5920    6.0860 h1        1 LI1      0.026700
     53 H412       -3.4750    4.1580    4.3590 h1        1 LI1      0.026700
     54 H421       -4.9720    2.4650    5.6100 hc        1 LI1      0.053200
     55 H422       -3.5800    2.1550    6.7310 hc        1 LI1      0.053200
     56 H43        -2.1810    1.6510    4.5880 hc        1 LI1      0.059700
     57 H441       -3.8450    2.5890    2.9490 hc        1 LI1      0.033367
     58 H442       -3.4730    0.8480    2.6250 hc        1 LI1      0.033367
     59 H443       -5.0340    1.3060    3.4230 hc        1 LI1      0.033367
     60 H451       -4.5050   -0.1330    5.5760 hc        1 LI1      0.039200
     61 H452       -3.2680   -0.7050    4.3910 hc        1 LI1      0.039200
     62 H461       -1.4540   -0.0060    6.0800 hc        1 LI1      0.043200
     63 H462       -2.7700    0.2850    7.2790 hc        1 LI1      0.043200
     64 H471       -3.5980   -2.1130    6.8060 hc        1 LI1      0.039200
     65 H472       -2.0960   -2.3670    5.8340 hc        1 LI1      0.039200
     66 H48        -2.1220   -1.4420    8.7890 hc        1 LI1      0.048700
     67 H491        0.1120   -2.5870    6.9740 hc        1 LI1      0.033700
     68 H492       -0.0620   -0.8620    7.5020 hc        1 LI1      0.033700
     69 H493        0.2670   -2.1550    8.7260 hc        1 LI1      0.033700
     70 H501       -1.2160   -3.9270    9.0460 hc        1 LI1      0.040200
     71 H502       -2.0330   -4.2160    7.4620 hc        1 LI1      0.040200
     72 H511       -3.7120   -4.8050    8.9720 hc        1 LI1      0.039200
     73 H512       -4.1500   -3.0890    8.6250 hc        1 LI1      0.039200
     74 H521       -2.5340   -4.1240   11.0560 hc        1 LI1      0.041200
     75 H522       -2.8760   -2.3840   10.7110 hc        1 LI1      0.041200
     76 H531       -5.3120   -2.7730   10.8490 hc        1 LI1      0.039200
     77 H532       -5.0650   -4.5540   11.0130 hc        1 LI1      0.039200
     78 H551       -4.0100   -2.4170   12.9940 hc        1 LI1      0.040200
     79 H552       -3.8250   -4.2050   13.1590 hc        1 LI1      0.040200
     80 H561       -6.5150   -2.6770   13.0100 hc        1 LI1      0.040200
     81 H562       -6.3300   -4.4630   13.1940 hc        1 LI1      0.040200
     82 H571       -5.0920   -4.1520   15.3300 hc        1 LI1      0.042200
     83 H572       -5.1680   -2.3560   15.1490 hc        1 LI1      0.042200
     84 H58        -7.6860   -4.1450   15.2260 hc        1 LI1      0.045700
     85 H591       -7.1970   -1.1360   15.7760 hc        1 LI1      0.033533
     86 H592       -8.7770   -2.0100   15.9460 hc        1 LI1      0.033533
     87 H593       -8.0020   -1.8480   14.3160 hc        1 LI1      0.033533
     88 H601       -6.2180   -2.7210   17.5540 hc        1 LI1      0.033533
     89 H602       -6.3700   -4.5110   17.3050 hc        1 LI1      0.033533
     90 H603       -7.8450   -3.5170   17.6490 hc        1 LI1      0.033533
     91 H111       -0.7350    7.2650    9.0070 h1        1 LI1      0.026200
     92 H112       -1.8510    5.8810    9.4320 h1        1 LI1      0.026200
     93 H121        1.2480    5.7380    9.5610 hc        1 LI1      0.050700
     94 H122        0.2190    6.2240   10.9750 hc        1 LI1      0.050700
     95 H13        -0.2870    3.6080    9.4360 hc        1 LI1      0.069700
     96 H141        2.1110    3.5970   10.0510 hc        1 LI1      0.033367
     97 H142        1.7170    4.0760   11.7540 hc        1 LI1      0.033367
     98 H143        1.1950    2.4600   11.1230 hc        1 LI1      0.033367
     99 H151       -0.6490    4.2510   12.4360 hc        1 LI1      0.036200
    100 H152       -1.8990    4.6820   11.2070 hc        1 LI1      0.036200
    101 H161       -0.7870    1.8460   11.7500 hc        1 LI1      0.042700
    102 H162       -1.9660    2.2700   10.4500 hc        1 LI1      0.042700
    103 H171       -3.6190    3.0430   12.1010 hc        1 LI1      0.039200
    104 H172       -2.4130    2.9030   13.4410 hc        1 LI1      0.039200
    105 H18        -2.2780    0.4430   13.1140 hc        1 LI1      0.048700
    106 H191       -4.3840    0.9650   10.9100 hc        1 LI1      0.034700
    107 H192       -2.7450    0.2100   10.7320 hc        1 LI1      0.034700
    108 H193       -4.0490   -0.6620   11.6350 hc        1 LI1      0.034700
    109 H201       -4.5720   -0.1500   13.8660 hc        1 LI1      0.038700
    110 H202       -5.1900    1.4590   13.3200 hc        1 LI1      0.038700
    111 H211       -3.8210    2.6320   14.9820 hc        1 LI1      0.038200
    112 H212       -4.8720    1.3860   15.7520 hc        1 LI1      0.038200
    113 H221       -1.8560    1.1040   15.1320 hc        1 LI1      0.039700
    114 H222       -2.5830    1.5120   16.7330 hc        1 LI1      0.039700
    115 H23        -3.0800   -1.0870   15.1370 hc        1 LI1      0.045700
    116 H241       -0.7470   -0.9430   15.8500 hc        1 LI1      0.033033
    117 H242       -1.2190   -0.4590   17.5290 hc        1 LI1      0.033033
    118 H243       -1.6170   -2.1190   16.9210 hc        1 LI1      0.033033
    119 H251       -3.9980   -1.9810   17.2350 hc        1 LI1      0.039200
    120 H252       -4.9790   -0.6260   16.5560 hc        1 LI1      0.039200
    121 H261       -2.9380   -0.3230   18.8640 hc        1 LI1      0.043200
    122 H262       -4.0560    0.9490   18.2290 hc        1 LI1      0.043200
    123 H271       -6.0270   -0.5260   18.8050 hc        1 LI1      0.037700
    124 H272       -4.8900   -1.7550   19.4860 hc        1 LI1      0.037700
    125 H28        -5.9040   -0.4410   21.2530 hc        1 LI1      0.041700
    126 H291       -3.9050    0.2630   22.4710 hc        1 LI1      0.033200
    127 H292       -3.5080   -1.2060   21.4840 hc        1 LI1      0.033200
    128 H293       -2.9530    0.4320   20.9410 hc        1 LI1      0.033200
    129 H301       -5.5860    1.9700   21.5270 hc        1 LI1      0.033200
    130 H302       -4.5910    2.0740   20.0190 hc        1 LI1      0.033200
    131 H303       -6.3490    1.6450   19.9140 hc        1 LI1      0.033200
@<TRIPOS>BOND
     1    1    2 1   
     2    1    4 1   
     3    1   46 1   
     4    1   47 1   
     5    2    3 1   
     6    2    5 1   
     7    2   48 1   
     8    3    6 1   
     9    3   49 1   
    10    3   50 1   
    11    4   26 1   
    12    5    7 1   
    13    6   51 1   
    14    7    8 1   
    15    7   52 1   
    16    7   53 1   
    17    8    9 1   
    18    8   54 1   
    19    8   55 1   
    20    9   10 1   
    21    9   11 1   
    22    9   56 1   
    23   10   57 1   
    24   10   58 1   
    25   10   59 1   
    26   11   12 1   
    27   11   60 1   
    28   11   61 1   
    29   12   13 1   
    30   12   62 1   
    31   12   63 1   
    32   13   14 1   
    33   13   64 1   
    34   13   65 1   
    35   14   15 1   
    36   14   16 1   
    37   14   66 1   
    38   15   67 1   
    39   15   68 1   
    40   15   69 1   
    41   16   17 1   
    42   16   70 1   
    43   16   71 1   
    44   17   18 1   
    45   17   72 1   
    46   17   73 1   
    47   18   19 1   
    48   18   74 1   
    49   18   75 1   
    50   19   20 1   
    51   19   76 1   
    52   19   77 1   
    53   20   21 1   
    54   20   78 1   
    55   20   79 1   
    56   21   22 1   
    57   21   80 1   
    58   21   81 1   
    59   22   23 1   
    60   22   82 1   
    61   22   83 1   
    62   23   24 1   
    63   23   25 1   
    64   23   84 1   
    65   24   85 1   
    66   24   86 1   
    67   24   87 1   
    68   25   88 1   
    69   25   89 1   
    70   25   90 1   
    71   26   27 1   
    72   26   91 1   
    73   26   92 1   
    74   27   28 1   
    75   27   93 1   
    76   27   94 1   
    77   28   29 1   
    78   28   30 1   
    79   28   95 1   
    80   29   96 1   
    81   29   97 1   
    82   29   98 1   
    83   30   31 1   
    84   30   99 1   
    85   30  100 1   
    86   31   32 1   
    87   31  101 1   
    88   31  102 1   
    89   32   33 1   
    90   32  103 1   
    91   32  104 1   
    92   33   34 1   
    93   33   35 1   
    94   33  105 1   
    95   34  106 1   
    96   34  107 1   
    97   34  108 1   
    98   35   36 1   
    99   35  109 1   
   100   35  110 1   
   101   36   37 1   
   102   36  111 1   
   103   36  112 1   
   104   37   38 1   
   105   37  113 1   
   106   37  114 1   
   107   38   39 1   
   108   38   40 1   
   109   38  115 1   
   110   39  116 1   
   111   39  117 1   
   112   39  118 1   
   113   40   41 1   
   114   40  119 1   
   115   40  120 1   
   116   41   42 1   
   117   41  121 1   
   118   41  122 1   
   119   42   43 1   
   120   42  123 1   
   121   42  124 1   
   122   43   44 1   
   123   43   45 1   
   124   43  125 1   
   125   44  126 1   
   126   44  127 1   
   127   44  128 1   
   128   45  129 1   
   129   45  130 1   
   130   45  131 1   
@<TRIPOS>SUBSTRUCTURE
     1 LI1         1 TEMP              0 ****  ****    0 ROOT
