@<TRIPOS>MOLECULE
LI1
  131   130     1     0     0
SMALL
bcc


@<TRIPOS>ATOM
      1 C1          0.5150    0.0540    0.1240 c3        1 LI1      0.109400
      2 C2          1.9450   -0.3220    0.5130 c3        1 LI1      0.100100
      3 C3          2.0060   -0.9820    1.8960 c3        1 LI1      0.138400
      4 O1         -0.3510   -1.0040    0.5190 os        1 LI1     -0.416600
      5 O2          2.4880   -1.2860   -0.3910 os        1 LI1     -0.423600
      6 O3          3.3420   -1.2600    2.2600 oh        1 LI1     -0.604800
      7 C41         3.0980   -0.7040   -1.5430 c3        1 LI1      0.128400
      8 C42         3.6180   -1.8460   -2.3990 c3        1 LI1     -0.077400
      9 C43         4.7820   -2.5820   -1.7530 c3        1 LI1     -0.064700
     10 C44         6.0610   -1.7750   -1.8590 c3        1 LI1     -0.092100
     11 C45         4.9880   -3.9480   -2.3940 c3        1 LI1     -0.075400
     12 C46         3.9290   -4.9530   -1.9930 c3        1 LI1     -0.079400
     13 C47         4.3060   -6.3450   -2.4560 c3        1 LI1     -0.076400
     14 C48         3.1760   -7.3500   -2.2820 c3        1 LI1     -0.065700
     15 C49         2.9040   -7.6140   -0.8150 c3        1 LI1     -0.091100
     16 C50         3.5160   -8.6580   -2.9890 c3        1 LI1     -0.076400
     17 C51         3.2760   -8.6110   -4.4830 c3        1 LI1     -0.078400
     18 C52         1.8310   -8.8890   -4.8420 c3        1 LI1     -0.081400
     19 C53         1.6070   -8.7800   -6.3350 c3        1 LI1     -0.079400
     20 C55         0.2090   -9.2170   -6.7170 c3        1 LI1     -0.081400
     21 C56        -0.0300   -9.0580   -8.2040 c3        1 LI1     -0.079400
     22 C57        -1.4340   -9.4860   -8.5730 c3        1 LI1     -0.080400
     23 C58        -1.7460   -9.2680  -10.0460 c3        1 LI1     -0.066700
     24 C59        -1.9490   -7.8000  -10.3600 c3        1 LI1     -0.092100
     25 C60        -2.9820  -10.0550  -10.4340 c3        1 LI1     -0.092100
     26 C11        -1.6630   -0.8600   -0.0250 c3        1 LI1      0.129400
     27 C12        -2.4910   -2.0250    0.4890 c3        1 LI1     -0.076400
     28 C13        -2.0900   -3.3550   -0.1360 c3        1 LI1     -0.068700
     29 C14        -2.5360   -4.4950    0.7570 c3        1 LI1     -0.089100
     30 C15        -2.6790   -3.4970   -1.5330 c3        1 LI1     -0.075400
     31 C16        -1.9690   -4.5550   -2.3500 c3        1 LI1     -0.079400
     32 C17        -2.5240   -4.6150   -3.7580 c3        1 LI1     -0.075400
     33 C18        -2.0050   -5.8100   -4.5410 c3        1 LI1     -0.064700
     34 C19        -0.4920   -5.7850   -4.6410 c3        1 LI1     -0.096100
     35 C20        -2.5990   -5.8570   -5.9430 c3        1 LI1     -0.075400
     36 C21        -4.1100   -5.9240   -6.0030 c3        1 LI1     -0.076400
     37 C22        -4.7310   -7.0880   -5.2630 c3        1 LI1     -0.074400
     38 C23        -4.3340   -8.4570   -5.7920 c3        1 LI1     -0.064700
     39 C24        -4.8760   -9.5360   -4.8770 c3        1 LI1     -0.090100
     40 C25        -4.7530   -8.6940   -7.2340 c3        1 LI1     -0.076400
     41 C26        -6.2390   -8.5600   -7.4900 c3        1 LI1     -0.079400
     42 C27        -6.5690   -8.9460   -8.9170 c3        1 LI1     -0.074400
     43 C28        -8.0380   -8.7920   -9.2790 c3        1 LI1     -0.065700
     44 C29        -8.9280   -9.6570   -8.4120 c3        1 LI1     -0.089100
     45 C30        -8.4850   -7.3460   -9.2260 c3        1 LI1     -0.089100
     46 H11         0.4500    0.2170   -0.9850 h1        1 LI1      0.032700
     47 H12         0.2100    0.9940    0.6570 h1        1 LI1      0.032700
     48 H2          2.5730    0.6120    0.5070 h1        1 LI1      0.051700
     49 H31         1.6250   -0.2700    2.6740 h1        1 LI1      0.063700
     50 H32         1.3920   -1.9210    1.8960 h1        1 LI1      0.063700
     51 HO3         3.6980   -1.8500    1.5810 ho        1 LI1      0.411000
     52 H411        3.9290   -0.0210   -1.2220 h1        1 LI1      0.026700
     53 H412        2.3350   -0.1080   -2.1110 h1        1 LI1      0.026700
     54 H421        2.7770   -2.5660   -2.5790 hc        1 LI1      0.053200
     55 H422        3.9330   -1.4260   -3.3890 hc        1 LI1      0.053200
     56 H43         4.5380   -2.7280   -0.6620 hc        1 LI1      0.059700
     57 H441        6.8930   -2.2950   -1.3250 hc        1 LI1      0.033367
     58 H442        6.3560   -1.6450   -2.9280 hc        1 LI1      0.033367
     59 H443        5.9290   -0.7650   -1.4020 hc        1 LI1      0.033367
     60 H451        5.9960   -4.3410   -2.0910 hc        1 LI1      0.039200
     61 H452        4.9990   -3.8370   -3.5100 hc        1 LI1      0.039200
     62 H461        2.9390   -4.6650   -2.4350 hc        1 LI1      0.043200
     63 H462        3.8060   -4.9450   -0.8780 hc        1 LI1      0.043200
     64 H471        4.5960   -6.3060   -3.5400 hc        1 LI1      0.039200
     65 H472        5.2070   -6.6970   -1.8860 hc        1 LI1      0.039200
     66 H48         2.2410   -6.9230   -2.7460 hc        1 LI1      0.048700
     67 H491        2.6290   -6.6670   -0.2910 hc        1 LI1      0.033700
     68 H492        2.0600   -8.3370   -0.6990 hc        1 LI1      0.033700
     69 H493        3.8080   -8.0440   -0.3190 hc        1 LI1      0.033700
     70 H501        2.9050   -9.4880   -2.5440 hc        1 LI1      0.040200
     71 H502        4.5940   -8.9040   -2.7960 hc        1 LI1      0.040200
     72 H511        3.5750   -7.6090   -4.8900 hc        1 LI1      0.039200
     73 H512        3.9280   -9.3760   -4.9820 hc        1 LI1      0.039200
     74 H521        1.1610   -8.1630   -4.3090 hc        1 LI1      0.041200
     75 H522        1.5500   -9.9180   -4.4920 hc        1 LI1      0.041200
     76 H531        2.3580   -9.4140   -6.8770 hc        1 LI1      0.039200
     77 H532        1.7720   -7.7190   -6.6610 hc        1 LI1      0.039200
     78 H551       -0.5460   -8.6080   -6.1500 hc        1 LI1      0.040200
     79 H552        0.0560  -10.2890   -6.4240 hc        1 LI1      0.040200
     80 H561        0.7160   -9.6710   -8.7750 hc        1 LI1      0.040200
     81 H562        0.1310   -7.9860   -8.4950 hc        1 LI1      0.040200
     82 H571       -2.1760   -8.9190   -7.9480 hc        1 LI1      0.042200
     83 H572       -1.5600  -10.5740   -8.3280 hc        1 LI1      0.042200
     84 H58        -0.8760   -9.6460  -10.6550 hc        1 LI1      0.045700
     85 H591       -1.0260   -7.2160  -10.1300 hc        1 LI1      0.033533
     86 H592       -2.7910   -7.3840   -9.7540 hc        1 LI1      0.033533
     87 H593       -2.1920   -7.6660  -11.4410 hc        1 LI1      0.033533
     88 H601       -2.8210  -11.1460  -10.2630 hc        1 LI1      0.033533
     89 H602       -3.2190   -9.8970  -11.5140 hc        1 LI1      0.033533
     90 H603       -3.8620   -9.7260   -9.8260 hc        1 LI1      0.033533
     91 H111       -2.1030    0.1150    0.3180 h1        1 LI1      0.026200
     92 H112       -1.6060   -0.8600   -1.1470 h1        1 LI1      0.026200
     93 H121       -3.5700   -1.8110    0.2750 hc        1 LI1      0.050700
     94 H122       -2.3640   -2.0880    1.6020 hc        1 LI1      0.050700
     95 H13        -0.9650   -3.3760   -0.2120 hc        1 LI1      0.069700
     96 H141       -3.6430   -4.4690    0.9040 hc        1 LI1      0.033367
     97 H142       -2.0440   -4.4210    1.7560 hc        1 LI1      0.033367
     98 H143       -2.2630   -5.4770    0.3010 hc        1 LI1      0.033367
     99 H151       -3.7700   -3.7490   -1.4540 hc        1 LI1      0.036200
    100 H152       -2.6060   -2.5140   -2.0700 hc        1 LI1      0.036200
    101 H161       -2.0830   -5.5560   -1.8580 hc        1 LI1      0.042700
    102 H162       -0.8710   -4.3260   -2.3860 hc        1 LI1      0.042700
    103 H171       -3.6440   -4.6750   -3.7040 hc        1 LI1      0.039200
    104 H172       -2.2660   -3.6700   -4.3040 hc        1 LI1      0.039200
    105 H18        -2.3070   -6.7500   -3.9970 hc        1 LI1      0.048700
    106 H191       -0.1300   -6.5880   -5.3320 hc        1 LI1      0.034700
    107 H192       -0.0290   -5.9550   -3.6390 hc        1 LI1      0.034700
    108 H193       -0.1410   -4.8000   -5.0310 hc        1 LI1      0.034700
    109 H201       -2.2650   -4.9430   -6.5040 hc        1 LI1      0.038700
    110 H202       -2.1720   -6.7480   -6.4790 hc        1 LI1      0.038700
    111 H211       -4.4160   -5.9710   -7.0830 hc        1 LI1      0.038200
    112 H212       -4.5390   -4.9730   -5.5870 hc        1 LI1      0.038200
    113 H221       -5.8490   -6.9880   -5.3130 hc        1 LI1      0.039700
    114 H222       -4.4470   -7.0280   -4.1780 hc        1 LI1      0.039700
    115 H23        -3.2050   -8.5210   -5.7670 hc        1 LI1      0.045700
    116 H241       -4.6340  -10.5480   -5.2820 hc        1 LI1      0.033033
    117 H242       -4.4230   -9.4440   -3.8600 hc        1 LI1      0.033033
    118 H243       -5.9840   -9.4520   -4.7740 hc        1 LI1      0.033033
    119 H251       -4.4210   -9.7260   -7.5320 hc        1 LI1      0.039200
    120 H252       -4.2030   -7.9710   -7.8960 hc        1 LI1      0.039200
    121 H261       -6.8080   -9.2160   -6.7800 hc        1 LI1      0.043200
    122 H262       -6.5600   -7.5020   -7.3020 hc        1 LI1      0.043200
    123 H271       -6.2690  -10.0150   -9.0850 hc        1 LI1      0.037700
    124 H272       -5.9580   -8.3170   -9.6180 hc        1 LI1      0.037700
    125 H28        -8.1480   -9.1460  -10.3460 hc        1 LI1      0.041700
    126 H291       -8.9400   -9.2830   -7.3590 hc        1 LI1      0.033200
    127 H292       -8.5620  -10.7110   -8.4080 hc        1 LI1      0.033200
    128 H293       -9.9750   -9.6430   -8.8000 hc        1 LI1      0.033200
    129 H301       -9.5200   -7.2490   -9.6330 hc        1 LI1      0.033200
    130 H302       -8.4850   -6.9680   -8.1760 hc        1 LI1      0.033200
    131 H303       -7.8020   -6.7050   -9.8330 hc        1 LI1      0.033200
@<TRIPOS>BOND
     1    1    2 1   
     2    1    4 1   
     3    1   46 1   
     4    1   47 1   
     5    2    3 1   
     6    2    5 1   
     7    2   48 1   
     8    3    6 1   
     9    3   49 1   
    10    3   50 1   
    11    4   26 1   
    12    5    7 1   
    13    6   51 1   
    14    7    8 1   
    15    7   52 1   
    16    7   53 1   
    17    8    9 1   
    18    8   54 1   
    19    8   55 1   
    20    9   10 1   
    21    9   11 1   
    22    9   56 1   
    23   10   57 1   
    24   10   58 1   
    25   10   59 1   
    26   11   12 1   
    27   11   60 1   
    28   11   61 1   
    29   12   13 1   
    30   12   62 1   
    31   12   63 1   
    32   13   14 1   
    33   13   64 1   
    34   13   65 1   
    35   14   15 1   
    36   14   16 1   
    37   14   66 1   
    38   15   67 1   
    39   15   68 1   
    40   15   69 1   
    41   16   17 1   
    42   16   70 1   
    43   16   71 1   
    44   17   18 1   
    45   17   72 1   
    46   17   73 1   
    47   18   19 1   
    48   18   74 1   
    49   18   75 1   
    50   19   20 1   
    51   19   76 1   
    52   19   77 1   
    53   20   21 1   
    54   20   78 1   
    55   20   79 1   
    56   21   22 1   
    57   21   80 1   
    58   21   81 1   
    59   22   23 1   
    60   22   82 1   
    61   22   83 1   
    62   23   24 1   
    63   23   25 1   
    64   23   84 1   
    65   24   85 1   
    66   24   86 1   
    67   24   87 1   
    68   25   88 1   
    69   25   89 1   
    70   25   90 1   
    71   26   27 1   
    72   26   91 1   
    73   26   92 1   
    74   27   28 1   
    75   27   93 1   
    76   27   94 1   
    77   28   29 1   
    78   28   30 1   
    79   28   95 1   
    80   29   96 1   
    81   29   97 1   
    82   29   98 1   
    83   30   31 1   
    84   30   99 1   
    85   30  100 1   
    86   31   32 1   
    87   31  101 1   
    88   31  102 1   
    89   32   33 1   
    90   32  103 1   
    91   32  104 1   
    92   33   34 1   
    93   33   35 1   
    94   33  105 1   
    95   34  106 1   
    96   34  107 1   
    97   34  108 1   
    98   35   36 1   
    99   35  109 1   
   100   35  110 1   
   101   36   37 1   
   102   36  111 1   
   103   36  112 1   
   104   37   38 1   
   105   37  113 1   
   106   37  114 1   
   107   38   39 1   
   108   38   40 1   
   109   38  115 1   
   110   39  116 1   
   111   39  117 1   
   112   39  118 1   
   113   40   41 1   
   114   40  119 1   
   115   40  120 1   
   116   41   42 1   
   117   41  121 1   
   118   41  122 1   
   119   42   43 1   
   120   42  123 1   
   121   42  124 1   
   122   43   44 1   
   123   43   45 1   
   124   43  125 1   
   125   44  126 1   
   126   44  127 1   
   127   44  128 1   
   128   45  129 1   
   129   45  130 1   
   130   45  131 1   
@<TRIPOS>SUBSTRUCTURE
     1 LI1         1 TEMP              0 ****  ****    0 ROOT
