@<TRIPOS>MOLECULE
LI1
  131   130     1     0     0
SMALL
bcc


@<TRIPOS>ATOM
      1 C1          0.5410    0.0610    0.1050 c3        1 LI1      0.109400
      2 C2          1.9710   -0.3190    0.4930 c3        1 LI1      0.100100
      3 C3          2.0330   -0.9730    1.8780 c3        1 LI1      0.138400
      4 O1         -0.3270   -0.9930    0.5050 os        1 LI1     -0.416600
      5 O2          2.5080   -1.2880   -0.4080 os        1 LI1     -0.423600
      6 O3          3.3680   -1.2560    2.2400 oh        1 LI1     -0.604800
      7 C41         3.1180   -0.7130   -1.5640 c3        1 LI1      0.128400
      8 C42         3.6320   -1.8600   -2.4160 c3        1 LI1     -0.077400
      9 C43         4.7950   -2.5980   -1.7700 c3        1 LI1     -0.064700
     10 C44         6.0770   -1.7960   -1.8830 c3        1 LI1     -0.092100
     11 C45         4.9950   -3.9670   -2.4070 c3        1 LI1     -0.075400
     12 C46         3.9320   -4.9670   -1.9990 c3        1 LI1     -0.079400
     13 C47         4.3040   -6.3620   -2.4560 c3        1 LI1     -0.076400
     14 C48         3.1690   -7.3610   -2.2770 c3        1 LI1     -0.065700
     15 C49         2.8970   -7.6180   -0.8090 c3        1 LI1     -0.091100
     16 C50         3.5030   -8.6740   -2.9780 c3        1 LI1     -0.076400
     17 C51         3.2630   -8.6320   -4.4730 c3        1 LI1     -0.078400
     18 C52         1.8170   -8.9060   -4.8300 c3        1 LI1     -0.081400
     19 C53         1.5930   -8.8030   -6.3240 c3        1 LI1     -0.079400
     20 C55         0.1930   -9.2340   -6.7040 c3        1 LI1     -0.081400
     21 C56        -0.0450   -9.0810   -8.1910 c3        1 LI1     -0.079400
     22 C57        -1.4510   -9.5030   -8.5580 c3        1 LI1     -0.080400
     23 C58        -1.7620   -9.2920  -10.0330 c3        1 LI1     -0.066700
     24 C59        -1.9560   -7.8250  -10.3540 c3        1 LI1     -0.092100
     25 C60        -3.0020  -10.0740  -10.4170 c3        1 LI1     -0.092100
     26 C11        -1.6400   -0.8470   -0.0380 c3        1 LI1      0.129400
     27 C12        -2.4700   -2.0070    0.4810 c3        1 LI1     -0.076400
     28 C13        -2.0750   -3.3400   -0.1410 c3        1 LI1     -0.068700
     29 C14        -2.5230   -4.4760    0.7560 c3        1 LI1     -0.089100
     30 C15        -2.6660   -3.4840   -1.5360 c3        1 LI1     -0.075400
     31 C16        -1.9610   -4.5480   -2.3520 c3        1 LI1     -0.079400
     32 C17        -2.5180   -4.6090   -3.7590 c3        1 LI1     -0.075400
     33 C18        -2.0040   -5.8090   -4.5390 c3        1 LI1     -0.064700
     34 C19        -0.4910   -5.7910   -4.6400 c3        1 LI1     -0.096100
     35 C20        -2.6000   -5.8560   -5.9400 c3        1 LI1     -0.075400
     36 C21        -4.1100   -5.9150   -5.9990 c3        1 LI1     -0.076400
     37 C22        -4.7380   -7.0740   -5.2570 c3        1 LI1     -0.074400
     38 C23        -4.3470   -8.4470   -5.7830 c3        1 LI1     -0.064700
     39 C24        -4.8970   -9.5210   -4.8660 c3        1 LI1     -0.090100
     40 C25        -4.7660   -8.6840   -7.2250 c3        1 LI1     -0.076400
     41 C26        -6.2510   -8.5390   -7.4840 c3        1 LI1     -0.079400
     42 C27        -6.5820   -8.9280   -8.9100 c3        1 LI1     -0.074400
     43 C28        -8.0490   -8.7610   -9.2750 c3        1 LI1     -0.065700
     44 C29        -8.9490   -9.6110   -8.4030 c3        1 LI1     -0.089100
     45 C30        -8.4810   -7.3110   -9.2310 c3        1 LI1     -0.089100
     46 H11         0.4750    0.2210   -1.0040 h1        1 LI1      0.032700
     47 H12         0.2410    1.0040    0.6360 h1        1 LI1      0.032700
     48 H2          2.6020    0.6130    0.4820 h1        1 LI1      0.051700
     49 H31         1.6560   -0.2570    2.6540 h1        1 LI1      0.063700
     50 H32         1.4150   -1.9100    1.8830 h1        1 LI1      0.063700
     51 HO3         3.7210   -1.8490    1.5630 ho        1 LI1      0.411000
     52 H411        3.9530   -0.0310   -1.2470 h1        1 LI1      0.026700
     53 H412        2.3560   -0.1170   -2.1330 h1        1 LI1      0.026700
     54 H421        2.7880   -2.5780   -2.5920 hc        1 LI1      0.053200
     55 H422        3.9470   -1.4450   -3.4090 hc        1 LI1      0.053200
     56 H43         4.5530   -2.7380   -0.6780 hc        1 LI1      0.059700
     57 H441        6.9080   -2.3170   -1.3480 hc        1 LI1      0.033367
     58 H442        6.3700   -1.6710   -2.9530 hc        1 LI1      0.033367
     59 H443        5.9500   -0.7840   -1.4300 hc        1 LI1      0.033367
     60 H451        6.0010   -4.3630   -2.1030 hc        1 LI1      0.039200
     61 H452        5.0040   -3.8610   -3.5230 hc        1 LI1      0.039200
     62 H461        2.9430   -4.6760   -2.4410 hc        1 LI1      0.043200
     63 H462        3.8120   -4.9540   -0.8840 hc        1 LI1      0.043200
     64 H471        4.5930   -6.3280   -3.5410 hc        1 LI1      0.039200
     65 H472        5.2030   -6.7150   -1.8850 hc        1 LI1      0.039200
     66 H48         2.2360   -6.9330   -2.7420 hc        1 LI1      0.048700
     67 H491        2.6260   -6.6670   -0.2900 hc        1 LI1      0.034033
     68 H492        2.0510   -8.3360   -0.6890 hc        1 LI1      0.034033
     69 H493        3.7990   -8.0480   -0.3120 hc        1 LI1      0.034033
     70 H501        2.8890   -9.4990   -2.5300 hc        1 LI1      0.040200
     71 H502        4.5800   -8.9240   -2.7840 hc        1 LI1      0.040200
     72 H511        3.5670   -7.6340   -4.8850 hc        1 LI1      0.039200
     73 H512        3.9120   -9.4030   -4.9680 hc        1 LI1      0.039200
     74 H521        1.1500   -8.1740   -4.3000 hc        1 LI1      0.041200
     75 H522        1.5310   -9.9320   -4.4760 hc        1 LI1      0.041200
     76 H531        2.3410   -9.4430   -6.8630 hc        1 LI1      0.039200
     77 H532        1.7640   -7.7450   -6.6550 hc        1 LI1      0.039200
     78 H551       -0.5580   -8.6190   -6.1390 hc        1 LI1      0.040200
     79 H552        0.0350  -10.3040   -6.4050 hc        1 LI1      0.040200
     80 H561        0.6970   -9.7020   -8.7590 hc        1 LI1      0.040200
     81 H562        0.1220   -8.0120   -8.4870 hc        1 LI1      0.040200
     82 H571       -2.1900   -8.9290   -7.9360 hc        1 LI1      0.042200
     83 H572       -1.5830  -10.5900   -8.3070 hc        1 LI1      0.042200
     84 H58        -0.8940   -9.6780  -10.6390 hc        1 LI1      0.045700
     85 H591       -1.0300   -7.2450  -10.1270 hc        1 LI1      0.033533
     86 H592       -2.7960   -7.4010   -9.7510 hc        1 LI1      0.033533
     87 H593       -2.1980   -7.6950  -11.4360 hc        1 LI1      0.033533
     88 H601       -2.8480  -11.1650  -10.2390 hc        1 LI1      0.033533
     89 H602       -3.2380   -9.9210  -11.4970 hc        1 LI1      0.033533
     90 H603       -3.8800   -9.7360   -9.8110 hc        1 LI1      0.033533
     91 H111       -2.0750    0.1300    0.3040 h1        1 LI1      0.026200
     92 H112       -1.5840   -0.8500   -1.1590 h1        1 LI1      0.026200
     93 H121       -3.5490   -1.7910    0.2680 hc        1 LI1      0.050700
     94 H122       -2.3420   -2.0680    1.5950 hc        1 LI1      0.050700
     95 H13        -0.9500   -3.3650   -0.2180 hc        1 LI1      0.069700
     96 H141       -3.6290   -4.4470    0.9050 hc        1 LI1      0.033367
     97 H142       -2.0290   -4.4010    1.7540 hc        1 LI1      0.033367
     98 H143       -2.2530   -5.4600    0.3030 hc        1 LI1      0.033367
     99 H151       -3.7570   -3.7320   -1.4550 hc        1 LI1      0.036200
    100 H152       -2.5900   -2.5030   -2.0760 hc        1 LI1      0.036200
    101 H161       -2.0780   -5.5470   -1.8560 hc        1 LI1      0.042700
    102 H162       -0.8620   -4.3230   -2.3890 hc        1 LI1      0.042700
    103 H171       -3.6380   -4.6640   -3.7030 hc        1 LI1      0.039200
    104 H172       -2.2560   -3.6670   -4.3080 hc        1 LI1      0.039200
    105 H18        -2.3110   -6.7460   -3.9920 hc        1 LI1      0.048700
    106 H191       -0.1340   -6.5970   -5.3280 hc        1 LI1      0.034700
    107 H192       -0.0300   -5.9610   -3.6360 hc        1 LI1      0.034700
    108 H193       -0.1350   -4.8090   -5.0320 hc        1 LI1      0.034700
    109 H201       -2.2610   -4.9460   -6.5040 hc        1 LI1      0.038700
    110 H202       -2.1780   -6.7510   -6.4740 hc        1 LI1      0.038700
    111 H211       -4.4180   -5.9630   -7.0800 hc        1 LI1      0.038200
    112 H212       -4.5350   -4.9610   -5.5850 hc        1 LI1      0.038200
    113 H221       -5.8550   -6.9690   -5.3070 hc        1 LI1      0.039700
    114 H222       -4.4530   -7.0140   -4.1720 hc        1 LI1      0.039700
    115 H23        -3.2190   -8.5170   -5.7570 hc        1 LI1      0.045700
    116 H241       -4.6590  -10.5350   -5.2680 hc        1 LI1      0.033033
    117 H242       -4.4450   -9.4280   -3.8490 hc        1 LI1      0.033033
    118 H243       -6.0050   -9.4310   -4.7660 hc        1 LI1      0.033033
    119 H251       -4.4420   -9.7190   -7.5200 hc        1 LI1      0.039200
    120 H252       -4.2100   -7.9670   -7.8880 hc        1 LI1      0.039200
    121 H261       -6.8260   -9.1880   -6.7720 hc        1 LI1      0.043200
    122 H262       -6.5640   -7.4780   -7.3000 hc        1 LI1      0.043200
    123 H271       -6.2920  -10.0000   -9.0730 hc        1 LI1      0.037700
    124 H272       -5.9640   -8.3070   -9.6120 hc        1 LI1      0.037700
    125 H28        -8.1610   -9.1200  -10.3400 hc        1 LI1      0.041700
    126 H291       -8.9590   -9.2310   -7.3540 hc        1 LI1      0.033200
    127 H292       -8.5940  -10.6700   -8.3930 hc        1 LI1      0.033200
    128 H293       -9.9950   -9.5890   -8.7940 hc        1 LI1      0.033200
    129 H301       -9.5150   -7.2050   -9.6390 hc        1 LI1      0.033200
    130 H302       -8.4790   -6.9260   -8.1830 hc        1 LI1      0.033200
    131 H303       -7.7910   -6.6790   -9.8410 hc        1 LI1      0.033200
@<TRIPOS>BOND
     1    1    2 1   
     2    1    4 1   
     3    1   46 1   
     4    1   47 1   
     5    2    3 1   
     6    2    5 1   
     7    2   48 1   
     8    3    6 1   
     9    3   49 1   
    10    3   50 1   
    11    4   26 1   
    12    5    7 1   
    13    6   51 1   
    14    7    8 1   
    15    7   52 1   
    16    7   53 1   
    17    8    9 1   
    18    8   54 1   
    19    8   55 1   
    20    9   10 1   
    21    9   11 1   
    22    9   56 1   
    23   10   57 1   
    24   10   58 1   
    25   10   59 1   
    26   11   12 1   
    27   11   60 1   
    28   11   61 1   
    29   12   13 1   
    30   12   62 1   
    31   12   63 1   
    32   13   14 1   
    33   13   64 1   
    34   13   65 1   
    35   14   15 1   
    36   14   16 1   
    37   14   66 1   
    38   15   67 1   
    39   15   68 1   
    40   15   69 1   
    41   16   17 1   
    42   16   70 1   
    43   16   71 1   
    44   17   18 1   
    45   17   72 1   
    46   17   73 1   
    47   18   19 1   
    48   18   74 1   
    49   18   75 1   
    50   19   20 1   
    51   19   76 1   
    52   19   77 1   
    53   20   21 1   
    54   20   78 1   
    55   20   79 1   
    56   21   22 1   
    57   21   80 1   
    58   21   81 1   
    59   22   23 1   
    60   22   82 1   
    61   22   83 1   
    62   23   24 1   
    63   23   25 1   
    64   23   84 1   
    65   24   85 1   
    66   24   86 1   
    67   24   87 1   
    68   25   88 1   
    69   25   89 1   
    70   25   90 1   
    71   26   27 1   
    72   26   91 1   
    73   26   92 1   
    74   27   28 1   
    75   27   93 1   
    76   27   94 1   
    77   28   29 1   
    78   28   30 1   
    79   28   95 1   
    80   29   96 1   
    81   29   97 1   
    82   29   98 1   
    83   30   31 1   
    84   30   99 1   
    85   30  100 1   
    86   31   32 1   
    87   31  101 1   
    88   31  102 1   
    89   32   33 1   
    90   32  103 1   
    91   32  104 1   
    92   33   34 1   
    93   33   35 1   
    94   33  105 1   
    95   34  106 1   
    96   34  107 1   
    97   34  108 1   
    98   35   36 1   
    99   35  109 1   
   100   35  110 1   
   101   36   37 1   
   102   36  111 1   
   103   36  112 1   
   104   37   38 1   
   105   37  113 1   
   106   37  114 1   
   107   38   39 1   
   108   38   40 1   
   109   38  115 1   
   110   39  116 1   
   111   39  117 1   
   112   39  118 1   
   113   40   41 1   
   114   40  119 1   
   115   40  120 1   
   116   41   42 1   
   117   41  121 1   
   118   41  122 1   
   119   42   43 1   
   120   42  123 1   
   121   42  124 1   
   122   43   44 1   
   123   43   45 1   
   124   43  125 1   
   125   44  126 1   
   126   44  127 1   
   127   44  128 1   
   128   45  129 1   
   129   45  130 1   
   130   45  131 1   
@<TRIPOS>SUBSTRUCTURE
     1 LI1         1 TEMP              0 ****  ****    0 ROOT
