@<TRIPOS>MOLECULE
LI1
  131   130     1     0     0
SMALL
bcc


@<TRIPOS>ATOM
      1 C1         -1.8990   -6.4350   -1.5900 c3        1 LI1      0.127400
      2 C2         -1.0390   -6.9810   -0.4340 c3        1 LI1      0.141100
      3 C3         -1.8560   -7.9410    0.4000 c3        1 LI1      0.102400
      4 O1         -2.3330   -5.0870   -1.2780 os        1 LI1     -0.430600
      5 O2          0.0850   -7.6570   -0.9640 os        1 LI1     -0.431600
      6 O3         -2.1290   -7.3610    1.6540 oh        1 LI1     -0.607800
      7 C41         1.2380   -7.6300   -0.1130 c3        1 LI1      0.128400
      8 C42         2.5310   -7.9530   -0.9740 c3        1 LI1     -0.079400
      9 C43         3.7170   -8.0670   -0.0740 c3        1 LI1     -0.062700
     10 C44         3.3100   -8.7640    1.2280 c3        1 LI1     -0.092100
     11 C45         4.2550   -6.6750    0.2390 c3        1 LI1     -0.078400
     12 C46         5.7570   -6.7840    0.6750 c3        1 LI1     -0.079400
     13 C47         6.6080   -5.6720   -0.0670 c3        1 LI1     -0.074400
     14 C48         7.5870   -5.0340    0.9260 c3        1 LI1     -0.064700
     15 C49         8.0980   -6.1020    1.8970 c3        1 LI1     -0.089100
     16 C50         6.8900   -3.9620    1.6880 c3        1 LI1     -0.075400
     17 C51         7.8650   -2.7900    1.9360 c3        1 LI1     -0.078400
     18 C52         7.4470   -2.0330    3.2340 c3        1 LI1     -0.078400
     19 C53         7.5030   -0.4920    2.9820 c3        1 LI1     -0.079400
     20 C55         6.9780    0.2540    4.2350 c3        1 LI1     -0.079400
     21 C56         6.2590    1.5540    3.7980 c3        1 LI1     -0.079400
     22 C57         5.1740    1.9170    4.8370 c3        1 LI1     -0.075400
     23 C58         4.4510    3.1830    4.3940 c3        1 LI1     -0.067700
     24 C59         3.9990    3.9770    5.6370 c3        1 LI1     -0.089600
     25 C60         3.2110    2.8030    3.5460 c3        1 LI1     -0.089600
     26 C11        -3.1850   -4.5080   -2.2700 c3        1 LI1      0.132400
     27 C12        -3.4570   -3.0070   -1.9120 c3        1 LI1     -0.081400
     28 C13        -4.3040   -2.3520   -3.0290 c3        1 LI1     -0.063700
     29 C14        -5.6490   -2.0650   -2.5190 c3        1 LI1     -0.092100
     30 C15        -3.6330   -1.0390   -3.4810 c3        1 LI1     -0.076400
     31 C16        -4.7010    0.0840   -3.5850 c3        1 LI1     -0.079400
     32 C17        -4.0330    1.3930   -4.1340 c3        1 LI1     -0.076400
     33 C18        -4.9990    2.5520   -3.9930 c3        1 LI1     -0.065700
     34 C19        -5.9700    2.5330   -5.1310 c3        1 LI1     -0.090100
     35 C20        -4.2130    3.8860   -4.0090 c3        1 LI1     -0.077400
     36 C21        -4.7810    4.8580   -2.8850 c3        1 LI1     -0.079400
     37 C22        -4.5590    6.3820   -3.3310 c3        1 LI1     -0.077400
     38 C23        -4.0870    7.1990   -2.1350 c3        1 LI1     -0.065700
     39 C24        -2.7990    7.9350   -2.4960 c3        1 LI1     -0.090100
     40 C25        -5.1500    8.1970   -1.7580 c3        1 LI1     -0.076400
     41 C26        -4.7740    8.8660   -0.4790 c3        1 LI1     -0.079400
     42 C27        -6.0740    9.4380    0.2210 c3        1 LI1     -0.076400
     43 C28        -5.6700   10.4190    1.3300 c3        1 LI1     -0.067700
     44 C29        -6.5640   11.6850    1.2520 c3        1 LI1     -0.089600
     45 C30        -5.8510    9.7570    2.6740 c3        1 LI1     -0.089600
     46 H11        -1.3680   -6.4250   -2.4140 h1        1 LI1      0.041200
     47 H12        -2.6800   -7.0090   -1.7130 h1        1 LI1      0.041200
     48 H2         -0.7380   -6.2370    0.1260 h1        1 LI1      0.072700
     49 H31        -1.3460   -8.7810    0.5290 h1        1 LI1      0.040200
     50 H32        -2.7040   -8.1400   -0.0620 h1        1 LI1      0.040200
     51 HO3        -2.5470   -7.9640    2.1800 ho        1 LI1      0.401000
     52 H411        1.1390   -8.3050    0.5960 h1        1 LI1      0.042200
     53 H412        1.3280   -6.7270    0.2970 h1        1 LI1      0.042200
     54 H421        2.4020   -8.8060   -1.4550 hc        1 LI1      0.050700
     55 H422        2.6820   -7.2230   -1.6290 hc        1 LI1      0.050700
     56 H43         4.4240   -8.6000   -0.5260 hc        1 LI1      0.046700
     57 H441        4.1150   -9.0870    1.6930 hc        1 LI1      0.035033
     58 H442        2.8340   -8.1300    1.8010 hc        1 LI1      0.035033
     59 H443        2.7150   -9.5350    1.0200 hc        1 LI1      0.035033
     60 H451        4.1840   -6.1060   -0.5620 hc        1 LI1      0.041700
     61 H452        3.7410   -6.2850    0.9560 hc        1 LI1      0.041700
     62 H461        5.8250   -6.6560    1.6400 hc        1 LI1      0.041700
     63 H462        6.1000   -7.6680    0.4390 hc        1 LI1      0.041700
     64 H471        6.0030   -4.9780   -0.4250 hc        1 LI1      0.038700
     65 H472        7.1100   -6.0790   -0.8050 hc        1 LI1      0.038700
     66 H48         8.3610   -4.6400    0.4270 hc        1 LI1      0.043700
     67 H491        8.9020   -5.7650    2.3630 hc        1 LI1      0.033367
     68 H492        7.3940   -6.3080    2.5600 hc        1 LI1      0.033367
     69 H493        8.3270   -6.9220    1.3950 hc        1 LI1      0.033367
     70 H501        6.5860   -4.3170    2.5420 hc        1 LI1      0.041700
     71 H502        6.1200   -3.6430    1.1750 hc        1 LI1      0.041700
     72 H511        8.7780   -3.1400    2.0380 hc        1 LI1      0.039200
     73 H512        7.8340   -2.1710    1.1700 hc        1 LI1      0.039200
     74 H521        8.0540   -2.2650    3.9560 hc        1 LI1      0.038700
     75 H522        6.5240   -2.2910    3.4840 hc        1 LI1      0.038700
     76 H531        8.4220   -0.2240    2.8050 hc        1 LI1      0.040200
     77 H532        6.9450   -0.2680    2.2120 hc        1 LI1      0.040200
     78 H551        7.7280    0.4760    4.8200 hc        1 LI1      0.038700
     79 H552        6.3510   -0.3190    4.7140 hc        1 LI1      0.038700
     80 H561        6.9070    2.2790    3.7390 hc        1 LI1      0.039700
     81 H562        5.8380    1.4170    2.9170 hc        1 LI1      0.039700
     82 H571        4.5270    1.1770    4.9080 hc        1 LI1      0.039700
     83 H572        5.5950    2.0690    5.7090 hc        1 LI1      0.039700
     84 H58         5.0520    3.7290    3.8620 hc        1 LI1      0.045700
     85 H591        4.7760    4.4150    6.0440 hc        1 LI1      0.032700
     86 H592        3.5900    3.3600    6.2880 hc        1 LI1      0.032700
     87 H593        3.3450    4.6530    5.3720 hc        1 LI1      0.032700
     88 H601        2.8890    3.5930    3.0650 hc        1 LI1      0.032700
     89 H602        3.4580    2.1030    2.8990 hc        1 LI1      0.032700
     90 H603        2.4950    2.4650    4.1410 hc        1 LI1      0.032700
     91 H111       -2.7480   -4.5610   -3.1470 h1        1 LI1      0.028200
     92 H112       -4.0320   -4.9960   -2.2970 h1        1 LI1      0.028200
     93 H121       -3.9470   -2.9580   -1.0560 hc        1 LI1      0.054700
     94 H122       -2.6040   -2.5310   -1.8270 hc        1 LI1      0.054700
     95 H13        -4.3680   -2.9620   -3.7900 hc        1 LI1      0.048700
     96 H141       -6.0560   -2.8980   -2.1740 hc        1 LI1      0.034700
     97 H142       -5.5900   -1.4130   -1.8040 hc        1 LI1      0.034700
     98 H143       -6.2050   -1.7040   -3.2490 hc        1 LI1      0.034700
     99 H151       -2.9520   -0.7810   -2.8300 hc        1 LI1      0.041700
    100 H152       -3.2050   -1.1740   -4.3730 hc        1 LI1      0.041700
    101 H161       -5.0740    0.2560   -2.7110 hc        1 LI1      0.040200
    102 H162       -5.4210   -0.2010   -4.2000 hc        1 LI1      0.040200
    103 H171       -3.2200    1.5830   -3.6250 hc        1 LI1      0.041200
    104 H172       -3.8060    1.2710   -5.0800 hc        1 LI1      0.041200
    105 H18        -5.4800    2.4700   -3.1580 hc        1 LI1      0.047700
    106 H191       -6.4920    3.3640   -5.1290 hc        1 LI1      0.033367
    107 H192       -5.4750    2.4570   -5.9830 hc        1 LI1      0.033367
    108 H193       -6.5820    1.7560   -5.0330 hc        1 LI1      0.033367
    109 H201       -4.3090    4.3090   -4.8830 hc        1 LI1      0.040200
    110 H202       -3.2720    3.7070   -3.8380 hc        1 LI1      0.040200
    111 H211       -5.7440    4.6900   -2.7610 hc        1 LI1      0.040700
    112 H212       -4.3080    4.6930   -2.0400 hc        1 LI1      0.040700
    113 H221       -3.8910    6.4200   -4.0320 hc        1 LI1      0.040200
    114 H222       -5.3990    6.7490   -3.6630 hc        1 LI1      0.040200
    115 H23        -3.9180    6.6010   -1.3770 hc        1 LI1      0.047700
    116 H241       -2.1480    7.2950   -2.8680 hc        1 LI1      0.033033
    117 H242       -2.9920    8.6250   -3.1590 hc        1 LI1      0.033033
    118 H243       -2.4220    8.3540   -1.6860 hc        1 LI1      0.033033
    119 H251       -5.2310    8.8580   -2.4550 hc        1 LI1      0.040700
    120 H252       -5.9970    7.7390   -1.6460 hc        1 LI1      0.040700
    121 H261       -4.1570    9.5970   -0.6650 hc        1 LI1      0.039700
    122 H262       -4.3390    8.2140    0.1170 hc        1 LI1      0.039700
    123 H271       -6.6250    9.9040   -0.4420 hc        1 LI1      0.040200
    124 H272       -6.5880    8.6970    0.6120 hc        1 LI1      0.040200
    125 H28        -4.7420   10.6710    1.2150 hc        1 LI1      0.045700
    126 H291       -6.3460   12.1880    0.4420 hc        1 LI1      0.032867
    127 H292       -6.4030   12.2520    2.0440 hc        1 LI1      0.032867
    128 H293       -7.5060   11.4190    1.2270 hc        1 LI1      0.032867
    129 H301       -6.7140    9.2830    2.6920 hc        1 LI1      0.032867
    130 H302       -5.1250    9.1190    2.8230 hc        1 LI1      0.032867
    131 H303       -5.8380   10.4350    3.3750 hc        1 LI1      0.032867
@<TRIPOS>BOND
     1    1    2 1   
     2    1    4 1   
     3    1   46 1   
     4    1   47 1   
     5    2    3 1   
     6    2    5 1   
     7    2   48 1   
     8    3    6 1   
     9    3   49 1   
    10    3   50 1   
    11    4   26 1   
    12    5    7 1   
    13    6   51 1   
    14    7    8 1   
    15    7   52 1   
    16    7   53 1   
    17    8    9 1   
    18    8   54 1   
    19    8   55 1   
    20    9   10 1   
    21    9   11 1   
    22    9   56 1   
    23   10   57 1   
    24   10   58 1   
    25   10   59 1   
    26   11   12 1   
    27   11   60 1   
    28   11   61 1   
    29   12   13 1   
    30   12   62 1   
    31   12   63 1   
    32   13   14 1   
    33   13   64 1   
    34   13   65 1   
    35   14   15 1   
    36   14   16 1   
    37   14   66 1   
    38   15   67 1   
    39   15   68 1   
    40   15   69 1   
    41   16   17 1   
    42   16   70 1   
    43   16   71 1   
    44   17   18 1   
    45   17   72 1   
    46   17   73 1   
    47   18   19 1   
    48   18   74 1   
    49   18   75 1   
    50   19   20 1   
    51   19   76 1   
    52   19   77 1   
    53   20   21 1   
    54   20   78 1   
    55   20   79 1   
    56   21   22 1   
    57   21   80 1   
    58   21   81 1   
    59   22   23 1   
    60   22   82 1   
    61   22   83 1   
    62   23   24 1   
    63   23   25 1   
    64   23   84 1   
    65   24   85 1   
    66   24   86 1   
    67   24   87 1   
    68   25   88 1   
    69   25   89 1   
    70   25   90 1   
    71   26   27 1   
    72   26   91 1   
    73   26   92 1   
    74   27   28 1   
    75   27   93 1   
    76   27   94 1   
    77   28   29 1   
    78   28   30 1   
    79   28   95 1   
    80   29   96 1   
    81   29   97 1   
    82   29   98 1   
    83   30   31 1   
    84   30   99 1   
    85   30  100 1   
    86   31   32 1   
    87   31  101 1   
    88   31  102 1   
    89   32   33 1   
    90   32  103 1   
    91   32  104 1   
    92   33   34 1   
    93   33   35 1   
    94   33  105 1   
    95   34  106 1   
    96   34  107 1   
    97   34  108 1   
    98   35   36 1   
    99   35  109 1   
   100   35  110 1   
   101   36   37 1   
   102   36  111 1   
   103   36  112 1   
   104   37   38 1   
   105   37  113 1   
   106   37  114 1   
   107   38   39 1   
   108   38   40 1   
   109   38  115 1   
   110   39  116 1   
   111   39  117 1   
   112   39  118 1   
   113   40   41 1   
   114   40  119 1   
   115   40  120 1   
   116   41   42 1   
   117   41  121 1   
   118   41  122 1   
   119   42   43 1   
   120   42  123 1   
   121   42  124 1   
   122   43   44 1   
   123   43   45 1   
   124   43  125 1   
   125   44  126 1   
   126   44  127 1   
   127   44  128 1   
   128   45  129 1   
   129   45  130 1   
   130   45  131 1   
@<TRIPOS>SUBSTRUCTURE
     1 LI1         1 TEMP              0 ****  ****    0 ROOT
