@<TRIPOS>MOLECULE
LI2
   58    62     1     0     0
SMALL
bcc


@<TRIPOS>ATOM
      1 F1         -0.0880    0.2480   -0.2910 f         1 LI2     -0.137900
      2 C2          1.2550    0.4130   -0.2090 ca        1 LI2      0.149900
      3 C3          1.8720    0.4000    1.0530 ca        1 LI2     -0.208000
      4 C4          3.2670    0.5690    1.1630 ca        1 LI2      0.166600
      5 C5          4.0150    0.7600   -0.0260 ca        1 LI2     -0.129000
      6 C6          3.3840    0.7700   -1.2670 ca        1 LI2     -0.094600
      7 C7          2.0030    0.6000   -1.3820 ca        1 LI2     -0.181000
      8 C8          4.2350    0.9980   -2.4800 c         1 LI2      0.680700
      9 O9          5.1160    1.8790   -2.4810 o         1 LI2     -0.597100
     10 N10         3.9860    0.1580   -3.5510 ns        1 LI2     -0.461100
     11 C11         4.6160    0.1760   -4.8110 ca        1 LI2      0.034600
     12 C12         4.0730   -0.6610   -5.8350 ca        1 LI2     -0.155000
     13 C13         4.6210   -0.7160   -7.1030 ca        1 LI2     -0.118000
     14 C14         5.7420    0.0810   -7.3800 ca        1 LI2     -0.066200
     15 N15         6.5000    0.2450   -8.5420 na        1 LI2     -0.191400
     16 C17         7.5140    1.1690   -8.2780 cc        1 LI2     -0.098100
     17 C18         7.4300    1.6130   -6.9580 cd        1 LI2     -0.140400
     18 C19         8.3090    2.5680   -6.2700 c3        1 LI2     -0.002200
     19 C20         7.5660    3.8420   -5.8840 c3        1 LI2     -0.044100
     20 C21         8.2030    4.5180   -4.7220 ca        1 LI2     -0.043300
     21 C22         9.2270    5.4560   -4.9020 ca        1 LI2     -0.244300
     22 C23         9.7890    6.0670   -3.7680 ca        1 LI2      0.390200
     23 N24         9.3980    5.8030   -2.5060 nb        1 LI2     -0.672000
     24 C25         8.4100    4.9000   -2.3480 ca        1 LI2      0.390200
     25 C26         7.7830    4.2330   -3.4160 ca        1 LI2     -0.244300
     26 C27         6.3020    0.9290   -6.3560 ca        1 LI2     -0.069800
     27 C28         5.7420    0.9660   -5.0820 ca        1 LI2     -0.110000
     28 N29         3.9430    0.4680    2.4000 nh        1 LI2     -0.633000
     29 C30         3.1400    0.0880    3.5520 c3        1 LI2      0.148800
     30 C31         4.0000   -0.1550    4.8000 c3        1 LI2      0.123400
     31 O32         4.8520    0.9500    5.0740 os        1 LI2     -0.410600
     32 C33         5.6960    1.2580    3.9710 c3        1 LI2      0.123400
     33 C34         4.8860    1.5400    2.6990 c3        1 LI2      0.148800
     34 H3          1.2330    0.2610    1.9390 ha        1 LI2      0.154000
     35 H5          5.1080    0.9020    0.0070 ha        1 LI2      0.161000
     36 H7          1.4920    0.6320   -2.3540 ha        1 LI2      0.154000
     37 H10         3.2620   -0.5170   -3.4420 hn        1 LI2      0.320500
     38 H12         3.1920   -1.2850   -5.6180 ha        1 LI2      0.128000
     39 H13         4.1860   -1.3690   -7.8720 ha        1 LI2      0.134000
     40 H15         6.3440   -0.2150   -9.3970 hn        1 LI2      0.298700
     41 H17         8.2290    1.4460   -9.0550 h4        1 LI2      0.166000
     42 H191        9.1860    2.8290   -6.9200 hc        1 LI2      0.050700
     43 H192        8.7140    2.0800   -5.3400 hc        1 LI2      0.050700
     44 H201        7.5380    4.5390   -6.7640 hc        1 LI2      0.058700
     45 H202        6.5020    3.5870   -5.6260 hc        1 LI2      0.058700
     46 H22         9.5840    5.7140   -5.9070 ha        1 LI2      0.152500
     47 H23        10.5980    6.8120   -3.8730 h4        1 LI2      0.018600
     48 H25         8.1030    4.7010   -1.3060 h4        1 LI2      0.018600
     49 H26         6.9770    3.5080   -3.2220 ha        1 LI2      0.152500
     50 H28         6.1950    1.6180   -4.3180 ha        1 LI2      0.173000
     51 H301        2.5990   -0.8680    3.3060 h1        1 LI2      0.051950
     52 H302        2.3740    0.8800    3.7980 h1        1 LI2      0.051950
     53 H311        3.3440   -0.2350    5.7050 h1        1 LI2      0.059200
     54 H312        4.6150   -1.0860    4.6820 h1        1 LI2      0.059200
     55 H331        6.2440    2.1850    4.2860 h1        1 LI2      0.059200
     56 H332        6.4200    0.4170    3.8030 h1        1 LI2      0.059200
     57 H341        5.6050    1.6460    1.8410 h1        1 LI2      0.051950
     58 H342        4.3450    2.5220    2.8280 h1        1 LI2      0.051950
@<TRIPOS>BOND
     1    1    2 1   
     2    2    3 ar  
     3    2    7 ar  
     4    3    4 ar  
     5    3   34 1   
     6    4    5 ar  
     7    4   28 1   
     8    5    6 ar  
     9    5   35 1   
    10    6    7 ar  
    11    6    8 1   
    12    7   36 1   
    13    8    9 2   
    14    8   10 1   
    15   10   11 1   
    16   10   37 1   
    17   11   12 ar  
    18   11   27 ar  
    19   12   13 ar  
    20   12   38 1   
    21   13   14 ar  
    22   13   39 1   
    23   14   15 1   
    24   14   26 ar  
    25   15   16 1   
    26   15   40 1   
    27   16   17 2   
    28   16   41 1   
    29   17   18 1   
    30   17   26 1   
    31   18   19 1   
    32   18   42 1   
    33   18   43 1   
    34   19   20 1   
    35   19   44 1   
    36   19   45 1   
    37   20   21 ar  
    38   20   25 ar  
    39   21   22 ar  
    40   21   46 1   
    41   22   23 ar  
    42   22   47 1   
    43   23   24 ar  
    44   24   25 ar  
    45   24   48 1   
    46   25   49 1   
    47   26   27 ar  
    48   27   50 1   
    49   28   29 1   
    50   28   33 1   
    51   29   30 1   
    52   29   51 1   
    53   29   52 1   
    54   30   31 1   
    55   30   53 1   
    56   30   54 1   
    57   31   32 1   
    58   32   33 1   
    59   32   55 1   
    60   32   56 1   
    61   33   57 1   
    62   33   58 1   
@<TRIPOS>SUBSTRUCTURE
     1 LI2         1 TEMP              0 ****  ****    0 ROOT
