@<TRIPOS>MOLECULE
LI2
   58    62     1     0     0
SMALL
bcc


@<TRIPOS>ATOM
      1 F1         -0.0950    0.2780   -0.2990 f         1 LI2     -0.137900
      2 C2          1.2490    0.4340   -0.2140 ca        1 LI2      0.149900
      3 C3          1.8630    0.4160    1.0490 ca        1 LI2     -0.208000
      4 C4          3.2590    0.5760    1.1610 ca        1 LI2      0.166600
      5 C5          4.0100    0.7640   -0.0270 ca        1 LI2     -0.129000
      6 C6          3.3810    0.7790   -1.2680 ca        1 LI2     -0.094600
      7 C7          2.0000    0.6180   -1.3860 ca        1 LI2     -0.181000
      8 C8          4.2360    1.0020   -2.4800 c         1 LI2      0.680700
      9 O9          5.1210    1.8790   -2.4790 o         1 LI2     -0.597100
     10 N10         3.9840    0.1650   -3.5520 n         1 LI2     -0.461100
     11 C11         4.6160    0.1800   -4.8110 ca        1 LI2      0.034600
     12 C12         4.0720   -0.6560   -5.8350 ca        1 LI2     -0.155000
     13 C13         4.6220   -0.7150   -7.1020 ca        1 LI2     -0.118000
     14 C14         5.7450    0.0790   -7.3780 ca        1 LI2     -0.066200
     15 N15         6.5060    0.2390   -8.5390 na        1 LI2     -0.191400
     16 C17         7.5220    1.1610   -8.2740 cc        1 LI2     -0.098100
     17 C18         7.4370    1.6070   -6.9550 cd        1 LI2     -0.140400
     18 C19         8.3170    2.5610   -6.2670 c3        1 LI2     -0.002200
     19 C20         7.5770    3.8370   -5.8840 c3        1 LI2     -0.044100
     20 C21         8.2150    4.5130   -4.7220 ca        1 LI2     -0.043300
     21 C22         9.2390    5.4510   -4.9020 ca        1 LI2     -0.244300
     22 C23         9.8010    6.0630   -3.7690 ca        1 LI2      0.390200
     23 N24         9.4100    5.7990   -2.5070 nb        1 LI2     -0.672000
     24 C25         8.4220    4.8960   -2.3490 ca        1 LI2      0.390200
     25 C26         7.7950    4.2290   -3.4150 ca        1 LI2     -0.244300
     26 C27         6.3060    0.9270   -6.3540 ca        1 LI2     -0.069800
     27 C28         5.7440    0.9670   -5.0810 ca        1 LI2     -0.110000
     28 N29         3.9330    0.4690    2.3990 nh        1 LI2     -0.633000
     29 C30         3.1250    0.0920    3.5490 c3        1 LI2      0.148800
     30 C31         3.9820   -0.1570    4.7980 c3        1 LI2      0.123400
     31 O32         4.8410    0.9420    5.0750 os        1 LI2     -0.410600
     32 C33         5.6880    1.2460    3.9740 c3        1 LI2      0.123400
     33 C34         4.8810    1.5340    2.7010 c3        1 LI2      0.148800
     34 H3          1.2220    0.2800    1.9330 ha        1 LI2      0.154000
     35 H5          5.1040    0.8990    0.0080 ha        1 LI2      0.161000
     36 H7          1.4910    0.6540   -2.3590 ha        1 LI2      0.154000
     37 H10         3.2550   -0.5060   -3.4440 hn        1 LI2      0.320500
     38 H12         3.1890   -1.2780   -5.6180 ha        1 LI2      0.128000
     39 H13         4.1860   -1.3680   -7.8700 ha        1 LI2      0.134000
     40 H15         6.3500   -0.2210   -9.3940 hn        1 LI2      0.298700
     41 H17         8.2390    1.4350   -9.0500 h4        1 LI2      0.166000
     42 H191        9.1960    2.8180   -6.9150 hc        1 LI2      0.050700
     43 H192        8.7190    2.0720   -5.3360 hc        1 LI2      0.050700
     44 H201        6.5120    3.5850   -5.6270 hc        1 LI2      0.058700
     45 H202        7.5520    4.5320   -6.7640 hc        1 LI2      0.058700
     46 H22         9.5960    5.7080   -5.9080 ha        1 LI2      0.152500
     47 H23        10.6110    6.8070   -3.8740 h4        1 LI2      0.018600
     48 H25         8.1150    4.6980   -1.3060 h4        1 LI2      0.018600
     49 H26         6.9880    3.5040   -3.2210 ha        1 LI2      0.152500
     50 H28         6.1980    1.6190   -4.3170 ha        1 LI2      0.173000
     51 H301        2.3630    0.8890    3.7950 h1        1 LI2      0.051950
     52 H302        2.5780   -0.8600    3.3010 h1        1 LI2      0.051950
     53 H311        3.3230   -0.2350    5.7020 h1        1 LI2      0.059200
     54 H312        4.5910   -1.0920    4.6800 h1        1 LI2      0.059200
     55 H331        6.2410    2.1680    4.2910 h1        1 LI2      0.059200
     56 H332        6.4060    0.4010    3.8060 h1        1 LI2      0.059200
     57 H341        5.6030    1.6370    1.8440 h1        1 LI2      0.051950
     58 H342        4.3470    2.5200    2.8310 h1        1 LI2      0.051950
@<TRIPOS>BOND
     1    1    2 1   
     2    2    3 ar  
     3    2    7 ar  
     4    3    4 ar  
     5    3   34 1   
     6    4    5 ar  
     7    4   28 1   
     8    5    6 ar  
     9    5   35 1   
    10    6    7 ar  
    11    6    8 1   
    12    7   36 1   
    13    8    9 2   
    14    8   10 1   
    15   10   11 1   
    16   10   37 1   
    17   11   12 ar  
    18   11   27 ar  
    19   12   13 ar  
    20   12   38 1   
    21   13   14 ar  
    22   13   39 1   
    23   14   15 1   
    24   14   26 ar  
    25   15   16 1   
    26   15   40 1   
    27   16   17 2   
    28   16   41 1   
    29   17   18 1   
    30   17   26 1   
    31   18   19 1   
    32   18   42 1   
    33   18   43 1   
    34   19   20 1   
    35   19   44 1   
    36   19   45 1   
    37   20   21 ar  
    38   20   25 ar  
    39   21   22 ar  
    40   21   46 1   
    41   22   23 ar  
    42   22   47 1   
    43   23   24 ar  
    44   24   25 ar  
    45   24   48 1   
    46   25   49 1   
    47   26   27 ar  
    48   27   50 1   
    49   28   29 1   
    50   28   33 1   
    51   29   30 1   
    52   29   51 1   
    53   29   52 1   
    54   30   31 1   
    55   30   53 1   
    56   30   54 1   
    57   31   32 1   
    58   32   33 1   
    59   32   55 1   
    60   32   56 1   
    61   33   57 1   
    62   33   58 1   
@<TRIPOS>SUBSTRUCTURE
     1 LI2         1 TEMP              0 ****  ****    0 ROOT
