@<TRIPOS>MOLECULE
LI2
   59    63     1     0     0
SMALL
bcc


@<TRIPOS>ATOM
      1 F1         -0.5170   -0.4530   -0.0560 f         1 LI2     -0.113900
      2 C2          0.7630   -0.0220    0.0210 ca        1 LI2      0.190900
      3 C3          1.6110   -0.5530    1.0030 ca        1 LI2     -0.196000
      4 C4          2.9570   -0.1200    1.1090 ca        1 LI2      0.217600
      5 C5          3.3940    0.8910    0.2060 ca        1 LI2     -0.148000
      6 C6          2.5340    1.3900   -0.7710 ca        1 LI2     -0.112600
      7 C7          1.2120    0.9550   -0.8850 ca        1 LI2     -0.215000
      8 C8          3.0650    2.4370   -1.6550 c         1 LI2      0.579700
      9 O9          3.7900    3.3800   -1.3790 o         1 LI2     -0.420100
     10 N10         2.6720    2.3330   -3.1230 n4        1 LI2     -0.535200
     11 C11         3.6850    1.6130   -3.9000 ca        1 LI2     -0.103400
     12 C12         3.3970    0.2980   -4.3500 ca        1 LI2     -0.100000
     13 C13         4.3150   -0.4050   -5.1060 ca        1 LI2     -0.111000
     14 C14         5.5410    0.2120   -5.4150 ca        1 LI2     -0.013200
     15 N15         6.6320   -0.2370   -6.1420 na        1 LI2     -0.163400
     16 C17         7.6060    0.7680   -6.1530 cc        1 LI2     -0.077100
     17 C18         7.1620    1.8810   -5.4350 cd        1 LI2     -0.113400
     18 C19         7.8910    3.1320   -5.1860 c3        1 LI2     -0.014200
     19 C20         8.5130    3.7050   -6.4510 c3        1 LI2     -0.036100
     20 C21         9.2480    4.9660   -6.1670 ca        1 LI2     -0.054300
     21 C22        10.4380    4.9500   -5.4260 ca        1 LI2     -0.246800
     22 C23        11.1030    6.1660   -5.1910 ca        1 LI2      0.401700
     23 N24        10.6600    7.3560   -5.6420 nb        1 LI2     -0.653000
     24 C25         9.5190    7.3570   -6.3570 ca        1 LI2      0.401700
     25 C26         8.7800    6.1950   -6.6450 ca        1 LI2     -0.246800
     26 C27         5.8370    1.5570   -4.9470 ca        1 LI2     -0.090800
     27 C28         4.9010    2.2480   -4.1890 ca        1 LI2     -0.034000
     28 N29         3.8400   -0.7120    2.0110 nh        1 LI2     -0.633000
     29 C30         3.2630   -1.5180    3.0750 c3        1 LI2      0.156800
     30 C31         4.2930   -2.1610    4.0120 c3        1 LI2      0.118900
     31 O32         5.2870   -1.2330    4.4180 os        1 LI2     -0.390600
     32 C33         5.9950   -0.7180    3.3020 c3        1 LI2      0.118900
     33 C34         5.0650    0.0070    2.3200 c3        1 LI2      0.156800
     34 H3          1.1890   -1.3060    1.6880 ha        1 LI2      0.176000
     35 H5          4.4150    1.3020    0.2660 ha        1 LI2      0.164000
     36 H7          0.4980    1.3740   -1.6070 ha        1 LI2      0.146000
     37 H10         1.7740    1.8440   -3.2080 hn        1 LI2      0.459300
     38 H12         2.4350   -0.1800   -4.1030 ha        1 LI2      0.149000
     39 H13         4.0880   -1.4230   -5.4570 ha        1 LI2      0.165000
     40 H15         6.7060   -1.1170   -6.5870 hn        1 LI2      0.321700
     41 H17         8.5540    0.6170   -6.6780 h4        1 LI2      0.193000
     42 H191        8.7040    2.9460   -4.4290 hc        1 LI2      0.059200
     43 H192        7.1940    3.8920   -4.7400 hc        1 LI2      0.059200
     44 H201        7.7090    3.8900   -7.2120 hc        1 LI2      0.056200
     45 H202        9.2230    2.9540   -6.8910 hc        1 LI2      0.056200
     46 H22        10.8490    4.0090   -5.0400 ha        1 LI2      0.141500
     47 H23        12.0440    6.1930   -4.6130 h4        1 LI2      0.029100
     48 H25         9.1810    8.3450   -6.7210 h4        1 LI2      0.029100
     49 H26         7.8590    6.2590   -7.2400 ha        1 LI2      0.141500
     50 H28         5.1270    3.2650   -3.8270 ha        1 LI2      0.165000
     51 H301        2.6780   -2.3580    2.6010 h1        1 LI2      0.056700
     52 H302        2.5550   -0.8920    3.6930 h1        1 LI2      0.056700
     53 H311        3.7910   -2.4750    4.9650 h1        1 LI2      0.070450
     54 H312        4.7760   -3.0460    3.5190 h1        1 LI2      0.070450
     55 H331        6.7240    0.0140    3.7400 h1        1 LI2      0.070450
     56 H332        6.5450   -1.5470    2.7820 h1        1 LI2      0.070450
     57 H341        5.6440    0.1450    1.3620 h1        1 LI2      0.056700
     58 H342        4.8200    1.0250    2.7400 h1        1 LI2      0.056700
     59 H102        2.5810    3.2810   -3.5130 hn        1 LI2      0.459300
@<TRIPOS>BOND
     1    1    2 1   
     2    2    3 ar  
     3    2    7 ar  
     4    3    4 ar  
     5    3   34 1   
     6    4    5 ar  
     7    4   28 1   
     8    5    6 ar  
     9    5   35 1   
    10    6    7 ar  
    11    6    8 1   
    12    7   36 1   
    13    8    9 2   
    14    8   10 1   
    15   10   11 1   
    16   10   37 1   
    17   10   59 1   
    18   11   12 ar  
    19   11   27 ar  
    20   12   13 ar  
    21   12   38 1   
    22   13   14 ar  
    23   13   39 1   
    24   14   15 1   
    25   14   26 ar  
    26   15   16 1   
    27   15   40 1   
    28   16   17 2   
    29   16   41 1   
    30   17   18 1   
    31   17   26 1   
    32   18   19 1   
    33   18   42 1   
    34   18   43 1   
    35   19   20 1   
    36   19   44 1   
    37   19   45 1   
    38   20   21 ar  
    39   20   25 ar  
    40   21   22 ar  
    41   21   46 1   
    42   22   23 ar  
    43   22   47 1   
    44   23   24 ar  
    45   24   25 ar  
    46   24   48 1   
    47   25   49 1   
    48   26   27 ar  
    49   27   50 1   
    50   28   29 1   
    51   28   33 1   
    52   29   30 1   
    53   29   51 1   
    54   29   52 1   
    55   30   31 1   
    56   30   53 1   
    57   30   54 1   
    58   31   32 1   
    59   32   33 1   
    60   32   55 1   
    61   32   56 1   
    62   33   57 1   
    63   33   58 1   
@<TRIPOS>SUBSTRUCTURE
     1 LI2         1 TEMP              0 ****  ****    0 ROOT
