@<TRIPOS>MOLECULE
LI2
   58    62     1     0     0
SMALL
bcc


@<TRIPOS>ATOM
      1 F1          2.4320   -2.9580    4.4820 f         1 LI2     -0.137900
      2 C2          1.6440   -1.9740    3.9850 ca        1 LI2      0.148900
      3 C3          0.7710   -1.2920    4.8490 ca        1 LI2     -0.208000
      4 C4         -0.0580   -0.2650    4.3540 ca        1 LI2      0.165600
      5 C5          0.0100    0.0450    2.9730 ca        1 LI2     -0.129000
      6 C6          0.8820   -0.6440    2.1340 ca        1 LI2     -0.095600
      7 C7          1.7070   -1.6590    2.6180 ca        1 LI2     -0.180000
      8 C8          0.8850   -0.2740    0.6810 c         1 LI2      0.678700
      9 O9         -0.1840   -0.0790    0.0730 o         1 LI2     -0.590100
     10 N10         2.1340   -0.1610    0.0940 n         1 LI2     -0.462100
     11 C11         2.4220    0.2020   -1.2360 ca        1 LI2      0.035600
     12 C12         3.7890    0.4510   -1.5680 ca        1 LI2     -0.156000
     13 C13         4.1810    0.7980   -2.8460 ca        1 LI2     -0.118000
     14 C14         3.1950    0.9080   -3.8370 ca        1 LI2     -0.067200
     15 N15         3.2800    1.2350   -5.1930 na        1 LI2     -0.191400
     16 C17         1.9910    1.2090   -5.7310 cc        1 LI2     -0.098100
     17 C18         1.0640    0.8600   -4.7470 cd        1 LI2     -0.141400
     18 C19        -0.3910    0.7390   -4.9040 c3        1 LI2     -0.002200
     19 C20        -0.8490   -0.7110   -4.8280 c3        1 LI2     -0.043100
     20 C21        -2.3310   -0.8080   -4.7470 ca        1 LI2     -0.040300
     21 C22        -3.0950   -1.1890   -5.8570 ca        1 LI2     -0.245300
     22 C23        -4.4920   -1.2710   -5.7180 ca        1 LI2      0.392200
     23 N24        -5.1450   -1.0020   -4.5710 nb        1 LI2     -0.670000
     24 C25        -4.3980   -0.6390   -3.5100 ca        1 LI2      0.392200
     25 C26        -2.9970   -0.5280   -3.5460 ca        1 LI2     -0.245300
     26 C27         1.8090    0.6610   -3.5190 ca        1 LI2     -0.067800
     27 C28         1.4330    0.3080   -2.2250 ca        1 LI2     -0.109000
     28 N29        -0.8810    0.5130    5.2010 nh        1 LI2     -0.633000
     29 C30        -0.7640    0.2650    6.6300 c3        1 LI2      0.148800
     30 C31        -1.5730    1.2730    7.4580 c3        1 LI2      0.123400
     31 O32        -2.9260    1.3400    7.0280 os        1 LI2     -0.410600
     32 C33        -3.0310    1.6690    5.6480 c3        1 LI2      0.123400
     33 C34        -2.2640    0.6740    4.7680 c3        1 LI2      0.148800
     34 H3          0.7560   -1.5900    5.9090 ha        1 LI2      0.154000
     35 H5         -0.6220    0.8360    2.5360 ha        1 LI2      0.161000
     36 H7          2.3800   -2.2270    1.9590 ha        1 LI2      0.155000
     37 H10         2.9250   -0.2850    0.6860 hn        1 LI2      0.319500
     38 H12         4.5630    0.3670   -0.7880 ha        1 LI2      0.128000
     39 H13         5.2400    0.9840   -3.0760 ha        1 LI2      0.134000
     40 H15         4.1030    1.4780   -5.6730 hn        1 LI2      0.298700
     41 H17         1.8240    1.4430   -6.7840 h4        1 LI2      0.166000
     42 H191       -0.8990    1.3260   -4.0890 hc        1 LI2      0.051700
     43 H192       -0.7110    1.1800   -5.8860 hc        1 LI2      0.051700
     44 H201       -0.4720   -1.2700   -5.7250 hc        1 LI2      0.058200
     45 H202       -0.3960   -1.1900   -3.9180 hc        1 LI2      0.058200
     46 H22        -2.6180   -1.4220   -6.8170 ha        1 LI2      0.147000
     47 H23        -5.1260   -1.5680   -6.5720 h4        1 LI2      0.019600
     48 H25        -4.9550   -0.4270   -2.5810 h4        1 LI2      0.019600
     49 H26        -2.4360   -0.2310   -2.6490 ha        1 LI2      0.147000
     50 H28         0.3680    0.1260   -2.0060 ha        1 LI2      0.173000
     51 H301       -1.1140   -0.7750    6.8960 h1        1 LI2      0.051950
     52 H302        0.3200    0.3610    6.9180 h1        1 LI2      0.051950
     53 H311       -1.6320    0.9290    8.5240 h1        1 LI2      0.058700
     54 H312       -1.1080    2.2930    7.4040 h1        1 LI2      0.058700
     55 H331       -4.1290    1.6050    5.4270 h1        1 LI2      0.058700
     56 H332       -2.6620    2.7150    5.4810 h1        1 LI2      0.058700
     57 H341       -2.2760    1.0580    3.7110 h1        1 LI2      0.051950
     58 H342       -2.8070   -0.3160    4.7890 h1        1 LI2      0.051950
@<TRIPOS>BOND
     1    1    2 1   
     2    2    3 ar  
     3    2    7 ar  
     4    3    4 ar  
     5    3   34 1   
     6    4    5 ar  
     7    4   28 1   
     8    5    6 ar  
     9    5   35 1   
    10    6    7 ar  
    11    6    8 1   
    12    7   36 1   
    13    8    9 2   
    14    8   10 1   
    15   10   11 1   
    16   10   37 1   
    17   11   12 ar  
    18   11   27 ar  
    19   12   13 ar  
    20   12   38 1   
    21   13   14 ar  
    22   13   39 1   
    23   14   15 1   
    24   14   26 ar  
    25   15   16 1   
    26   15   40 1   
    27   16   17 2   
    28   16   41 1   
    29   17   18 1   
    30   17   26 1   
    31   18   19 1   
    32   18   42 1   
    33   18   43 1   
    34   19   20 1   
    35   19   44 1   
    36   19   45 1   
    37   20   21 ar  
    38   20   25 ar  
    39   21   22 ar  
    40   21   46 1   
    41   22   23 ar  
    42   22   47 1   
    43   23   24 ar  
    44   24   25 ar  
    45   24   48 1   
    46   25   49 1   
    47   26   27 ar  
    48   27   50 1   
    49   28   29 1   
    50   28   33 1   
    51   29   30 1   
    52   29   51 1   
    53   29   52 1   
    54   30   31 1   
    55   30   53 1   
    56   30   54 1   
    57   31   32 1   
    58   32   33 1   
    59   32   55 1   
    60   32   56 1   
    61   33   57 1   
    62   33   58 1   
@<TRIPOS>SUBSTRUCTURE
     1 LI2         1 TEMP              0 ****  ****    0 ROOT
