@<TRIPOS>MOLECULE
LI2
   58    52     1     0     0
SMALL
bcc


@<TRIPOS>ATOM
      1 F1         -3.8230    1.8840    4.0700 f         1 LI2     -0.103000
      2 C2         -3.5600    0.7350    3.4310 c2        1 LI2      0.120000
      3 C3         -3.9700   -0.4750    3.9800 c2        1 LI2     -0.216000
      4 C4         -3.7100   -1.6620    3.3130 c1        1 LI2      0.098000
      5 C5         -3.0410   -1.6420    2.0960 c1        1 LI2     -0.146000
      6 C6         -2.6320   -0.4320    1.5470 c1        1 LI2     -0.068000
      7 C7         -2.8910    0.7540    2.2140 c1        1 LI2     -0.187000
      8 C8         -1.9330   -0.4070    0.1880 c2        1 LI2      0.351000
      9 O9         -1.7370   -1.4460   -0.4120 o         1 LI2     -0.348000
     10 N10        -1.3950    0.8250   -0.3170 n         1 LI2     -0.318000
     11 C11        -0.6290    0.8290   -1.5240 c2        1 LI2      0.049000
     12 C12        -1.3130    0.1580   -2.5290 c2        1 LI2     -0.127000
     13 C13        -0.7510    0.0420   -3.7940 c1        1 LI2     -0.123000
     14 C14         0.5120    0.6050   -4.0580 c1        1 LI2     -0.020000
     15 N15         1.3100    0.6020   -5.1940 n1        1 LI2     -0.213000
     16 C17         2.4720    1.2620   -4.8980 c1        1 LI2     -0.070000
     17 C18         2.4050    1.6790   -3.5780 c1        1 LI2     -0.157000
     18 C19         3.7060    2.0240   -2.8600 c2        1 LI2     -0.083000
     19 C20         4.5560    2.9110   -3.7510 c3        1 LI2     -0.129000
     20 C21         6.0240    2.6790   -3.4450 c2        1 LI2     -0.032000
     21 C22         6.7900    3.7010   -2.9650 c2        1 LI2     -0.181000
     22 C23         8.1540    3.5200   -2.7850 c1        1 LI2     -0.071000
     23 N24         8.7290    2.3220   -3.0880 n1        1 LI2     -0.142000
     24 C25         7.9660    1.3010   -3.5670 c1        1 LI2     -0.071000
     25 C26         6.6010    1.4800   -3.7480 c1        1 LI2     -0.183000
     26 C27         1.1890    1.2690   -3.0640 c1        1 LI2     -0.052000
     27 C28         0.6200    1.3860   -1.7840 c1        1 LI2     -0.140000
     28 N29        -4.0300   -2.9140    3.9330 n3        1 LI2     -0.248000
     29 C30        -3.4990   -2.9200    5.3780 c3        1 LI2     -0.079000
     30 C31        -3.9080   -4.1600    6.1460 c3        1 LI2     -0.033000
     31 O32        -4.9010   -4.7270    5.6070 os        1 LI2     -0.275000
     32 C33        -5.9120   -4.1700    5.0940 c3        1 LI2     -0.033000
     33 C34        -5.5220   -2.9310    4.3170 c3        1 LI2     -0.079000
     34 H3         -4.4400   -0.4880    4.8350 ha        1 LI2      0.153000
     35 H5         -2.8580   -2.4770    1.6260 ha        1 LI2      0.161000
     36 H7         -2.6040    1.6040    1.8290 ha        1 LI2      0.155000
     37 H10        -1.5540    1.6090    0.1270 hn        1 LI2      0.233000
     38 H12        -2.1870   -0.2350   -2.3450 ha        1 LI2      0.170000
     39 H13        -1.2310   -0.4290   -4.4990 ha        1 LI2      0.137000
     40 H15         1.0970    0.2260   -5.9980 DU        1 LI2      0.207500
     41 H17         3.2170    1.4170   -5.5120 DU        1 LI2      0.207500
     42 H191        3.5040    2.4960   -2.0270 ha        1 LI2      0.089500
     43 H192        4.1950    1.2010   -2.6590 ha        1 LI2      0.089500
     44 H201        4.3810    2.6960   -4.6860 hc        1 LI2      0.094500
     45 H202        4.3330    3.8510   -3.5850 hc        1 LI2      0.094500
     46 H22         6.3770    4.5610   -2.7480 ha        1 LI2      0.143000
     47 H23         8.7020    4.2530   -2.4410 ha        1 LI2      0.158000
     48 H25         8.3790    0.4440   -3.7840 ha        1 LI2      0.158000
     49 H26         6.0550    0.7490   -4.0910 ha        1 LI2      0.142000
     50 H28         1.0850    1.8860   -1.0880 ha        1 LI2      0.134000
     51 H301       -2.5240   -2.8710    5.3550 h1        1 LI2      0.098750
     52 H302       -3.8440   -2.1330    5.8430 h1        1 LI2      0.098750
     53 H311       -3.1550   -4.7860    6.1680 h1        1 LI2      0.096000
     54 H312       -4.1420   -3.9060    7.0640 h1        1 LI2      0.096000
     55 H331       -6.3530   -4.8010    4.4900 h1        1 LI2      0.096000
     56 H332       -6.5370   -3.9180    5.8080 h1        1 LI2      0.096000
     57 H341       -5.7160   -2.1430    4.8630 h1        1 LI2      0.098750
     58 H342       -6.0570   -2.8890    3.5030 h1        1 LI2      0.098750
@<TRIPOS>BOND
     1    1    2 1   
     2    2    3 1   
     3    2    7 1   
     4    3    4 1   
     5    3   34 1   
     6    4   28 1   
     7    5    6 1   
     8    5   35 1   
     9    6    8 1   
    10    7   36 1   
    11    8    9 1   
    12    8   10 1   
    13   10   11 1   
    14   10   37 1   
    15   11   12 1   
    16   11   27 1   
    17   12   13 1   
    18   12   38 1   
    19   13   39 1   
    20   14   26 1   
    21   15   16 1   
    22   16   17 1   
    23   17   26 1   
    24   18   19 1   
    25   18   42 1   
    26   18   43 1   
    27   19   20 1   
    28   19   44 1   
    29   19   45 1   
    30   20   21 1   
    31   20   25 1   
    32   21   22 1   
    33   21   46 1   
    34   22   47 1   
    35   23   24 1   
    36   24   48 1   
    37   25   49 1   
    38   27   50 1   
    39   28   29 1   
    40   28   33 1   
    41   29   30 1   
    42   29   51 1   
    43   29   52 1   
    44   30   31 1   
    45   30   53 1   
    46   30   54 1   
    47   31   32 1   
    48   32   33 1   
    49   32   55 1   
    50   32   56 1   
    51   33   57 1   
    52   33   58 1   
@<TRIPOS>SUBSTRUCTURE
     1 LI2         1 TEMP              0 ****  ****    0 ROOT
