@<TRIPOS>MOLECULE
LI3
   43    46     1     0     0
SMALL
bcc


@<TRIPOS>ATOM
      1 F1         -3.8090    1.0940    2.3880 f         1 LI3     -0.138900
      2 C2         -2.5040    0.7970    2.1700 ca        1 LI3      0.147900
      3 C3         -1.6850    0.4680    3.2630 ca        1 LI3     -0.209000
      4 C4         -0.3250    0.1560    3.0590 ca        1 LI3      0.164600
      5 C5          0.1830    0.1960    1.7370 ca        1 LI3     -0.129000
      6 C6         -0.6470    0.5260    0.6690 ca        1 LI3     -0.095600
      7 C7         -1.9950    0.8330    0.8630 ca        1 LI3     -0.179000
      8 C8         -0.0350    0.5670   -0.6990 c         1 LI3      0.675700
      9 O9          1.0820    1.0880   -0.8800 o         1 LI3     -0.586100
     10 N10        -0.7840   -0.0100   -1.7100 n         1 LI3     -0.462100
     11 C11        -0.4210   -0.1470   -3.0640 ca        1 LI3      0.031600
     12 C12        -1.1980   -1.0390   -3.8660 ca        1 LI3     -0.156000
     13 C13        -0.9410   -1.2280   -5.2100 ca        1 LI3     -0.120000
     14 C14         0.1220   -0.5190   -5.7880 ca        1 LI3     -0.068200
     15 N15         0.6170   -0.4990   -7.0940 na        1 LI3     -0.194400
     16 C17         1.6990    0.3850   -7.1380 cc        1 LI3     -0.106100
     17 C18         1.9140    0.9440   -5.8810 cd        1 LI3     -0.187200
     18 C19         0.9190    0.3850   -4.9920 ca        1 LI3     -0.073800
     19 C20         0.6410    0.5670   -3.6390 ca        1 LI3     -0.103000
     20 N21         0.5160   -0.2730    4.1130 nh        1 LI3     -0.633000
     21 C22        -0.1150   -0.4700    5.4090 c3        1 LI3      0.148800
     22 C23         0.8490   -1.0910    6.4300 c3        1 LI3      0.123400
     23 O24         2.0620   -0.3560    6.5240 os        1 LI3     -0.411600
     24 C25         2.7140   -0.2420    5.2650 c3        1 LI3      0.123400
     25 C26         1.8040    0.4020    4.2100 c3        1 LI3      0.148800
     26 H3         -2.1360    0.4670    4.2660 ha        1 LI3      0.153000
     27 H5          1.2400   -0.0330    1.5260 ha        1 LI3      0.162000
     28 H7         -2.6520    1.1190    0.0300 ha        1 LI3      0.155000
     29 H10        -1.6330   -0.4600   -1.4450 hn        1 LI3      0.318500
     30 H12        -2.0310   -1.5970   -3.4080 ha        1 LI3      0.127000
     31 H13        -1.5530   -1.9180   -5.8050 ha        1 LI3      0.133000
     32 H15         0.2700   -1.0300   -7.8460 hn        1 LI3      0.297700
     33 H17         2.2390    0.5500   -8.0720 h4        1 LI3      0.164000
     34 H18         2.6790    1.6620   -5.6060 ha        1 LI3      0.160000
     35 H20         1.2600    1.2590   -3.0460 ha        1 LI3      0.174000
     36 H221       -0.4990    0.5050    5.8320 h1        1 LI3      0.051950
     37 H222       -0.9870   -1.1690    5.2760 h1        1 LI3      0.051950
     38 H231        0.4040   -1.0330    7.4580 h1        1 LI3      0.058700
     39 H232        1.0730   -2.1580    6.1640 h1        1 LI3      0.058700
     40 H251        3.5960    0.4220    5.4640 h1        1 LI3      0.058700
     41 H252        3.0600   -1.2550    4.9260 h1        1 LI3      0.058700
     42 H261        2.3250    0.3450    3.2150 h1        1 LI3      0.051950
     43 H262        1.6670    1.4900    4.4730 h1        1 LI3      0.051950
@<TRIPOS>BOND
     1    1    2 1   
     2    2    3 ar  
     3    2    7 ar  
     4    3    4 ar  
     5    3   26 1   
     6    4    5 ar  
     7    4   20 1   
     8    5    6 ar  
     9    5   27 1   
    10    6    7 ar  
    11    6    8 1   
    12    7   28 1   
    13    8    9 2   
    14    8   10 1   
    15   10   11 1   
    16   10   29 1   
    17   11   12 ar  
    18   11   19 ar  
    19   12   13 ar  
    20   12   30 1   
    21   13   14 ar  
    22   13   31 1   
    23   14   15 1   
    24   14   18 ar  
    25   15   16 1   
    26   15   32 1   
    27   16   17 2   
    28   16   33 1   
    29   17   18 1   
    30   17   34 1   
    31   18   19 ar  
    32   19   35 1   
    33   20   21 1   
    34   20   25 1   
    35   21   22 1   
    36   21   36 1   
    37   21   37 1   
    38   22   23 1   
    39   22   38 1   
    40   22   39 1   
    41   23   24 1   
    42   24   25 1   
    43   24   40 1   
    44   24   41 1   
    45   25   42 1   
    46   25   43 1   
@<TRIPOS>SUBSTRUCTURE
     1 LI3         1 TEMP              0 ****  ****    0 ROOT
