@<TRIPOS>MOLECULE
LI3
   43    46     1     0     0
SMALL
bcc


@<TRIPOS>ATOM
      1 F1         -0.2210    0.3070   -0.2390 f         1 LI3     -0.138900
      2 C2          1.1290    0.4060   -0.1560 ca        1 LI3      0.147900
      3 C3          1.7450    0.3230    1.1040 ca        1 LI3     -0.209000
      4 C4          3.1470    0.4240    1.2150 ca        1 LI3      0.164600
      5 C5          3.9020    0.6190    0.0310 ca        1 LI3     -0.129000
      6 C6          3.2700    0.6980   -1.2070 ca        1 LI3     -0.095600
      7 C7          1.8830    0.5970   -1.3240 ca        1 LI3     -0.179000
      8 C8          4.1320    0.9240   -2.4130 c         1 LI3      0.675700
      9 O9          5.0640    1.7500   -2.3820 o         1 LI3     -0.586100
     10 N10         3.8230    0.1580   -3.5240 n         1 LI3     -0.462100
     11 C11         4.5010    0.1420   -4.7590 ca        1 LI3      0.031600
     12 C12         4.2100   -0.9340   -5.6530 ca        1 LI3     -0.156000
     13 C13         4.8020   -1.0320   -6.8980 ca        1 LI3     -0.120000
     14 C14         5.7160   -0.0400   -7.2770 ca        1 LI3     -0.068200
     15 N15         6.4620    0.1320   -8.4460 na        1 LI3     -0.194400
     16 C17         7.2270    1.2940   -8.3100 cc        1 LI3     -0.106100
     17 C18         6.9880    1.8840   -7.0720 cd        1 LI3     -0.187200
     18 C19         6.0240    1.0540   -6.3840 ca        1 LI3     -0.073800
     19 C20         5.4130    1.1380   -5.1350 ca        1 LI3     -0.103000
     20 N21         3.8200    0.2520    2.4470 nh        1 LI3     -0.633000
     21 C22         3.0010   -0.1290    3.5880 c3        1 LI3      0.148800
     22 C23         3.8520   -0.4480    4.8250 c3        1 LI3      0.123400
     23 O24         4.7510    0.6090    5.1330 os        1 LI3     -0.411600
     24 C25         5.6060    0.9170    4.0380 c3        1 LI3      0.123400
     25 C26         4.8060    1.2740    2.7780 c3        1 LI3      0.148800
     26 H3          1.1020    0.1850    1.9860 ha        1 LI3      0.153000
     27 H5          5.0000    0.7090    0.0650 ha        1 LI3      0.162000
     28 H7          1.3730    0.6840   -2.2930 ha        1 LI3      0.155000
     29 H10         3.1020   -0.5220   -3.4200 hn        1 LI3      0.318500
     30 H12         3.4920   -1.7140   -5.3520 ha        1 LI3      0.127000
     31 H13         4.5600   -1.8680   -7.5680 ha        1 LI3      0.133000
     32 H15         6.4570   -0.4730   -9.2220 hn        1 LI3      0.297700
     33 H17         7.8900    1.6160   -9.1160 h4        1 LI3      0.164000
     34 H18         7.4350    2.7930   -6.6840 ha        1 LI3      0.160000
     35 H20         5.6610    1.9780   -4.4660 ha        1 LI3      0.174000
     36 H221        2.4190   -1.0520    3.3130 h1        1 LI3      0.051950
     37 H222        2.2710    0.6880    3.8600 h1        1 LI3      0.051950
     38 H231        3.1930   -0.5290    5.7290 h1        1 LI3      0.058700
     39 H232        4.4250   -1.4010    4.6770 h1        1 LI3      0.058700
     40 H251        6.2930    0.0520    3.8410 h1        1 LI3      0.058700
     41 H252        6.1930    1.8080    4.3810 h1        1 LI3      0.058700
     42 H261        4.3080    2.2730    2.9410 h1        1 LI3      0.051950
     43 H262        5.5290    1.3780    1.9220 h1        1 LI3      0.051950
@<TRIPOS>BOND
     1    1    2 1   
     2    2    3 ar  
     3    2    7 ar  
     4    3    4 ar  
     5    3   26 1   
     6    4    5 ar  
     7    4   20 1   
     8    5    6 ar  
     9    5   27 1   
    10    6    7 ar  
    11    6    8 1   
    12    7   28 1   
    13    8    9 2   
    14    8   10 1   
    15   10   11 1   
    16   10   29 1   
    17   11   12 ar  
    18   11   19 ar  
    19   12   13 ar  
    20   12   30 1   
    21   13   14 ar  
    22   13   31 1   
    23   14   15 1   
    24   14   18 ar  
    25   15   16 1   
    26   15   32 1   
    27   16   17 2   
    28   16   33 1   
    29   17   18 1   
    30   17   34 1   
    31   18   19 ar  
    32   19   35 1   
    33   20   21 1   
    34   20   25 1   
    35   21   22 1   
    36   21   36 1   
    37   21   37 1   
    38   22   23 1   
    39   22   38 1   
    40   22   39 1   
    41   23   24 1   
    42   24   25 1   
    43   24   40 1   
    44   24   41 1   
    45   25   42 1   
    46   25   43 1   
@<TRIPOS>SUBSTRUCTURE
     1 LI3         1 TEMP              0 ****  ****    0 ROOT
