@<TRIPOS>MOLECULE
LI3
   43    46     1     0     0
SMALL
bcc


@<TRIPOS>ATOM
      1 F1         -0.2190    0.2940   -0.2350 f         1 LI3     -0.138900
      2 C2          1.1300    0.3960   -0.1520 ca        1 LI3      0.147900
      3 C3          1.7480    0.3130    1.1070 ca        1 LI3     -0.209000
      4 C4          3.1500    0.4160    1.2160 ca        1 LI3      0.164600
      5 C5          3.9030    0.6140    0.0320 ca        1 LI3     -0.129000
      6 C6          3.2700    0.6950   -1.2060 ca        1 LI3     -0.095600
      7 C7          1.8830    0.5900   -1.3210 ca        1 LI3     -0.179000
      8 C8          4.1310    0.9250   -2.4120 c         1 LI3      0.675700
      9 O9          5.0610    1.7520   -2.3800 o         1 LI3     -0.586100
     10 N10         3.8210    0.1610   -3.5240 ns        1 LI3     -0.462100
     11 C11         4.4980    0.1480   -4.7600 ca        1 LI3      0.031600
     12 C12         4.2070   -0.9260   -5.6560 ca        1 LI3     -0.156000
     13 C13         4.7980   -1.0200   -6.9010 ca        1 LI3     -0.120000
     14 C14         5.7110   -0.0250   -7.2800 ca        1 LI3     -0.068200
     15 N15         6.4550    0.1500   -8.4490 na        1 LI3     -0.194400
     16 C17         7.2180    1.3130   -8.3120 cc        1 LI3     -0.106100
     17 C18         6.9800    1.8990   -7.0720 cd        1 LI3     -0.187200
     18 C19         6.0180    1.0670   -6.3850 ca        1 LI3     -0.073800
     19 C20         5.4080    1.1470   -5.1350 ca        1 LI3     -0.103000
     20 N21         3.8250    0.2440    2.4470 nh        1 LI3     -0.633000
     21 C22         3.0080   -0.1400    3.5880 c3        1 LI3      0.148800
     22 C23         3.8600   -0.4590    4.8250 c3        1 LI3      0.123400
     23 O24         4.7580    0.5990    5.1330 os        1 LI3     -0.411600
     24 C25         5.6100    0.9100    4.0370 c3        1 LI3      0.123400
     25 C26         4.8090    1.2670    2.7780 c3        1 LI3      0.148800
     26 H3          1.1060    0.1720    1.9890 ha        1 LI3      0.153000
     27 H5          5.0010    0.7070    0.0650 ha        1 LI3      0.162000
     28 H7          1.3720    0.6780   -2.2900 ha        1 LI3      0.155000
     29 H10         3.1020   -0.5210   -3.4210 hn        1 LI3      0.318500
     30 H12         3.4920   -1.7080   -5.3560 ha        1 LI3      0.127000
     31 H13         4.5580   -1.8550   -7.5740 ha        1 LI3      0.133000
     32 H15         6.4510   -0.4540   -9.2260 hn        1 LI3      0.297700
     33 H17         7.8790    1.6370   -9.1170 h4        1 LI3      0.164000
     34 H18         7.4250    2.8090   -6.6820 ha        1 LI3      0.160000
     35 H20         5.6550    1.9860   -4.4640 ha        1 LI3      0.174000
     36 H221        2.2760    0.6750    3.8630 h1        1 LI3      0.051950
     37 H222        2.4270   -1.0640    3.3130 h1        1 LI3      0.051950
     38 H231        3.2020   -0.5430    5.7290 h1        1 LI3      0.058700
     39 H232        4.4350   -1.4110    4.6750 h1        1 LI3      0.058700
     40 H251        6.2990    0.0470    3.8390 h1        1 LI3      0.058700
     41 H252        6.1960    1.8020    4.3820 h1        1 LI3      0.058700
     42 H261        4.3090    2.2650    2.9430 h1        1 LI3      0.051950
     43 H262        5.5300    1.3730    1.9220 h1        1 LI3      0.051950
@<TRIPOS>BOND
     1    1    2 1   
     2    2    3 ar  
     3    2    7 ar  
     4    3    4 ar  
     5    3   26 1   
     6    4    5 ar  
     7    4   20 1   
     8    5    6 ar  
     9    5   27 1   
    10    6    7 ar  
    11    6    8 1   
    12    7   28 1   
    13    8    9 2   
    14    8   10 1   
    15   10   11 1   
    16   10   29 1   
    17   11   12 ar  
    18   11   19 ar  
    19   12   13 ar  
    20   12   30 1   
    21   13   14 ar  
    22   13   31 1   
    23   14   15 1   
    24   14   18 ar  
    25   15   16 1   
    26   15   32 1   
    27   16   17 2   
    28   16   33 1   
    29   17   18 1   
    30   17   34 1   
    31   18   19 ar  
    32   19   35 1   
    33   20   21 1   
    34   20   25 1   
    35   21   22 1   
    36   21   36 1   
    37   21   37 1   
    38   22   23 1   
    39   22   38 1   
    40   22   39 1   
    41   23   24 1   
    42   24   25 1   
    43   24   40 1   
    44   24   41 1   
    45   25   42 1   
    46   25   43 1   
@<TRIPOS>SUBSTRUCTURE
     1 LI3         1 TEMP              0 ****  ****    0 ROOT
