@<TRIPOS>MOLECULE
LI3
   44    47     1     0     0
SMALL
bcc


@<TRIPOS>ATOM
      1 F1         -0.0290    1.5900   -0.6290 f         1 LI3     -0.113900
      2 C2          1.1250    0.8890   -0.5660 ca        1 LI3      0.191900
      3 C3          1.9690    1.0510    0.5420 ca        1 LI3     -0.198000
      4 C4          3.1730    0.3080    0.6490 ca        1 LI3      0.223600
      5 C5          3.5120   -0.5530   -0.4330 ca        1 LI3     -0.152000
      6 C6          2.6620   -0.6820   -1.5310 ca        1 LI3     -0.110600
      7 C7          1.4560    0.0170   -1.6190 ca        1 LI3     -0.217000
      8 C8          3.0720   -1.6190   -2.5860 c         1 LI3      0.580700
      9 O9          3.6000   -2.7150   -2.4750 o         1 LI3     -0.419100
     10 N10         2.8200   -1.1670   -4.0190 n4        1 LI3     -0.536200
     11 C11         3.9910   -0.4830   -4.5770 ca        1 LI3     -0.099400
     12 C12         5.1300   -1.2610   -4.9130 ca        1 LI3     -0.102000
     13 C13         6.2500   -0.6720   -5.4670 ca        1 LI3     -0.108000
     14 C14         6.2330    0.7170   -5.6870 ca        1 LI3     -0.015200
     15 N15         7.1870    1.5720   -6.2200 na        1 LI3     -0.167400
     16 C17         6.6690    2.8730   -6.2200 cc        1 LI3     -0.069100
     17 C18         5.3820    2.8780   -5.6880 cd        1 LI3     -0.173200
     18 C19         5.0670    1.5130   -5.3350 ca        1 LI3     -0.093800
     19 C20         3.9510    0.9020   -4.7790 ca        1 LI3     -0.037000
     20 N21         3.9560    0.3640    1.7990 nh        1 LI3     -0.636000
     21 C22         3.7230    1.4640    2.7200 c3        1 LI3      0.161300
     22 C23         4.5980    1.4360    3.9800 c3        1 LI3      0.117900
     23 O24         5.9540    1.1470    3.6750 os        1 LI3     -0.392600
     24 C25         6.0780   -0.1210    3.0520 c3        1 LI3      0.117900
     25 C26         5.2980   -0.1860    1.7320 c3        1 LI3      0.161300
     26 H3          1.6560    1.7620    1.3230 ha        1 LI3      0.175000
     27 H5          4.4450   -1.1390   -0.4220 ha        1 LI3      0.164000
     28 H7          0.7390   -0.1140   -2.4400 ha        1 LI3      0.146000
     29 H10         2.0150   -0.5320   -4.0450 hn        1 LI3      0.459300
     30 H12         5.1310   -2.3490   -4.7250 ha        1 LI3      0.160000
     31 H13         7.1300   -1.2790   -5.7290 ha        1 LI3      0.166000
     32 H15         8.0780    1.3030   -6.5540 hn        1 LI3      0.321700
     33 H17         7.2660    3.7060   -6.6050 h4        1 LI3      0.194000
     34 H18         4.7320    3.7390   -5.5610 ha        1 LI3      0.179000
     35 H20         3.0710    1.5120   -4.5170 ha        1 LI3      0.155000
     36 H221        2.6500    1.4140    3.0620 h1        1 LI3      0.055700
     37 H222        3.8850    2.4470    2.1890 h1        1 LI3      0.055700
     38 H231        4.2030    0.6860    4.7160 h1        1 LI3      0.071950
     39 H232        4.6220    2.4580    4.4440 h1        1 LI3      0.071950
     40 H251        7.1760   -0.2330    2.8470 h1        1 LI3      0.071950
     41 H252        5.7320   -0.9280    3.7520 h1        1 LI3      0.071950
     42 H261        5.8930    0.3500    0.9360 h1        1 LI3      0.055700
     43 H262        5.2200   -1.2750    1.4490 h1        1 LI3      0.055700
     44 H102        2.6240   -1.9920   -4.6000 hn        1 LI3      0.459300
@<TRIPOS>BOND
     1    1    2 1   
     2    2    3 ar  
     3    2    7 ar  
     4    3    4 ar  
     5    3   26 1   
     6    4    5 ar  
     7    4   20 1   
     8    5    6 ar  
     9    5   27 1   
    10    6    7 ar  
    11    6    8 1   
    12    7   28 1   
    13    8    9 2   
    14    8   10 1   
    15   10   11 1   
    16   10   29 1   
    17   10   44 1   
    18   11   12 ar  
    19   11   19 ar  
    20   12   13 ar  
    21   12   30 1   
    22   13   14 ar  
    23   13   31 1   
    24   14   15 1   
    25   14   18 ar  
    26   15   16 1   
    27   15   32 1   
    28   16   17 2   
    29   16   33 1   
    30   17   18 1   
    31   17   34 1   
    32   18   19 ar  
    33   19   35 1   
    34   20   21 1   
    35   20   25 1   
    36   21   22 1   
    37   21   36 1   
    38   21   37 1   
    39   22   23 1   
    40   22   38 1   
    41   22   39 1   
    42   23   24 1   
    43   24   25 1   
    44   24   40 1   
    45   24   41 1   
    46   25   42 1   
    47   25   43 1   
@<TRIPOS>SUBSTRUCTURE
     1 LI3         1 TEMP              0 ****  ****    0 ROOT
