@<TRIPOS>MOLECULE
LI4
   33    35     1     0     0
SMALL
bcc


@<TRIPOS>ATOM
      1 C1         -0.3190    1.1530    0.7850 ca        1 LI4     -0.289300
      2 C2          1.0590    1.3020    0.6390 ca        1 LI4     -0.067000
      3 C3          1.8960    0.2830    1.0970 ca        1 LI4     -0.091200
      4 C4          1.3320   -0.8990    1.6920 ca        1 LI4      0.628200
      5 C6         -0.7990   -0.0190    1.3940 ca        1 LI4      0.433200
      6 O10         3.2720    0.4580    1.0890 os        1 LI4     -0.343900
      7 N12         2.1660   -1.9620    2.0460 nh        1 LI4     -0.925500
      8 C13         5.6160   -0.7900   -2.3230 ca        1 LI4     -0.126000
      9 C15         6.1400   -0.0670   -1.2160 ca        1 LI4     -0.029000
     10 C16         7.5230    0.2520   -1.2060 ca        1 LI4     -0.038000
     11 C17         8.3420   -0.1590   -2.2940 ca        1 LI4     -0.115000
     12 C18         7.8070   -0.8570   -3.3480 ca        1 LI4     -0.130000
     13 C19         6.4280   -1.1750   -3.3610 ca        1 LI4     -0.123000
     14 C23         5.3280    0.3510   -0.1160 ca        1 LI4     -0.084300
     15 C24         5.8890    1.0540    0.9280 ca        1 LI4     -0.103000
     16 C25         7.2680    1.3680    0.9300 ca        1 LI4     -0.129000
     17 C26         8.0700    0.9760   -0.1120 ca        1 LI4     -0.116000
     18 N3         -0.0280   -1.0180    1.8460 nb        1 LI4     -0.719000
     19 C9          3.8760    0.0080   -0.1410 c3        1 LI4      0.169700
     20 H1         -1.0140    1.9290    0.4400 ha        1 LI4      0.146000
     21 H2          1.4940    2.2030    0.1830 ha        1 LI4      0.148000
     22 H6         -1.8850   -0.1740    1.5380 h4        1 LI4      0.022100
     23 H121        1.7800   -2.6420    2.6610 hn        1 LI4      0.414300
     24 H122        3.0990   -1.6840    2.2590 hn        1 LI4      0.414300
     25 H17         9.4120    0.0960   -2.2710 ha        1 LI4      0.133000
     26 H18         8.4380   -1.1750   -4.1910 ha        1 LI4      0.133000
     27 H19         6.0170   -1.7340   -4.2150 ha        1 LI4      0.133000
     28 H24         5.2650    1.3810    1.7750 ha        1 LI4      0.151000
     29 H25         7.6830    1.9300    1.7800 ha        1 LI4      0.134000
     30 H26         9.1440    1.2150   -0.1200 ha        1 LI4      0.133000
     31 H9C1        3.3680    0.5180   -1.0050 h1        1 LI4      0.052200
     32 H9C2        3.7320   -1.1040   -0.2230 h1        1 LI4      0.052200
     33 H13         4.5440   -1.0410   -2.3410 ha        1 LI4      0.132000
@<TRIPOS>BOND
     1    1    2 ar  
     2    1    5 ar  
     3    1   20 1   
     4    2    3 ar  
     5    2   21 1   
     6    3    4 ar  
     7    3    6 1   
     8    4    7 1   
     9    4   18 ar  
    10    5   18 ar  
    11    5   22 1   
    12    6   19 1   
    13    7   23 1   
    14    7   24 1   
    15    8    9 ar  
    16    8   13 ar  
    17    8   33 1   
    18    9   10 ar  
    19    9   14 ar  
    20   10   11 ar  
    21   10   17 ar  
    22   11   12 ar  
    23   11   25 1   
    24   12   13 ar  
    25   12   26 1   
    26   13   27 1   
    27   14   15 ar  
    28   14   19 1   
    29   15   16 ar  
    30   15   28 1   
    31   16   17 ar  
    32   16   29 1   
    33   17   30 1   
    34   19   31 1   
    35   19   32 1   
@<TRIPOS>SUBSTRUCTURE
     1 LI4         1 TEMP              0 ****  ****    0 ROOT
