@<TRIPOS>MOLECULE
LI4
   33    35     1     0     0
SMALL
bcc


@<TRIPOS>ATOM
      1 C1         -0.3200    1.1370    0.7970 ca        1 LI4     -0.289300
      2 C2          1.0570    1.2900    0.6490 ca        1 LI4     -0.067000
      3 C3          1.8980    0.2730    1.1040 ca        1 LI4     -0.091200
      4 C4          1.3390   -0.9100    1.6980 ca        1 LI4      0.628200
      5 C6         -0.7950   -0.0370    1.4060 ca        1 LI4      0.433200
      6 O10         3.2740    0.4520    1.0920 os        1 LI4     -0.343900
      7 N12         2.1770   -1.9720    2.0490 nv        1 LI4     -0.925500
      8 C13         5.6130   -0.7820   -2.3280 ca        1 LI4     -0.126000
      9 C15         6.1380   -0.0600   -1.2200 ca        1 LI4     -0.029000
     10 C16         7.5200    0.2630   -1.2140 ca        1 LI4     -0.038000
     11 C17         8.3370   -0.1420   -2.3050 ca        1 LI4     -0.115000
     12 C18         7.8010   -0.8390   -3.3590 ca        1 LI4     -0.130000
     13 C19         6.4240   -1.1620   -3.3690 ca        1 LI4     -0.123000
     14 C23         5.3270    0.3530   -0.1170 ca        1 LI4     -0.084300
     15 C24         5.8880    1.0560    0.9260 ca        1 LI4     -0.103000
     16 C25         7.2670    1.3740    0.9260 ca        1 LI4     -0.129000
     17 C26         8.0670    0.9870   -0.1190 ca        1 LI4     -0.116000
     18 N3         -0.0200   -1.0340    1.8560 nb        1 LI4     -0.719000
     19 C9          3.8760    0.0060   -0.1400 c3        1 LI4      0.169700
     20 H1         -1.0180    1.9110    0.4550 ha        1 LI4      0.146000
     21 H2          1.4890    2.1930    0.1920 ha        1 LI4      0.148000
     22 H6         -1.8810   -0.1950    1.5520 h4        1 LI4      0.022100
     23 H121        3.1100   -1.6920    2.2600 hn        1 LI4      0.414300
     24 H122        1.7940   -2.6540    2.6640 hn        1 LI4      0.414300
     25 H17         9.4070    0.1160   -2.2840 ha        1 LI4      0.133000
     26 H18         8.4310   -1.1540   -4.2040 ha        1 LI4      0.133000
     27 H19         6.0120   -1.7200   -4.2230 ha        1 LI4      0.133000
     28 H24         5.2660    1.3790    1.7760 ha        1 LI4      0.151000
     29 H25         7.6820    1.9350    1.7760 ha        1 LI4      0.134000
     30 H26         9.1400    1.2290   -0.1300 ha        1 LI4      0.133000
     31 H9C1        3.3650    0.5160   -1.0010 h1        1 LI4      0.052200
     32 H9C2        3.7350   -1.1060   -0.2230 h1        1 LI4      0.052200
     33 H13         4.5420   -1.0360   -2.3440 ha        1 LI4      0.132000
@<TRIPOS>BOND
     1    1    2 ar  
     2    1    5 ar  
     3    1   20 1   
     4    2    3 ar  
     5    2   21 1   
     6    3    4 ar  
     7    3    6 1   
     8    4    7 1   
     9    4   18 ar  
    10    5   18 ar  
    11    5   22 1   
    12    6   19 1   
    13    7   23 1   
    14    7   24 1   
    15    8    9 ar  
    16    8   13 ar  
    17    8   33 1   
    18    9   10 ar  
    19    9   14 ar  
    20   10   11 ar  
    21   10   17 ar  
    22   11   12 ar  
    23   11   25 1   
    24   12   13 ar  
    25   12   26 1   
    26   13   27 1   
    27   14   15 ar  
    28   14   19 1   
    29   15   16 ar  
    30   15   28 1   
    31   16   17 ar  
    32   16   29 1   
    33   17   30 1   
    34   19   31 1   
    35   19   32 1   
@<TRIPOS>SUBSTRUCTURE
     1 LI4         1 TEMP              0 ****  ****    0 ROOT
