@<TRIPOS>MOLECULE
LI4
   33    35     1     0     0
SMALL
bcc


@<TRIPOS>ATOM
      1 C1         -1.4990   -1.1330    4.3440 ca        1 LI4     -0.289300
      2 C2         -0.9590   -1.2870    3.0690 ca        1 LI4     -0.067000
      3 C3         -0.1510   -0.2720    2.5540 ca        1 LI4     -0.091200
      4 C4          0.0970    0.9120    3.3310 ca        1 LI4      0.628200
      5 C6         -1.1970    0.0420    5.0550 ca        1 LI4      0.433200
      6 O10         0.5080   -0.4520    1.3470 os        1 LI4     -0.343900
      7 N12         0.8130    1.9720    2.7690 nh        1 LI4     -0.925500
      8 C13        -1.3400    0.7830   -2.3610 ca        1 LI4     -0.126000
      9 C15        -0.1180    0.0570   -2.2810 ca        1 LI4     -0.029000
     10 C16         0.5590   -0.2680   -3.4850 ca        1 LI4     -0.038000
     11 C17         0.0040    0.1380   -4.7300 ca        1 LI4     -0.115000
     12 C18        -1.1760    0.8380   -4.7750 ca        1 LI4     -0.130000
     13 C19        -1.8540    1.1630   -3.5770 ca        1 LI4     -0.123000
     14 C23         0.4500   -0.3560   -1.0360 ca        1 LI4     -0.084300
     15 C24         1.6330   -1.0610   -1.0170 ca        1 LI4     -0.103000
     16 C25         2.3020   -1.3830   -2.2220 ca        1 LI4     -0.129000
     17 C26         1.7790   -0.9960   -3.4290 ca        1 LI4     -0.116000
     18 N3         -0.4260    1.0370    4.5950 nb        1 LI4     -0.719000
     19 C9         -0.2750   -0.0060    0.2210 c3        1 LI4      0.169700
     20 H1         -2.1380   -1.9060    4.7880 ha        1 LI4      0.146000
     21 H2         -1.1490   -2.1900    2.4700 ha        1 LI4      0.148000
     22 H6         -1.5970    0.2010    6.0740 h4        1 LI4      0.022100
     23 H121        1.1650    2.6550    3.4020 hn        1 LI4      0.414300
     24 H122        1.4510    1.6910    2.0570 hn        1 LI4      0.414300
     25 H17         0.5420   -0.1220   -5.6540 ha        1 LI4      0.133000
     26 H18        -1.6070    1.1530   -5.7370 ha        1 LI4      0.133000
     27 H19        -2.7990    1.7240   -3.6330 ha        1 LI4      0.133000
     28 H24         2.0720   -1.3850   -0.0600 ha        1 LI4      0.151000
     29 H25         3.2450   -1.9470   -2.1710 ha        1 LI4      0.134000
     30 H26         2.2910   -1.2390   -4.3720 ha        1 LI4      0.133000
     31 H9C1       -1.2770   -0.5130    0.2490 h1        1 LI4      0.052200
     32 H9C2       -0.4140    1.1070    0.3020 h1        1 LI4      0.052200
     33 H13        -1.8740    1.0390   -1.4340 ha        1 LI4      0.132000
@<TRIPOS>BOND
     1    1    2 ar  
     2    1    5 ar  
     3    1   20 1   
     4    2    3 ar  
     5    2   21 1   
     6    3    4 ar  
     7    3    6 1   
     8    4    7 1   
     9    4   18 ar  
    10    5   18 ar  
    11    5   22 1   
    12    6   19 1   
    13    7   23 1   
    14    7   24 1   
    15    8    9 ar  
    16    8   13 ar  
    17    8   33 1   
    18    9   10 ar  
    19    9   14 ar  
    20   10   11 ar  
    21   10   17 ar  
    22   11   12 ar  
    23   11   25 1   
    24   12   13 ar  
    25   12   26 1   
    26   13   27 1   
    27   14   15 ar  
    28   14   19 1   
    29   15   16 ar  
    30   15   28 1   
    31   16   17 ar  
    32   16   29 1   
    33   17   30 1   
    34   19   31 1   
    35   19   32 1   
@<TRIPOS>SUBSTRUCTURE
     1 LI4         1 TEMP              0 ****  ****    0 ROOT
