@<TRIPOS>MOLECULE
LI4
   34    36     1     0     0
SMALL
bcc


@<TRIPOS>ATOM
      1 C1         -0.2750    0.7730    0.5920 ca        1 LI4     -0.142300
      2 C2          1.0660    1.0190    0.3540 ca        1 LI4     -0.154000
      3 C3          2.0230    0.0910    0.8230 ca        1 LI4      0.091800
      4 C4          1.5480   -1.0560    1.5170 ca        1 LI4      0.366200
      5 C6         -0.6510   -0.4030    1.2950 ca        1 LI4      0.398200
      6 O10         3.3740    0.1880    0.6750 os        1 LI4     -0.354900
      7 N12         2.5130   -2.0450    2.0300 n4        1 LI4     -0.799300
      8 C13         5.2130   -0.6830   -1.7910 ca        1 LI4     -0.153000
      9 C15         5.9680    0.2020   -0.9730 ca        1 LI4     -0.011000
     10 C16         7.3860    0.1280   -1.0210 ca        1 LI4     -0.047000
     11 C17         8.0070   -0.8150   -1.8860 ca        1 LI4     -0.099000
     12 C18         7.2510   -1.6510   -2.6690 ca        1 LI4     -0.126000
     13 C19         5.8380   -1.5820   -2.6200 ca        1 LI4     -0.102000
     14 C23         5.3620    1.1650   -0.1110 ca        1 LI4     -0.133300
     15 C24         6.1450    1.9900    0.6710 ca        1 LI4     -0.076000
     16 C25         7.5550    1.9090    0.6190 ca        1 LI4     -0.141000
     17 C26         8.1630    0.9990   -0.2110 ca        1 LI4     -0.075000
     18 N3          0.2230   -1.2990    1.7500 nb        1 LI4     -0.618000
     19 C9          3.8820    1.3270   -0.0740 c3        1 LI4      0.194700
     20 H1         -1.0530    1.4730    0.2440 ha        1 LI4      0.185000
     21 H2          1.3900    1.9210   -0.1890 ha        1 LI4      0.180000
     22 H6         -1.7170   -0.6290    1.4990 h4        1 LI4      0.068100
     23 H121        3.4010   -1.9290    1.5220 hn        1 LI4      0.472800
     24 H122        2.6680   -1.8780    3.0310 hn        1 LI4      0.472800
     25 H18         7.7290   -2.3770   -3.3450 ha        1 LI4      0.150000
     26 H19         5.2490   -2.2560   -3.2610 ha        1 LI4      0.141000
     27 H24         5.6830    2.7340    1.3400 ha        1 LI4      0.138000
     28 H25         8.1530    2.5880    1.2460 ha        1 LI4      0.152000
     29 H26         9.2620    0.9320   -0.2640 ha        1 LI4      0.151000
     30 H9C1        3.5770    2.2620    0.4670 h1        1 LI4      0.066700
     31 H9C2        3.4320    1.3070   -1.1020 h1        1 LI4      0.066700
     32 H13         4.1150   -0.6340   -1.7570 ha        1 LI4      0.118000
     33 H123        2.1560   -2.9990    1.8980 hn        1 LI4      0.472800
     34 H17         9.1080   -0.8560   -1.9170 ha        1 LI4      0.148000
@<TRIPOS>BOND
     1    1    2 ar  
     2    1    5 ar  
     3    1   20 1   
     4    2    3 ar  
     5    2   21 1   
     6    3    4 ar  
     7    3    6 1   
     8    4    7 1   
     9    4   18 ar  
    10    5   18 ar  
    11    5   22 1   
    12    6   19 1   
    13    7   23 1   
    14    7   24 1   
    15    7   33 1   
    16    8    9 ar  
    17    8   13 ar  
    18    8   32 1   
    19    9   10 ar  
    20    9   14 ar  
    21   10   11 ar  
    22   10   17 ar  
    23   11   12 ar  
    24   11   34 1   
    25   12   13 ar  
    26   12   25 1   
    27   13   26 1   
    28   14   15 ar  
    29   14   19 1   
    30   15   16 ar  
    31   15   27 1   
    32   16   17 ar  
    33   16   28 1   
    34   17   29 1   
    35   19   30 1   
    36   19   31 1   
@<TRIPOS>SUBSTRUCTURE
     1 LI4         1 TEMP              0 ****  ****    0 ROOT
