@<TRIPOS>MOLECULE
LI5
   26    25     1     0     0
SMALL
bcc


@<TRIPOS>ATOM
      1 O2P         3.8280   -0.0160   -1.5810 o         1 LI5     -0.857500
      2 P           2.5270    0.0820   -0.8740 p5        1 LI5      1.349800
      3 O1P         1.4500    0.9720   -1.3440 o         1 LI5     -0.857500
      4 O3P         1.9150   -1.4680   -0.8680 os        1 LI5     -0.595200
      5 C1          1.3870   -1.9130   -2.0770 c3        1 LI5      0.162400
      6 C2          2.1580   -3.1580   -2.5550 c3        1 LI5      0.128100
      7 O2          2.1350   -4.1640   -1.5540 oh        1 LI5     -0.620800
      8 C3          3.6040   -2.8160   -2.9000 c3        1 LI5     -0.249400
      9 C4          3.8210   -2.4650   -4.3330 c         1 LI5      0.506100
     10 O30         3.0070   -2.6340   -5.2450 o         1 LI5     -0.544100
     11 C30         5.1740   -1.8390   -4.6060 c         1 LI5      0.498100
     12 O5          6.1510   -2.5370   -4.8990 o         1 LI5     -0.549100
     13 C31         5.1990   -0.3540   -4.4550 c3        1 LI5     -0.214400
     14 C32         6.5040    0.2610   -4.8830 c3        1 LI5     -0.074100
     15 H11         0.3130   -2.2120   -1.9110 h1        1 LI5      0.035200
     16 H12         1.4360   -1.1050   -2.8560 h1        1 LI5      0.035200
     17 H2          1.6370   -3.6170   -3.4410 h1        1 LI5      0.069700
     18 HO2         2.3110   -3.7180   -0.7140 ho        1 LI5      0.419000
     19 H31         4.2670   -3.6880   -2.6530 hc        1 LI5      0.116700
     20 H32         3.9300   -1.9360   -2.2580 hc        1 LI5      0.116700
     21 H311        4.9860   -0.1130   -3.3650 hc        1 LI5      0.120700
     22 H312        4.3490    0.0770   -5.0490 hc        1 LI5      0.120700
     23 H321        7.3500   -0.1820   -4.3050 hc        1 LI5      0.030367
     24 H322        6.4820    1.3620   -4.7020 hc        1 LI5      0.030367
     25 H323        6.6930    0.0780   -5.9680 hc        1 LI5      0.030367
     26 HP1         2.7150    0.1810    0.4240 hp        1 LI5     -0.204400
@<TRIPOS>BOND
     1    1    2 1   
     2    2    3 1   
     3    2    4 1   
     4    2   26 1   
     5    4    5 1   
     6    5    6 1   
     7    5   15 1   
     8    5   16 1   
     9    6    7 1   
    10    6    8 1   
    11    6   17 1   
    12    7   18 1   
    13    8    9 1   
    14    8   19 1   
    15    8   20 1   
    16    9   10 2   
    17    9   11 1   
    18   11   12 2   
    19   11   13 1   
    20   13   14 1   
    21   13   21 1   
    22   13   22 1   
    23   14   23 1   
    24   14   24 1   
    25   14   25 1   
@<TRIPOS>SUBSTRUCTURE
     1 LI5         1 TEMP              0 ****  ****    0 ROOT
