@<TRIPOS>MOLECULE
LI5
   26    25     1     0     0
SMALL
bcc


@<TRIPOS>ATOM
      1 O2P        -4.0190    2.0630    4.1600 o         1 LI5     -0.845000
      2 P          -2.9230    2.6560    3.2970 p5        1 LI5      1.338800
      3 O1P        -2.1780    3.7170    4.0840 o         1 LI5     -0.845000
      4 O3P        -1.9030    1.4990    2.8610 os        1 LI5     -0.591200
      5 C1         -1.2160    1.6240    1.5940 c3        1 LI5      0.159400
      6 C2         -0.4730    0.3120    1.2800 c3        1 LI5      0.131100
      7 O2          0.4070    0.0090    2.3280 oh        1 LI5     -0.650800
      8 C3          0.3100    0.4690   -0.0050 c3        1 LI5     -0.183400
      9 C4          0.8510   -0.8960   -0.4470 c         1 LI5      0.498100
     10 O30         1.1960   -1.7140    0.3890 o         1 LI5     -0.522100
     11 C30         0.8770   -1.2640   -1.9370 c         1 LI5      0.497100
     12 O5         -0.1640   -1.3500   -2.5590 o         1 LI5     -0.531100
     13 C31         2.2110   -1.5890   -2.6260 c3        1 LI5     -0.190400
     14 C32         1.9760   -2.5960   -3.7280 c3        1 LI5     -0.083100
     15 H11        -1.8690    1.8080    0.8850 h1        1 LI5      0.040200
     16 H12        -0.5690    2.3650    1.6430 h1        1 LI5      0.040200
     17 H2         -1.1170   -0.4080    1.1800 h1        1 LI5      0.060700
     18 HO2         0.0730   -0.6370    2.8120 ho        1 LI5      0.443000
     19 H31         1.0570    1.0850    0.1410 hc        1 LI5      0.077200
     20 H32        -0.2700    0.8240   -0.6950 hc        1 LI5      0.077200
     21 H311        2.5880   -0.7720   -3.0070 hc        1 LI5      0.092700
     22 H312        2.8310   -1.9600   -1.9730 hc        1 LI5      0.092700
     23 H321        1.4540   -3.3490   -3.3770 hc        1 LI5      0.036033
     24 H322        2.8440   -2.9250   -4.0640 hc        1 LI5      0.036033
     25 H323        1.4830   -2.1700   -4.4600 hc        1 LI5      0.036033
     26 HP1        -3.4560    3.1990    2.2230 hp        1 LI5     -0.215400
@<TRIPOS>BOND
     1    1    2 1   
     2    2    3 1   
     3    2    4 1   
     4    2   26 1   
     5    4    5 1   
     6    5    6 1   
     7    5   15 1   
     8    5   16 1   
     9    6    7 1   
    10    6    8 1   
    11    6   17 1   
    12    7   18 1   
    13    8    9 1   
    14    8   19 1   
    15    8   20 1   
    16    9   10 2   
    17    9   11 1   
    18   11   12 2   
    19   11   13 1   
    20   13   14 1   
    21   13   21 1   
    22   13   22 1   
    23   14   23 1   
    24   14   24 1   
    25   14   25 1   
@<TRIPOS>SUBSTRUCTURE
     1 LI5         1 TEMP              0 ****  ****    0 ROOT
