@<TRIPOS>MOLECULE
LI5
   26    25     1     0     0
SMALL
bcc


@<TRIPOS>ATOM
      1 O2P         3.8570   -0.1290   -1.4830 o         1 LI5     -0.857500
      2 P           2.5430   -0.0110   -0.8040 p5        1 LI5      1.349800
      3 O1P         1.5260    0.9640   -1.2400 o         1 LI5     -0.857500
      4 O3P         1.8530   -1.5230   -0.9210 os        1 LI5     -0.595200
      5 C1          1.3380   -1.8570   -2.1720 c3        1 LI5      0.162400
      6 C2          2.0580   -3.1050   -2.7160 c3        1 LI5      0.128100
      7 O2          1.9550   -4.1740   -1.7870 oh        1 LI5     -0.620800
      8 C3          3.5290   -2.8160   -2.9990 c3        1 LI5     -0.249400
      9 C4          3.8050   -2.3810   -4.3980 c         1 LI5      0.506100
     10 O30         3.0090   -2.4440   -5.3400 o         1 LI5     -0.544100
     11 C30         5.1950   -1.8110   -4.5930 c         1 LI5      0.498100
     12 O5          6.1430   -2.5370   -4.9090 o         1 LI5     -0.549100
     13 C31         5.2920   -0.3430   -4.3380 c3        1 LI5     -0.214400
     14 C32         6.6380    0.2300   -4.6890 c3        1 LI5     -0.074100
     15 H11         0.2460   -2.1080   -2.0540 h1        1 LI5      0.035200
     16 H12         1.4500   -1.0010   -2.8910 h1        1 LI5      0.035200
     17 H2          1.5400   -3.4740   -3.6430 h1        1 LI5      0.069700
     18 HO2         2.1290   -3.7960   -0.9140 ho        1 LI5      0.419000
     19 H31         4.1390   -3.7370   -2.7970 hc        1 LI5      0.116700
     20 H32         3.8800   -2.0010   -2.2890 hc        1 LI5      0.116700
     21 H311        5.0600   -0.1650   -3.2390 hc        1 LI5      0.120700
     22 H312        4.4830    0.1730   -4.9220 hc        1 LI5      0.120700
     23 H321        7.4440   -0.2950   -4.1220 hc        1 LI5      0.030367
     24 H322        6.6680    1.3160   -4.4320 hc        1 LI5      0.030367
     25 H323        6.8490    0.1120   -5.7790 hc        1 LI5      0.030367
     26 HP1         2.6980   -0.0100    0.5020 hp        1 LI5     -0.204400
@<TRIPOS>BOND
     1    1    2 1   
     2    2    3 1   
     3    2    4 1   
     4    2   26 1   
     5    4    5 1   
     6    5    6 1   
     7    5   15 1   
     8    5   16 1   
     9    6    7 1   
    10    6    8 1   
    11    6   17 1   
    12    7   18 1   
    13    8    9 1   
    14    8   19 1   
    15    8   20 1   
    16    9   10 2   
    17    9   11 1   
    18   11   12 2   
    19   11   13 1   
    20   13   14 1   
    21   13   21 1   
    22   13   22 1   
    23   14   23 1   
    24   14   24 1   
    25   14   25 1   
@<TRIPOS>SUBSTRUCTURE
     1 LI5         1 TEMP              0 ****  ****    0 ROOT
