@<TRIPOS>MOLECULE
LI5
   26    25     1     0     0
SMALL
bcc


@<TRIPOS>ATOM
      1 O2P         0.6040   -8.8650    2.7230 o         1 LI5     -0.857500
      2 P          -0.7500   -8.3740    3.0810 p5        1 LI5      1.349800
      3 O1P        -0.9940   -6.9710    3.4620 o         1 LI5     -0.857500
      4 O3P        -1.6960   -8.6910    1.7470 os        1 LI5     -0.595200
      5 C1         -1.5160   -7.8360    0.6620 c3        1 LI5      0.162400
      6 C2         -1.0520   -8.6430   -0.5660 c3        1 LI5      0.128100
      7 O2         -1.9760   -9.6840   -0.8470 oh        1 LI5     -0.620800
      8 C3          0.3350   -9.2380   -0.3450 c3        1 LI5     -0.249400
      9 C4          1.4510   -8.3770   -0.8280 c         1 LI5      0.506100
     10 O30         1.3300   -7.3790   -1.5450 o         1 LI5     -0.544100
     11 C30         2.8160   -8.8220   -0.3420 c         1 LI5      0.498100
     12 O5          3.4960   -9.6200   -0.9960 o         1 LI5     -0.549100
     13 C31         3.2120   -8.2390    0.9740 c3        1 LI5     -0.214400
     14 C32         4.6280   -8.5660    1.3620 c3        1 LI5     -0.074100
     15 H11        -0.7670   -7.0350    0.9040 h1        1 LI5      0.035200
     16 H12        -2.5070   -7.3610    0.4110 h1        1 LI5      0.035200
     17 H2         -1.0630   -7.9890   -1.4820 h1        1 LI5      0.069700
     18 HO2        -2.2000  -10.0870    0.0040 ho        1 LI5      0.419000
     19 H31         0.4080  -10.2270   -0.8730 hc        1 LI5      0.116700
     20 H32         0.4750   -9.4250    0.7680 hc        1 LI5      0.116700
     21 H311        3.0660   -7.1270    0.9280 hc        1 LI5      0.120700
     22 H312        2.4870   -8.6270    1.7580 hc        1 LI5      0.120700
     23 H321        4.8520   -8.1490    2.3730 hc        1 LI5      0.030367
     24 H322        5.3520   -8.1380    0.6270 hc        1 LI5      0.030367
     25 H323        4.7780   -9.6730    1.3890 hc        1 LI5      0.030367
     26 HP1        -1.3440   -9.2150    3.8980 hp        1 LI5     -0.204400
@<TRIPOS>BOND
     1    1    2 1   
     2    2    3 1   
     3    2    4 1   
     4    2   26 1   
     5    4    5 1   
     6    5    6 1   
     7    5   15 1   
     8    5   16 1   
     9    6    7 1   
    10    6    8 1   
    11    6   17 1   
    12    7   18 1   
    13    8    9 1   
    14    8   19 1   
    15    8   20 1   
    16    9   10 2   
    17    9   11 1   
    18   11   12 2   
    19   11   13 1   
    20   13   14 1   
    21   13   21 1   
    22   13   22 1   
    23   14   23 1   
    24   14   24 1   
    25   14   25 1   
@<TRIPOS>SUBSTRUCTURE
     1 LI5         1 TEMP              0 ****  ****    0 ROOT
