@<TRIPOS>MOLECULE
LI6
   23    24     1     0     0
SMALL
bcc


@<TRIPOS>ATOM
      1 C4         -2.1020    1.2830   -0.0010 ca        1 LI6     -0.179000
      2 C5         -0.8160    0.6810   -0.0000 ca        1 LI6      0.090600
      3 C6         -0.7440   -0.7410   -0.0000 ca        1 LI6     -0.110800
      4 C7          0.5600   -1.3710    0.0000 cc        1 LI6      0.182900
      5 C8          1.6870   -0.5980    0.0000 cd        1 LI6     -0.109100
      6 C9          1.6200    0.8680   -0.0000 c         1 LI6      0.695700
      7 O13         2.9230   -1.2090    0.0000 oh        1 LI6     -0.510100
      8 N10         0.3490    1.4600   -0.0000 n         1 LI6     -0.338000
      9 C11         0.2420    2.8980   -0.0000 c3        1 LI6      0.065300
     10 O14         0.5750   -2.7400    0.0000 oh        1 LI6     -0.486100
     11 C3         -3.2450    0.5020   -0.0010 ca        1 LI6     -0.082000
     12 C2         -3.1630   -0.8960   -0.0000 ca        1 LI6     -0.165000
     13 C1         -1.9210   -1.5080   -0.0000 ca        1 LI6     -0.058000
     14 H4         -2.2050    2.3790   -0.0010 ha        1 LI6      0.141000
     15 H13         3.5940   -0.5030    0.0000 ho        1 LI6      0.453000
     16 H111        1.2690    3.3540   -0.0000 h1        1 LI6      0.060033
     17 H112       -0.3100    3.2400   -0.9160 h1        1 LI6      0.060033
     18 H113       -0.3100    3.2410    0.9150 h1        1 LI6      0.060033
     19 H14         1.5030   -3.0290    0.0000 ho        1 LI6      0.447000
     20 H3         -4.2330    0.9880   -0.0010 ha        1 LI6      0.137000
     21 H2         -4.0810   -1.5000   -0.0000 ha        1 LI6      0.141000
     22 H1         -1.8320   -2.6070   -0.0000 ha        1 LI6      0.157000
     23 O12         2.6600    1.5640   -0.0000 o         1 LI6     -0.655500
@<TRIPOS>BOND
     1    1    2 ar  
     2    1   11 ar  
     3    1   14 1   
     4    2    3 ar  
     5    2    8 1   
     6    3    4 1   
     7    3   13 ar  
     8    4    5 2   
     9    4   10 1   
    10    5    6 1   
    11    5    7 1   
    12    6    8 1   
    13    6   23 2   
    14    7   15 1   
    15    8    9 1   
    16    9   16 1   
    17    9   17 1   
    18    9   18 1   
    19   10   19 1   
    20   11   12 ar  
    21   11   20 1   
    22   12   13 ar  
    23   12   21 1   
    24   13   22 1   
@<TRIPOS>SUBSTRUCTURE
     1 LI6         1 TEMP              0 ****  ****    0 ROOT
