@<TRIPOS>MOLECULE
LI6
   23    24     1     0     0
SMALL
bcc


@<TRIPOS>ATOM
      1 C4          0.1260    0.0620   -0.0010 c2        1 LI6     -0.212000
      2 C5          1.5870    0.0420   -0.0610 c2        1 LI6      0.207000
      3 C6          2.2860    0.0420    1.1750 c2        1 LI6     -0.274000
      4 C7          3.7340    0.0390    1.1590 c2        1 LI6      0.211000
      5 C8          4.3990    0.0570   -0.0460 c2        1 LI6     -0.149000
      6 C9          3.6770    0.0150   -1.3100 c2        1 LI6      0.329000
      7 O13         5.7680    0.1920   -0.0960 oh        1 LI6     -0.220000
      8 N10         2.2450    0.0170   -1.2620 n         1 LI6     -0.217000
      9 C11         1.5100    0.0210   -2.5060 c3        1 LI6     -0.110000
     10 O14         4.4390    0.0390    2.3190 oh        1 LI6     -0.218000
     11 C3         -0.5240    0.0710    1.1810 c2        1 LI6     -0.078000
     12 C2          0.1880    0.0620    2.4780 c3        1 LI6     -0.185000
     13 C1          1.6410    0.0490    2.4100 c1        1 LI6     -0.141000
     14 H4         -0.4410    0.0710   -0.9460 ha        1 LI6      0.144000
     15 H13         6.0760   -0.3770   -0.8210 ho        1 LI6      0.220000
     16 H111        0.8500   -0.8850   -2.5630 h1        1 LI6      0.107333
     17 H112        2.2300    0.0010   -3.3700 h1        1 LI6      0.107333
     18 H113        0.8820    0.9480   -2.5790 h1        1 LI6      0.107333
     19 H14         3.7950    0.0580    3.0580 ho        1 LI6      0.265000
     20 H3         -0.1180    0.9660    3.0840 hc        1 LI6      0.161500
     21 H2         -1.6260    0.0860    1.2130 ha        1 LI6      0.137000
     22 H1         -0.1340   -0.8390    3.0810 hc        1 LI6      0.161500
     23 O12         4.2420   -0.0550   -2.4180 o         1 LI6     -0.352000
@<TRIPOS>BOND
     1    1    2 1   
     2    1   11 1   
     3    1   14 1   
     4    2    3 1   
     5    2    8 1   
     6    3    4 1   
     7    3   13 1   
     8    4    5 1   
     9    4   10 1   
    10    5    6 1   
    11    5    7 1   
    12    6    8 1   
    13    6   23 1   
    14    7   15 1   
    15    8    9 1   
    16    9   16 1   
    17    9   17 1   
    18    9   18 1   
    19   10   19 1   
    20   11   12 1   
    21   11   21 1   
    22   12   13 1   
    23   12   20 1   
    24   12   22 1   
@<TRIPOS>SUBSTRUCTURE
     1 LI6         1 TEMP              0 ****  ****    0 ROOT
