@<TRIPOS>MOLECULE
LI6
   23    19     1     0     0
SMALL
bcc


@<TRIPOS>ATOM
      1 C4         -2.0050    0.0330   -0.2070 c1        1 LI6     -0.179000
      2 C5         -0.5970    0.0330   -0.2070 c1        1 LI6      0.098000
      3 C6          0.0900    0.0330    0.9850 c1        1 LI6     -0.099000
      4 C7          1.4770    0.0330    0.9840 c1        1 LI6      0.127000
      5 C8          2.1590    0.0330   -0.2010 c1        1 LI6     -0.134000
      6 O12         2.0680    0.0340   -2.4580 o         1 LI6     -0.380000
      7 C9          1.4620    0.0330   -1.4060 c1        1 LI6      0.334000
      8 O13         3.5560    0.0810   -0.3530 oh        1 LI6     -0.265000
      9 N10         0.0960    0.0330   -1.4050 n2        1 LI6     -0.241000
     10 C11        -0.6150    0.0400   -2.6380 c3        1 LI6     -0.090000
     11 O14         2.3270    0.3690    2.0540 oh        1 LI6     -0.241000
     12 C3         -2.7000    0.0330    0.9960 c1        1 LI6     -0.123500
     13 C2         -2.0050    0.0330    2.2020 c1        1 LI6     -0.123500
     14 C1         -0.6160    0.0330    2.2040 c1        1 LI6     -0.058000
     15 H4         -2.4930    0.0330   -1.0520 ha        1 LI6      0.141000
     16 H13         3.8850   -0.7440   -0.3310 ho        1 LI6      0.252000
     17 H111       -1.1760    0.8380   -2.6860 h1        1 LI6      0.099333
     18 H112        0.0190    0.0440   -3.3800 h1        1 LI6      0.099333
     19 H113       -1.1770   -0.7560   -2.6940 h1        1 LI6      0.099333
     20 H14         2.5450   -0.3670    2.5010 ho        1 LI6      0.246000
     21 H3         -3.6760    0.0330    0.9960 ha        1 LI6      0.139000
     22 H2         -2.4940    0.0330    3.0470 ha        1 LI6      0.139000
     23 H1         -0.1290    0.0330    3.0490 ha        1 LI6      0.157000
@<TRIPOS>BOND
     1    1    2 1   
     2    1   15 1   
     3    2    9 1   
     4    3    4 1   
     5    3   14 1   
     6    4   11 1   
     7    5    7 1   
     8    5    8 1   
     9    6    7 1   
    10    8   16 1   
    11    9   10 1   
    12   10   17 1   
    13   10   18 1   
    14   10   19 1   
    15   11   20 1   
    16   12   13 1   
    17   12   21 1   
    18   13   22 1   
    19   14   23 1   
@<TRIPOS>SUBSTRUCTURE
     1 LI6         1 TEMP              0 ****  ****    0 ROOT
