@<TRIPOS>MOLECULE
LI7
   28    30     1     0     0
SMALL
bcc


@<TRIPOS>ATOM
      1 C4          0.1260   -0.1080   -0.0860 ca        1 LI7     -0.041000
      2 C5          1.4920   -0.0280    0.0920 ca        1 LI7     -0.201900
      3 C6          2.0530    0.0470    1.4130 ca        1 LI7      0.072600
      4 C8          3.8680    0.1070   -0.0060 c         1 LI7      0.577200
      5 C13         4.0320   -0.8460   -5.3910 ca        1 LI7     -0.189500
      6 C15         5.4340    0.7740   -4.2290 ca        1 LI7     -0.189500
      7 O18         5.0510    0.1690   -0.3520 o         1 LI7     -0.591500
      8 C9          2.6090   -0.0040   -0.8860 cc        1 LI7      0.462900
      9 N7          3.4530    0.1260    1.3380 n         1 LI7     -0.479100
     10 C3         -0.7000   -0.1140    1.0490 ca        1 LI7     -0.172000
     11 C2         -0.1560   -0.0430    2.3270 ca        1 LI7     -0.081000
     12 C1          1.2270    0.0390    2.5340 ca        1 LI7     -0.175000
     13 N10         2.4390   -0.0970   -2.1520 nf        1 LI7     -0.516100
     14 C11         3.4180   -0.0770   -3.1590 ca        1 LI7      0.077400
     15 C12         3.1640   -0.8650   -4.3110 ca        1 LI7     -0.065500
     16 C14         5.1700   -0.0220   -5.3510 ca        1 LI7      0.138100
     17 O17         5.9850   -0.0440   -6.4570 oh        1 LI7     -0.494100
     18 C16         4.5680    0.7400   -3.1420 ca        1 LI7     -0.065500
     19 H4         -0.3060   -0.1660   -1.0970 ha        1 LI7      0.154000
     20 H15         6.3250    1.4170   -4.2010 ha        1 LI7      0.146500
     21 HN7         4.0550    0.1670    2.1180 hn        1 LI7      0.343500
     22 H3         -1.7900   -0.1770    0.9200 ha        1 LI7      0.138000
     23 H2         -0.8230   -0.0500    3.2040 ha        1 LI7      0.136000
     24 H1          1.6390    0.0950    3.5510 ha        1 LI7      0.142000
     25 H12         2.2700   -1.5080   -4.3530 ha        1 LI7      0.151500
     26 H17         6.7320    0.5490   -6.2900 ho        1 LI7      0.422000
     27 H16         4.7930    1.3620   -2.2600 ha        1 LI7      0.151500
     28 H13         3.8430   -1.4640   -6.2810 ha        1 LI7      0.146500
@<TRIPOS>BOND
     1    1    2 ar  
     2    1   10 ar  
     3    1   19 1   
     4    2    3 ar  
     5    2    8 1   
     6    3    9 1   
     7    3   12 ar  
     8    4    7 2   
     9    4    8 1   
    10    4    9 1   
    11    5   15 ar  
    12    5   16 ar  
    13    5   28 1   
    14    6   16 ar  
    15    6   18 ar  
    16    6   20 1   
    17    8   13 2   
    18    9   21 1   
    19   10   11 ar  
    20   10   22 1   
    21   11   12 ar  
    22   11   23 1   
    23   12   24 1   
    24   13   14 1   
    25   14   15 ar  
    26   14   18 ar  
    27   15   25 1   
    28   16   17 1   
    29   17   26 1   
    30   18   27 1   
@<TRIPOS>SUBSTRUCTURE
     1 LI7         1 TEMP              0 ****  ****    0 ROOT
