@<TRIPOS>MOLECULE
LI7
   28    30     1     0     0
SMALL
bcc


@<TRIPOS>ATOM
      1 C4          0.1270   -0.1040   -0.0850 ca        1 LI7     -0.041000
      2 C5          1.4930   -0.0270    0.0930 ca        1 LI7     -0.201900
      3 C6          2.0550    0.0470    1.4140 ca        1 LI7      0.072600
      4 C8          3.8690    0.1050   -0.0070 c         1 LI7      0.577200
      5 C13         4.0280   -0.8460   -5.3930 ca        1 LI7     -0.189500
      6 C15         5.4340    0.7710   -4.2300 ca        1 LI7     -0.189500
      7 O18         5.0520    0.1650   -0.3530 o         1 LI7     -0.591500
      8 C9          2.6100   -0.0040   -0.8860 cc        1 LI7      0.462900
      9 N7          3.4550    0.1230    1.3380 n         1 LI7     -0.479100
     10 C3         -0.6980   -0.1100    1.0510 ca        1 LI7     -0.172000
     11 C2         -0.1540   -0.0400    2.3290 ca        1 LI7     -0.081000
     12 C1          1.2300    0.0400    2.5350 ca        1 LI7     -0.175000
     13 N10         2.4390   -0.0960   -2.1520 nf        1 LI7     -0.516100
     14 C11         3.4170   -0.0770   -3.1590 ca        1 LI7      0.077400
     15 C12         3.1610   -0.8640   -4.3120 ca        1 LI7     -0.065500
     16 C14         5.1680   -0.0240   -5.3520 ca        1 LI7      0.138100
     17 O17         5.9820   -0.0470   -6.4590 oh        1 LI7     -0.494100
     18 C16         4.5680    0.7380   -3.1430 ca        1 LI7     -0.065500
     19 H4         -0.3060   -0.1610   -1.0950 ha        1 LI7      0.154000
     20 H15         6.3260    1.4130   -4.2020 ha        1 LI7      0.146500
     21 HN7         4.0570    0.1630    2.1180 hn        1 LI7      0.343500
     22 H3         -1.7890   -0.1710    0.9220 ha        1 LI7      0.138000
     23 H2         -0.8200   -0.0460    3.2060 ha        1 LI7      0.136000
     24 H1          1.6410    0.0950    3.5510 ha        1 LI7      0.142000
     25 H12         2.2660   -1.5050   -4.3530 ha        1 LI7      0.151500
     26 H17         6.7310    0.5450   -6.2920 ho        1 LI7      0.422000
     27 H16         4.7960    1.3590   -2.2600 ha        1 LI7      0.151500
     28 H13         3.8370   -1.4620   -6.2820 ha        1 LI7      0.146500
@<TRIPOS>BOND
     1    1    2 ar  
     2    1   10 ar  
     3    1   19 1   
     4    2    3 ar  
     5    2    8 1   
     6    3    9 1   
     7    3   12 ar  
     8    4    7 2   
     9    4    8 1   
    10    4    9 1   
    11    5   15 ar  
    12    5   16 ar  
    13    5   28 1   
    14    6   16 ar  
    15    6   18 ar  
    16    6   20 1   
    17    8   13 2   
    18    9   21 1   
    19   10   11 ar  
    20   10   22 1   
    21   11   12 ar  
    22   11   23 1   
    23   12   24 1   
    24   13   14 1   
    25   14   15 ar  
    26   14   18 ar  
    27   15   25 1   
    28   16   17 1   
    29   17   26 1   
    30   18   27 1   
@<TRIPOS>SUBSTRUCTURE
     1 LI7         1 TEMP              0 ****  ****    0 ROOT
