@<TRIPOS>MOLECULE
LI7
   28    30     1     0     0
SMALL
bcc


@<TRIPOS>ATOM
      1 C4         -2.8610    1.5420    0.1220 ca        1 LI7     -0.041000
      2 C5         -2.2260    0.3220    0.0160 ca        1 LI7     -0.201900
      3 C6         -2.9890   -0.8900   -0.1120 ca        1 LI7      0.072600
      4 C8         -0.7870   -1.5700   -0.1300 c         1 LI7      0.577200
      5 C13         3.7340    1.4840   -0.5450 ca        1 LI7     -0.189500
      6 C15         3.5620   -0.5640    0.7640 ca        1 LI7     -0.189500
      7 O18         0.1730   -2.3440   -0.1790 o         1 LI7     -0.591500
      8 C9         -0.7850   -0.0360    0.0030 cc        1 LI7      0.462900
      9 N7         -2.1270   -1.9950   -0.1980 n         1 LI7     -0.479100
     10 C3         -4.2640    1.5730    0.1020 ca        1 LI7     -0.172000
     11 C2         -5.0020    0.4000   -0.0230 ca        1 LI7     -0.081000
     12 C1         -4.3810   -0.8510   -0.1320 ca        1 LI7     -0.175000
     13 N10         0.1570    0.8300    0.0600 nf        1 LI7     -0.516100
     14 C11         1.5420    0.6010    0.0620 ca        1 LI7      0.077400
     15 C12         2.3520    1.5820   -0.5680 ca        1 LI7     -0.065500
     16 C14         4.3410    0.4080    0.1250 ca        1 LI7      0.138100
     17 O17         5.7150    0.3750    0.1160 oh        1 LI7     -0.494100
     18 C16         2.1760   -0.4700    0.7260 ca        1 LI7     -0.065500
     19 H4         -2.2800    2.4720    0.2210 ha        1 LI7      0.154000
     20 H15         4.0410   -1.4040    1.2870 ha        1 LI7      0.146500
     21 HN7        -2.4220   -2.9290   -0.3100 hn        1 LI7      0.343500
     22 H3         -4.7820    2.5390    0.1860 ha        1 LI7      0.138000
     23 H2         -6.1020    0.4480   -0.0380 ha        1 LI7      0.136000
     24 H1         -4.9790   -1.7660   -0.2300 ha        1 LI7      0.142000
     25 H12         1.8820    2.4320   -1.0890 ha        1 LI7      0.151500
     26 H17         5.9980   -0.4190    0.5920 ho        1 LI7      0.422000
     27 H16         1.5740   -1.2480    1.2230 ha        1 LI7      0.151500
     28 H13         4.3630    2.2370   -1.0420 ha        1 LI7      0.146500
@<TRIPOS>BOND
     1    1    2 ar  
     2    1   10 ar  
     3    1   19 1   
     4    2    3 ar  
     5    2    8 1   
     6    3    9 1   
     7    3   12 ar  
     8    4    7 2   
     9    4    8 1   
    10    4    9 1   
    11    5   15 ar  
    12    5   16 ar  
    13    5   28 1   
    14    6   16 ar  
    15    6   18 ar  
    16    6   20 1   
    17    8   13 2   
    18    9   21 1   
    19   10   11 ar  
    20   10   22 1   
    21   11   12 ar  
    22   11   23 1   
    23   12   24 1   
    24   13   14 1   
    25   14   15 ar  
    26   14   18 ar  
    27   15   25 1   
    28   16   17 1   
    29   17   26 1   
    30   18   27 1   
@<TRIPOS>SUBSTRUCTURE
     1 LI7         1 TEMP              0 ****  ****    0 ROOT
