@<TRIPOS>MOLECULE
LI7
   28    23     1     0     0
SMALL
bcc


@<TRIPOS>ATOM
      1 C4         -2.6400    0.3110    1.7790 c1        1 LI7     -0.041000
      2 C5         -1.2480    0.2710    1.6890 c1        1 LI7     -0.118000
      3 C6         -0.4710    0.2210    2.8570 c1        1 LI7      0.080000
      4 C8          1.0340    0.1840    1.0310 c1        1 LI7      0.304000
      5 C13         1.7310   -1.4800   -3.0220 c1        1 LI7     -0.213000
      6 C15         1.5510    0.8460   -3.5830 c1        1 LI7     -0.166000
      7 O18         2.0480    0.2200    0.3620 o         1 LI7     -0.316000
      8 C9         -0.3270    0.2240    0.5230 c1        1 LI7      0.022000
      9 N7          0.9710    0.1650    2.4550 n3        1 LI7     -0.333000
     10 C3         -3.2580    0.3010    3.0290 c1        1 LI7     -0.126500
     11 C2         -2.4820    0.2510    4.1940 c1        1 LI7     -0.126500
     12 C1         -1.0910    0.2110    4.1060 c1        1 LI7     -0.175000
     13 N10        -0.6800    0.1240   -0.7280 n1        1 LI7     -0.089000
     14 C11         0.3070   -0.0420   -1.7330 c1        1 LI7     -0.062000
     15 C12         0.8420   -1.2970   -1.9760 c2        1 LI7     -0.072000
     16 C14         2.0860   -0.4090   -3.8260 c1        1 LI7      0.093000
     17 O17         2.9310   -0.6110   -4.9310 oh        1 LI7     -0.248000
     18 C16         0.6620    1.0300   -2.5370 c1        1 LI7     -0.059000
     19 H4         -3.1800    0.3460    0.9680 ha        1 LI7      0.154000
     20 H13         2.1080   -2.3650   -3.1930 ha        1 LI7      0.139000
     21 H15         1.8010    1.6010   -4.1500 ha        1 LI7      0.154000
     22 HN7         1.6840    0.1270    3.0220 hn        1 LI7      0.257000
     23 H3         -4.2310    0.3290    3.0910 ha        1 LI7      0.137000
     24 H2         -2.9160    0.2440    5.0690 ha        1 LI7      0.137000
     25 H1         -0.5520    0.1760    4.9190 ha        1 LI7      0.142000
     26 H12         0.5920   -2.0520   -1.4100 ha        1 LI7      0.155000
     27 H17         2.4440   -0.8410   -5.6390 ho        1 LI7      0.221000
     28 H16         0.2850    1.9140   -2.3660 ha        1 LI7      0.148000
@<TRIPOS>BOND
     1    1    2 1   
     2    1   19 1   
     3    2    8 1   
     4    3    9 1   
     5    3   12 1   
     6    4    7 1   
     7    4    9 1   
     8    5   15 1   
     9    5   20 1   
    10    6   16 1   
    11    6   21 1   
    12    8   13 1   
    13    9   22 1   
    14   10   11 1   
    15   10   23 1   
    16   11   24 1   
    17   12   25 1   
    18   14   15 1   
    19   14   18 1   
    20   15   26 1   
    21   16   17 1   
    22   17   27 1   
    23   18   28 1   
@<TRIPOS>SUBSTRUCTURE
     1 LI7         1 TEMP              0 ****  ****    0 ROOT
