@<TRIPOS>MOLECULE
LI8
   66    63     1     0     0
SMALL
bcc


@<TRIPOS>ATOM
      1 C1         -2.7720    2.9410   -0.5440 c1        1 LI8     -0.338000
      2 C2         -1.4200    2.9880   -0.4000 c1        1 LI8      0.175000
      3 N3         -0.8760    3.0400    0.8320 n1        1 LI8     -0.280000
      4 C4         -1.6810    3.0460    1.9390 c1        1 LI8      0.183000
      5 N5         -3.0320    2.9990    1.7980 n1        1 LI8     -0.208000
      6 C6         -3.5800    2.9470    0.5680 c1        1 LI8      0.030000
      7 BR7        -3.5480    2.8790   -2.2890 br        1 LI8      0.089000
      8 N8         -1.0940    3.0580    3.2600 n3        1 LI8     -0.227000
      9 C10        -1.5950    2.1520    4.2920 c2        1 LI8      0.066000
     10 C11        -0.7920    1.1100    4.7550 c1        1 LI8     -0.218000
     11 C12        -1.2840    0.2290    5.6640 c1        1 LI8      0.087000
     12 C13        -2.6010    0.3690    6.1360 c1        1 LI8     -0.143000
     13 C14        -3.3920    1.3940    5.6810 c1        1 LI8     -0.102000
     14 C15        -2.9020    2.2850    4.7650 c2        1 LI8     -0.125000
     15 N16        -0.4930   -0.8930    6.0790 n         1 LI8     -0.311000
     16 C18        -1.0700   -2.2410    6.0560 c2        1 LI8      0.380000
     17 O19        -2.2350   -2.4080    5.6760 o         1 LI8     -0.377000
     18 N20        -0.2250   -3.4130    6.4000 n         1 LI8     -0.300000
     19 C21        -0.5720   -4.6860    6.3490 c3        1 LI8     -0.047000
     20 C22         0.3480   -5.4090    7.4350 c3        1 LI8     -0.170000
     21 C23         1.4150   -4.3710    7.8270 c3        1 LI8     -0.170000
     22 C24         1.2960   -3.3790    6.9070 c3        1 LI8     -0.047000
     23 N25        -0.5460    2.8850   -1.5850 n3        1 LI8     -0.254000
     24 C27        -0.8620    1.9200   -2.6480 c3        1 LI8     -0.065000
     25 C28         0.1620    2.0630   -3.7940 c3        1 LI8     -0.188000
     26 N29         1.1850    0.9360   -5.6340 n         1 LI8     -0.363000
     27 C31         1.4530   -0.1690   -6.4770 c2        1 LI8      0.305000
     28 O32         1.1180   -1.2830   -6.1400 o         1 LI8     -0.391000
     29 C33         0.3280    0.7710   -4.4660 c3        1 LI8     -0.031000
     30 C34         2.2850    0.0280   -7.7560 c3        1 LI8     -0.082000
     31 C35         3.6850    0.5940   -7.3780 c3        1 LI8     -0.208000
     32 C36         1.5620    1.0260   -8.6890 c3        1 LI8     -0.208000
     33 C37         2.4480   -1.3090   -8.4640 c2        1 LI8      0.306000
     34 O38         1.7860   -2.2290   -8.1390 o         1 LI8     -0.375000
     35 N39         3.3390   -1.4220   -9.5990 n         1 LI8     -0.423000
     36 H6         -4.6140    2.9120    0.4620 ha        1 LI8      0.179000
     37 HN8        -0.4150    3.6940    3.4740 hn        1 LI8      0.235000
     38 H11         0.1590    1.0090    4.4110 ha        1 LI8      0.128000
     39 H13        -2.9470   -0.2510    6.7770 ha        1 LI8      0.174000
     40 H14        -4.2740    1.4830    5.9990 ha        1 LI8      0.140000
     41 H15        -3.4500    2.9930    4.4540 ha        1 LI8      0.156000
     42 H16         0.4050   -0.7610    6.3910 hn        1 LI8      0.222000
     43 H211       -1.4920   -4.7890    6.5710 h1        1 LI8      0.094500
     44 H212       -0.3990   -5.0470    5.4680 h1        1 LI8      0.094500
     45 H221       -0.1710   -5.6550    8.2010 hc        1 LI8      0.093500
     46 H222        0.7600   -6.1790    7.0560 hc        1 LI8      0.093500
     47 H231        2.2780   -4.7550    7.7870 hc        1 LI8      0.093500
     48 H232        1.2340   -4.0190    8.7400 hc        1 LI8      0.093500
     49 H241        1.5130   -2.4290    7.3610 h1        1 LI8      0.094500
     50 H242        1.9100   -3.5450    6.1510 h1        1 LI8      0.094500
     51 H25         0.2460    3.3250   -1.6000 hn        1 LI8      0.192000
     52 H271       -1.7460    2.0900   -2.9840 h1        1 LI8      0.089000
     53 H272       -0.8210    1.0550   -2.3020 h1        1 LI8      0.089000
     54 H281        1.0520    2.3650   -3.4160 hc        1 LI8      0.096000
     55 H282       -0.1730    2.7500   -4.4590 hc        1 LI8      0.096000
     56 H29         1.4680    1.7890   -5.8860 hn        1 LI8      0.232000
     57 H331        0.7300    0.1410   -3.8550 h1        1 LI8      0.106000
     58 H332       -0.5020    0.4540   -4.7340 h1        1 LI8      0.106000
     59 H351        3.5780    1.5280   -6.9860 hc        1 LI8      0.093500
     60 H352        4.1190   -0.0080   -6.7000 hc        1 LI8      0.093500
     61 H353        4.2330    0.6380   -8.1610 hc        1 LI8      0.093500
     62 H361        1.6440    1.8940   -8.3390 hc        1 LI8      0.093500
     63 H362        0.6240    0.7910   -8.7480 hc        1 LI8      0.093500
     64 H363        1.9710    0.9940   -9.5960 hc        1 LI8      0.093500
     65 H391        3.5170   -2.2720   -9.9800 hn        1 LI8      0.237500
     66 H392        3.7260   -0.6440   -9.9760 hn        1 LI8      0.237500
@<TRIPOS>BOND
     1    1    6 1   
     2    1    7 1   
     3    2    3 1   
     4    2   23 1   
     5    4    5 1   
     6    4    8 1   
     7    6   36 1   
     8    8    9 1   
     9    8   37 1   
    10    9   10 1   
    11    9   14 1   
    12   10   38 1   
    13   11   12 1   
    14   11   15 1   
    15   12   39 1   
    16   13   14 1   
    17   13   40 1   
    18   14   41 1   
    19   15   16 1   
    20   15   42 1   
    21   16   17 1   
    22   16   18 1   
    23   18   19 1   
    24   18   22 1   
    25   19   20 1   
    26   19   43 1   
    27   19   44 1   
    28   20   21 1   
    29   20   45 1   
    30   20   46 1   
    31   21   22 1   
    32   21   47 1   
    33   21   48 1   
    34   22   49 1   
    35   22   50 1   
    36   23   24 1   
    37   23   51 1   
    38   24   25 1   
    39   24   52 1   
    40   24   53 1   
    41   25   29 1   
    42   25   54 1   
    43   25   55 1   
    44   26   27 1   
    45   26   29 1   
    46   26   56 1   
    47   27   28 1   
    48   27   30 1   
    49   29   57 1   
    50   29   58 1   
    51   30   31 1   
    52   30   32 1   
    53   30   33 1   
    54   31   59 1   
    55   31   60 1   
    56   31   61 1   
    57   32   62 1   
    58   32   63 1   
    59   32   64 1   
    60   33   34 1   
    61   33   35 1   
    62   35   65 1   
    63   35   66 1   
@<TRIPOS>SUBSTRUCTURE
     1 LI8         1 TEMP              0 ****  ****    0 ROOT
