@<TRIPOS>MOLECULE
LI8
   66    68     1     0     0
SMALL
bcc


@<TRIPOS>ATOM
      1 C1          0.3870    3.6370   -0.2910 ca        1 LI8     -0.395500
      2 C2          0.8040    2.2880   -0.5710 ca        1 LI8      0.752200
      3 N3         -0.0980    1.3490   -1.0000 nb        1 LI8     -0.817000
      4 C4         -1.4010    1.7680   -1.2000 ca        1 LI8      0.917900
      5 N5         -1.8730    3.0530   -0.9500 nb        1 LI8     -0.764000
      6 C6         -0.9690    3.9330   -0.5070 ca        1 LI8      0.517200
      7 BR7         1.5440    4.9510    0.3260 br        1 LI8     -0.072100
      8 N8         -2.2690    0.8030   -1.7480 nh        1 LI8     -0.705300
      9 C10        -3.6780    0.9290   -1.6750 ca        1 LI8      0.151600
     10 C11        -4.4240   -0.1190   -1.0940 ca        1 LI8     -0.181000
     11 C12        -5.8290   -0.0680   -1.0770 ca        1 LI8      0.079600
     12 C13        -6.4830    1.0530   -1.6440 ca        1 LI8     -0.191000
     13 C14        -5.7370    2.0720   -2.2200 ca        1 LI8     -0.098000
     14 C15        -4.3460    2.0260   -2.2510 ca        1 LI8     -0.128000
     15 N16        -6.6210   -1.1200   -0.5740 n         1 LI8     -0.456100
     16 C18        -6.2180   -1.9800    0.4680 c         1 LI8      0.754100
     17 O19        -5.0290   -2.0490    0.8570 o         1 LI8     -0.621100
     18 N20        -7.2130   -2.7550    1.1140 n         1 LI8     -0.442800
     19 C21        -6.7580   -3.7940    2.0340 c3        1 LI8      0.069500
     20 C22        -7.7480   -4.9660    1.9590 c3        1 LI8     -0.091400
     21 C23        -8.8410   -4.5460    0.9830 c3        1 LI8     -0.091400
     22 C24        -8.4040   -3.1910    0.4000 c3        1 LI8      0.069500
     23 N25         2.1370    1.9390   -0.4450 nh        1 LI8     -0.857900
     24 C27         2.5810    0.5710   -0.5480 c3        1 LI8      0.214800
     25 C28         4.0900    0.4290   -0.3470 c3        1 LI8     -0.121400
     26 N29         5.8680   -1.3130   -0.3780 n         1 LI8     -0.564900
     27 C31         6.4290   -1.9330    0.7140 c         1 LI8      0.662100
     28 O32         5.7380   -2.3730    1.6530 o         1 LI8     -0.608100
     29 C33         4.4610   -1.0510   -0.4850 c3        1 LI8      0.093000
     30 C34         7.9650   -2.0690    0.7340 c3        1 LI8     -0.183000
     31 C35         8.3600   -2.9630    1.8970 c3        1 LI8     -0.089600
     32 C36         8.5760   -0.6880    0.9370 c3        1 LI8     -0.089600
     33 C37         8.4250   -2.6040   -0.6300 c         1 LI8      0.662100
     34 O38         8.4780   -1.8450   -1.6230 o         1 LI8     -0.632100
     35 N39         8.7670   -3.9200   -0.7690 n         1 LI8     -0.659000
     36 H6         -1.3640    4.9490   -0.3080 h4        1 LI8      0.036100
     37 HN8        -1.9400   -0.1410   -1.6790 hn        1 LI8      0.442800
     38 H11        -3.9020   -0.9800   -0.6410 ha        1 LI8      0.173000
     39 H13        -7.5800    1.1260   -1.6370 ha        1 LI8      0.129000
     40 H14        -6.2560    2.9360   -2.6630 ha        1 LI8      0.135000
     41 H15        -3.7860    2.8480   -2.7220 ha        1 LI8      0.157000
     42 H16        -7.6030   -0.9820   -0.6890 hn        1 LI8      0.310500
     43 H211       -5.7120   -4.1290    1.7880 h1        1 LI8      0.055450
     44 H212       -6.7420   -3.3460    3.0660 h1        1 LI8      0.055450
     45 H221       -7.2280   -5.8890    1.6030 hc        1 LI8      0.053950
     46 H222       -8.1720   -5.1800    2.9700 hc        1 LI8      0.053950
     47 H231       -8.9640   -5.2980    0.1660 hc        1 LI8      0.053950
     48 H232       -9.8230   -4.4420    1.5050 hc        1 LI8      0.053950
     49 H241       -9.2070   -2.4180    0.5490 h1        1 LI8      0.055450
     50 H242       -8.2220   -3.2970   -0.7060 h1        1 LI8      0.055450
     51 H25         2.7130    2.5640    0.0740 hn        1 LI8      0.440800
     52 H271        2.3060    0.1850   -1.5720 h1        1 LI8      0.057200
     53 H272        2.0480   -0.0730    0.2120 h1        1 LI8      0.057200
     54 H281        4.3850    0.8020    0.6680 hc        1 LI8      0.054200
     55 H282        4.6410    1.0400   -1.1080 hc        1 LI8      0.054200
     56 H29         6.4650   -0.9440   -1.0850 hn        1 LI8      0.336500
     57 H331        4.1140   -1.4150   -1.4950 h1        1 LI8      0.065700
     58 H332        3.9170   -1.6410    0.3090 h1        1 LI8      0.065700
     59 H351        8.1070   -2.4490    2.8580 hc        1 LI8      0.054200
     60 H352        7.7930   -3.9250    1.8770 hc        1 LI8      0.054200
     61 H353        9.4570   -3.1680    1.8780 hc        1 LI8      0.054200
     62 H361        9.6750   -0.7830    1.1060 hc        1 LI8      0.054200
     63 H362        8.4120   -0.0470    0.0360 hc        1 LI8      0.054200
     64 H363        8.1160   -0.1960    1.8270 hc        1 LI8      0.054200
     65 H391        8.7140   -4.5530   -0.0130 hn        1 LI8      0.318500
     66 H392        9.0480   -4.2560   -1.6570 hn        1 LI8      0.318500
@<TRIPOS>BOND
     1    1    2 ar  
     2    1    6 ar  
     3    1    7 1   
     4    2    3 ar  
     5    2   23 1   
     6    3    4 ar  
     7    4    5 ar  
     8    4    8 1   
     9    5    6 ar  
    10    6   36 1   
    11    8    9 1   
    12    8   37 1   
    13    9   10 ar  
    14    9   14 ar  
    15   10   11 ar  
    16   10   38 1   
    17   11   12 ar  
    18   11   15 1   
    19   12   13 ar  
    20   12   39 1   
    21   13   14 ar  
    22   13   40 1   
    23   14   41 1   
    24   15   16 1   
    25   15   42 1   
    26   16   17 2   
    27   16   18 1   
    28   18   19 1   
    29   18   22 1   
    30   19   20 1   
    31   19   43 1   
    32   19   44 1   
    33   20   21 1   
    34   20   45 1   
    35   20   46 1   
    36   21   22 1   
    37   21   47 1   
    38   21   48 1   
    39   22   49 1   
    40   22   50 1   
    41   23   24 1   
    42   23   51 1   
    43   24   25 1   
    44   24   52 1   
    45   24   53 1   
    46   25   29 1   
    47   25   54 1   
    48   25   55 1   
    49   26   27 1   
    50   26   29 1   
    51   26   56 1   
    52   27   28 2   
    53   27   30 1   
    54   29   57 1   
    55   29   58 1   
    56   30   31 1   
    57   30   32 1   
    58   30   33 1   
    59   31   59 1   
    60   31   60 1   
    61   31   61 1   
    62   32   62 1   
    63   32   63 1   
    64   32   64 1   
    65   33   34 2   
    66   33   35 1   
    67   35   65 1   
    68   35   66 1   
@<TRIPOS>SUBSTRUCTURE
     1 LI8         1 TEMP              0 ****  ****    0 ROOT
