@<TRIPOS>MOLECULE
LI8
   68    70     1     0     0
SMALL
bcc


@<TRIPOS>ATOM
      1 C1         -1.0830   -0.8250   -1.5820 ca        1 LI8     -0.319200
      2 C2          0.0810   -0.0640   -1.9350 ca        1 LI8      0.227500
      3 N3          1.0430    0.1600   -0.9460 na        1 LI8     -0.390900
      4 C4          0.8850   -0.4100    0.3470 ca        1 LI8      0.713000
      5 N5         -0.2500   -1.1130    0.6850 nb        1 LI8     -0.722000
      6 C6         -1.1820   -1.2960   -0.2600 ca        1 LI8      0.588200
      7 Br7        -2.4290   -1.1790   -2.8050 br        1 LI8      0.037900
      8 N8          1.9460   -0.2590    1.2100 nu        1 LI8     -0.290000
      9 C10         1.9820   -0.6280    2.5820 ca        1 LI8     -0.006200
     10 C11         2.7170    0.2270    3.4360 ca        1 LI8     -0.197000
     11 C12         2.9160   -0.1190    4.7820 ca        1 LI8      0.100600
     12 C13         2.3170   -1.3030    5.2830 ca        1 LI8     -0.149000
     13 C14         1.5780   -2.1150    4.4360 ca        1 LI8     -0.076000
     14 C15         1.4160   -1.8090    3.0820 ca        1 LI8     -0.118000
     15 N16         3.6510    0.7000    5.6540 ns        1 LI8     -0.469100
     16 C18         4.7480    1.4810    5.2540 c         1 LI8      0.818100
     17 O19         5.1300    1.4970    4.0400 o         1 LI8     -0.795100
     18 N20         5.4450    2.2040    6.2020 n         1 LI8     -0.448800
     19 C21         6.4820    3.1480    5.8070 c3        1 LI8      0.088000
     20 C22         6.7580    4.0540    7.0160 c3        1 LI8     -0.089900
     21 C23         5.8560    3.5670    8.1460 c3        1 LI8     -0.089900
     22 C24         4.9960    2.4320    7.5670 c3        1 LI8      0.088000
     23 N25         0.2560    0.4300   -3.1980 nu        1 LI8     -0.278200
     24 C27         1.2840    1.3610   -3.5900 c3        1 LI8      0.014300
     25 C28         2.7170    0.8140   -3.5870 c3        1 LI8     -0.140400
     26 N29         4.9340    1.3370   -2.5380 ns        1 LI8     -0.513900
     27 C31         5.1450    0.9370   -1.2550 c         1 LI8      0.681100
     28 O32         4.2210    0.9550   -0.3970 o         1 LI8     -0.724100
     29 C33         3.6630    1.8570   -2.9810 c3        1 LI8      0.078000
     30 C34         6.5640    0.4970   -0.8460 c3        1 LI8     -0.171000
     31 C35         7.4890    1.7070   -0.8350 c3        1 LI8     -0.118100
     32 C36         7.1000   -0.5670   -1.7980 c3        1 LI8     -0.118100
     33 C37         6.4970   -0.1240    0.5470 c         1 LI8      0.548100
     34 O38         6.7120   -1.2890    0.8390 o         1 LI8     -0.380100
     35 N39         6.1390    0.7830    1.6790 nz        1 LI8     -0.741400
     36 H6         -2.0770   -1.8690    0.0790 h4        1 LI8      0.092100
     37 HN8         2.6730    0.3790    0.9420 hn        1 LI8      0.310700
     38 H11         3.1360    1.1740    3.0550 ha        1 LI8      0.150000
     39 H13         2.4310   -1.5850    6.3430 ha        1 LI8      0.162000
     40 H14         1.1150   -3.0350    4.8340 ha        1 LI8      0.169000
     41 H15         0.8530   -2.5080    2.4460 ha        1 LI8      0.170000
     42 H16         3.4790    0.5690    6.6280 hn        1 LI8      0.344500
     43 H211        6.1450    3.7450    4.9150 h1        1 LI8      0.054200
     44 H212        7.4010    2.5690    5.5150 h1        1 LI8      0.054200
     45 H221        7.8350    3.9890    7.3080 hc        1 LI8      0.073450
     46 H222        6.5350    5.1190    6.7590 hc        1 LI8      0.073450
     47 H231        5.2030    4.3910    8.5240 hc        1 LI8      0.073450
     48 H232        6.4630    3.1880    9.0060 hc        1 LI8      0.073450
     49 H241        5.1300    1.4860    8.1610 h1        1 LI8      0.054200
     50 H242        3.9070    2.7180    7.5880 h1        1 LI8      0.054200
     51 H25        -0.4440    0.1950   -3.8780 hn        1 LI8      0.344700
     52 H271        1.0300    1.6940   -4.6410 h1        1 LI8      0.086700
     53 H272        1.2140    2.2750   -2.9290 h1        1 LI8      0.086700
     54 H281        3.0270    0.5990   -4.6450 hc        1 LI8      0.077700
     55 H282        2.7940   -0.1610   -3.0380 hc        1 LI8      0.077700
     56 H29         1.8710    0.6900   -1.1610 hn        1 LI8      0.329700
     57 H331        3.1660    2.3550   -2.0960 h1        1 LI8      0.080200
     58 H332        3.8710    2.6530   -3.7550 h1        1 LI8      0.080200
     59 H351        7.7050    2.0280   -1.8850 hc        1 LI8      0.081033
     60 H352        8.4640    1.4460   -0.3540 hc        1 LI8      0.081033
     61 H353        7.0290    2.5730   -0.3000 hc        1 LI8      0.081033
     62 H361        7.3210   -0.1240   -2.8000 hc        1 LI8      0.081033
     63 H362        8.0520   -0.9960   -1.3940 hc        1 LI8      0.081033
     64 H363        6.3640   -1.4000   -1.9140 hc        1 LI8      0.081033
     65 H391        5.1860    1.1570    1.5460 hn        1 LI8      0.486133
     66 H392        6.7900    1.5710    1.7430 hn        1 LI8      0.486133
     67 H292        5.6620    1.2510   -3.2120 hn        1 LI8      0.348500
     68 H393        6.1460    0.2830    2.5890 hn        1 LI8      0.486133
@<TRIPOS>BOND
     1    1    2 ar  
     2    1    6 ar  
     3    1    7 1   
     4    2    3 2   
     5    2   23 1   
     6    3    4 1   
     7    3   56 1   
     8    4    5 ar  
     9    4    8 1   
    10    5    6 ar  
    11    6   36 1   
    12    8    9 1   
    13    8   37 1   
    14    9   10 ar  
    15    9   14 ar  
    16   10   11 ar  
    17   10   38 1   
    18   11   12 ar  
    19   11   15 1   
    20   12   13 ar  
    21   12   39 1   
    22   13   14 ar  
    23   13   40 1   
    24   14   41 1   
    25   15   16 1   
    26   15   42 1   
    27   16   17 2   
    28   16   18 1   
    29   18   19 1   
    30   18   22 1   
    31   19   20 1   
    32   19   43 1   
    33   19   44 1   
    34   20   21 1   
    35   20   45 1   
    36   20   46 1   
    37   21   22 1   
    38   21   47 1   
    39   21   48 1   
    40   22   49 1   
    41   22   50 1   
    42   23   24 1   
    43   23   51 1   
    44   24   25 1   
    45   24   52 1   
    46   24   53 1   
    47   25   29 1   
    48   25   54 1   
    49   25   55 1   
    50   26   27 1   
    51   26   29 1   
    52   26   67 1   
    53   27   28 2   
    54   27   30 1   
    55   29   57 1   
    56   29   58 1   
    57   30   31 1   
    58   30   32 1   
    59   30   33 1   
    60   31   59 1   
    61   31   60 1   
    62   31   61 1   
    63   32   62 1   
    64   32   63 1   
    65   32   64 1   
    66   33   34 2   
    67   33   35 1   
    68   35   65 1   
    69   35   66 1   
    70   35   68 1   
@<TRIPOS>SUBSTRUCTURE
     1 LI8         1 TEMP              0 ****  ****    0 ROOT
