@<TRIPOS>MOLECULE
LI8
   71    73     1     0     0
SMALL
bcc


@<TRIPOS>ATOM
      1 C1          2.5950    2.0680    0.9100 ca        1 LI8     -0.209500
      2 C2          2.9730    0.7140    0.7530 ca        1 LI8      0.524200
      3 N3          3.2040   -0.1220    1.8160 nb        1 LI8     -0.670000
      4 C4          3.0370    0.4260    3.0560 ca        1 LI8      0.767900
      5 N5          2.6800    1.7340    3.3250 nb        1 LI8     -0.585000
      6 C6          2.4730    2.5210    2.2680 ca        1 LI8      0.531200
      7 BR7         2.2240    3.2380   -0.4710 br        1 LI8      0.125900
      8 N8          3.2860   -0.4590    4.2450 n4        1 LI8     -0.608100
      9 C10         2.2170   -0.4250    5.2610 ca        1 LI8     -0.053400
     10 C11         2.4570    0.2170    6.4900 ca        1 LI8     -0.035000
     11 C12         1.4690    0.1480    7.4940 ca        1 LI8      0.015600
     12 C13         0.2520   -0.5170    7.2480 ca        1 LI8     -0.032000
     13 C14         0.0350   -1.1290    6.0120 ca        1 LI8     -0.072000
     14 C15         1.0040   -1.0960    5.0140 ca        1 LI8     -0.064000
     15 N16         1.7050    0.7600    8.8010 n4        1 LI8     -0.565200
     16 C18         1.8750    2.3320    8.7190 c         1 LI8      0.651100
     17 O19         2.4540    2.6830    7.6810 o         1 LI8     -0.546100
     18 N20         1.3780    3.0580    9.7320 n         1 LI8     -0.388800
     19 C21         1.5940    4.5200    9.7790 c3        1 LI8      0.074000
     20 C22         1.1280    4.9860   11.1620 c3        1 LI8     -0.090900
     21 C23         0.5680    3.7670   11.8890 c3        1 LI8     -0.090900
     22 C24         0.7800    2.5540   10.9690 c3        1 LI8      0.074000
     23 N25         3.0640    0.1100   -0.6050 n4        1 LI8     -0.754700
     24 C27         4.3870    0.3390   -1.2860 c3        1 LI8      0.115800
     25 C28         4.3890   -0.1660   -2.7370 c3        1 LI8     -0.134400
     26 N29         5.8530   -0.2930   -4.8090 n4        1 LI8     -0.673800
     27 C31         7.2030    0.0460   -5.4320 c         1 LI8      0.537100
     28 O32         7.9930    0.6340   -4.7200 o         1 LI8     -0.343100
     29 C33         5.7460    0.1440   -3.3770 c3        1 LI8      0.109800
     30 C34         7.4310   -0.3350   -6.9070 c3        1 LI8     -0.143000
     31 C35         7.2920    0.9500   -7.7160 c3        1 LI8     -0.151600
     32 C36         6.4720   -1.3990   -7.4170 c3        1 LI8     -0.151600
     33 C37         8.8510   -0.9190   -6.9760 c         1 LI8      0.526100
     34 O38         9.3850   -1.5370   -6.0690 o         1 LI8     -0.349100
     35 N39         9.6270   -0.7660   -8.2420 n4        1 LI8     -0.736400
     36 H6          2.1830    3.5810    2.4980 h4        1 LI8      0.138100
     37 HN8         3.3940   -1.4400    3.9280 hn        1 LI8      0.499300
     38 H11         3.3900    0.7850    6.6750 ha        1 LI8      0.198000
     39 H13        -0.5460   -0.5750    8.0160 ha        1 LI8      0.205000
     40 H14        -0.9230   -1.6590    5.8300 ha        1 LI8      0.218000
     41 H15         0.8060   -1.6110    4.0570 ha        1 LI8      0.175000
     42 H16         2.5820    0.3910    9.1920 hn        1 LI8      0.473800
     43 H211        0.9890    4.9890    8.9540 h1        1 LI8      0.077950
     44 H212        2.6830    4.7430    9.6060 h1        1 LI8      0.077950
     45 H221        0.3450    5.7810   11.0540 hc        1 LI8      0.102200
     46 H222        1.9860    5.4290   11.7290 hc        1 LI8      0.102200
     47 H231       -0.5230    3.8970   12.1070 hc        1 LI8      0.102200
     48 H232        1.0940    3.6060   12.8650 hc        1 LI8      0.102200
     49 H241        1.4670    1.8080   11.4580 h1        1 LI8      0.077950
     50 H242       -0.2040    2.0610   10.7330 h1        1 LI8      0.077950
     51 H25         2.8950   -0.9100   -0.5400 hn        1 LI8      0.489300
     52 H271        4.6040    1.4480   -1.2620 hx        1 LI8      0.132700
     53 H272        5.1780   -0.1980   -0.6840 hx        1 LI8      0.132700
     54 H281        3.5670    0.3360   -3.3190 hc        1 LI8      0.098200
     55 H282        4.2000   -1.2750   -2.7560 hc        1 LI8      0.098200
     56 H29         5.1170    0.1620   -5.3690 hn        1 LI8      0.476300
     57 H331        6.5750   -0.3720   -2.8050 hx        1 LI8      0.136700
     58 H332        5.9450    1.2580   -3.3490 hx        1 LI8      0.136700
     59 H351        8.0740    1.7000   -7.4360 hc        1 LI8      0.102700
     60 H352        7.3530    0.7340   -8.8140 hc        1 LI8      0.102700
     61 H353        6.2870    1.4130   -7.5410 hc        1 LI8      0.102700
     62 H361        6.5160   -2.3310   -6.8020 hc        1 LI8      0.102700
     63 H362        6.7340   -1.6800   -8.4730 hc        1 LI8      0.102700
     64 H363        5.4240   -1.0090   -7.4550 hc        1 LI8      0.102700
     65 H391       10.5620   -1.2080   -8.1350 hn        1 LI8      0.504133
     66 H392        9.1410   -1.2230   -9.0290 hn        1 LI8      0.504133
     67 H82         4.1750   -0.1450    4.6770 hn        1 LI8      0.499300
     68 H162        0.9350    0.5090    9.4360 hn        1 LI8      0.473800
     69 H252        2.3050    0.5240   -1.1750 hn        1 LI8      0.489300
     70 H292        5.7160   -1.3120   -4.8740 hn        1 LI8      0.476300
     71 H393        9.7610    0.2320   -8.4700 hn        1 LI8      0.504133
@<TRIPOS>BOND
     1    1    2 ar  
     2    1    6 ar  
     3    1    7 1   
     4    2    3 ar  
     5    2   23 1   
     6    3    4 ar  
     7    4    5 ar  
     8    4    8 1   
     9    5    6 ar  
    10    6   36 1   
    11    8    9 1   
    12    8   37 1   
    13    8   67 1   
    14    9   10 ar  
    15    9   14 ar  
    16   10   11 ar  
    17   10   38 1   
    18   11   12 ar  
    19   11   15 1   
    20   12   13 ar  
    21   12   39 1   
    22   13   14 ar  
    23   13   40 1   
    24   14   41 1   
    25   15   16 1   
    26   15   42 1   
    27   15   68 1   
    28   16   17 2   
    29   16   18 1   
    30   18   19 1   
    31   18   22 1   
    32   19   20 1   
    33   19   43 1   
    34   19   44 1   
    35   20   21 1   
    36   20   45 1   
    37   20   46 1   
    38   21   22 1   
    39   21   47 1   
    40   21   48 1   
    41   22   49 1   
    42   22   50 1   
    43   23   24 1   
    44   23   51 1   
    45   23   69 1   
    46   24   25 1   
    47   24   52 1   
    48   24   53 1   
    49   25   29 1   
    50   25   54 1   
    51   25   55 1   
    52   26   27 1   
    53   26   29 1   
    54   26   56 1   
    55   26   70 1   
    56   27   28 2   
    57   27   30 1   
    58   29   57 1   
    59   29   58 1   
    60   30   31 1   
    61   30   32 1   
    62   30   33 1   
    63   31   59 1   
    64   31   60 1   
    65   31   61 1   
    66   32   62 1   
    67   32   63 1   
    68   32   64 1   
    69   33   34 2   
    70   33   35 1   
    71   35   65 1   
    72   35   66 1   
    73   35   71 1   
@<TRIPOS>SUBSTRUCTURE
     1 LI8         1 TEMP              0 ****  ****    0 ROOT
