@<TRIPOS>MOLECULE
LI8
   68    70     1     0     0
SMALL
bcc


@<TRIPOS>ATOM
      1 C1         -1.1020   -0.8950   -1.5100 ca        1 LI8     -0.319200
      2 C2          0.0390   -0.1090   -1.8770 ca        1 LI8      0.227500
      3 N3          1.0140    0.1260   -0.9020 na        1 LI8     -0.390900
      4 C4          0.8910   -0.4600    0.3880 ca        1 LI8      0.713000
      5 N5         -0.2230   -1.1890    0.7390 nb        1 LI8     -0.722000
      6 C6         -1.1680   -1.3820   -0.1910 ca        1 LI8      0.588200
      7 BR7        -2.4620   -1.2650   -2.7130 br        1 LI8      0.037900
      8 N8          1.9640   -0.2960    1.2330 nh        1 LI8     -0.290000
      9 C10         2.0320   -0.6780    2.6010 ca        1 LI8     -0.007200
     10 C11         2.7650    0.1840    3.4500 ca        1 LI8     -0.197000
     11 C12         2.9940   -0.1700    4.7890 ca        1 LI8      0.100600
     12 C13         2.4290   -1.3710    5.2880 ca        1 LI8     -0.149000
     13 C14         1.6920   -2.1900    4.4470 ca        1 LI8     -0.076000
     14 C15         1.5000   -1.8750    3.0990 ca        1 LI8     -0.118000
     15 N16         3.7280    0.6550    5.6550 n         1 LI8     -0.469100
     16 C18         4.8010    1.4630    5.2440 c         1 LI8      0.818100
     17 O19         5.1610    1.4980    4.0240 o         1 LI8     -0.795100
     18 N20         5.5000    2.1910    6.1870 n         1 LI8     -0.448800
     19 C21         6.5090    3.1610    5.7830 c3        1 LI8      0.088000
     20 C22         6.7880    4.0610    6.9970 c3        1 LI8     -0.089900
     21 C23         5.9170    3.5430    8.1370 c3        1 LI8     -0.089900
     22 C24         5.0700    2.3960    7.5620 c3        1 LI8      0.088000
     23 N25         0.1820    0.4010   -3.1370 nh        1 LI8     -0.278200
     24 C27         1.1840    1.3560   -3.5380 c3        1 LI8      0.014300
     25 C28         2.6280    0.8380   -3.5650 c3        1 LI8     -0.140400
     26 N29         4.8520    1.3960   -2.5510 n         1 LI8     -0.513900
     27 C31         5.0940    0.9890   -1.2750 c         1 LI8      0.681100
     28 O32         4.1860    0.9810   -0.4010 o         1 LI8     -0.724100
     29 C33         3.5630    1.8940   -2.9660 c3        1 LI8      0.078000
     30 C34         6.5280    0.5740   -0.8960 c3        1 LI8     -0.171000
     31 C35         7.4290    1.8010   -0.8910 c3        1 LI8     -0.118100
     32 C36         7.0670   -0.4720   -1.8670 c3        1 LI8     -0.118100
     33 C37         6.5000   -0.0600    0.4920 c         1 LI8      0.548100
     34 O38         6.7430   -1.2230    0.7700 o         1 LI8     -0.380100
     35 N39         6.1450    0.8300    1.6390 n4        1 LI8     -0.741400
     36 H6         -2.0460   -1.9760    0.1570 h4        1 LI8      0.092100
     37 HN8         2.6740    0.3580    0.9580 hn        1 LI8      0.310700
     38 H11         3.1580    1.1430    3.0710 ha        1 LI8      0.150000
     39 H13         2.5680   -1.6610    6.3430 ha        1 LI8      0.162000
     40 H14         1.2550   -3.1230    4.8430 ha        1 LI8      0.169000
     41 H15         0.9390   -2.5790    2.4660 ha        1 LI8      0.170000
     42 H16         3.5760    0.5110    6.6310 hn        1 LI8      0.344500
     43 H211        6.1440    3.7600    4.9040 h1        1 LI8      0.054200
     44 H212        7.4340    2.6050    5.4690 h1        1 LI8      0.054200
     45 H221        6.5370    5.1230    6.7540 hc        1 LI8      0.073450
     46 H222        7.8710    4.0160    7.2690 hc        1 LI8      0.073450
     47 H231        5.2530    4.3500    8.5350 hc        1 LI8      0.073450
     48 H232        6.5470    3.1690    8.9820 hc        1 LI8      0.073450
     49 H241        5.2350    1.4470    8.1440 h1        1 LI8      0.054200
     50 H242        3.9770    2.6580    7.6060 h1        1 LI8      0.054200
     51 H25        -0.5250    0.1580   -3.8070 hn        1 LI8      0.344700
     52 H271        1.1070    2.2630   -2.8660 h1        1 LI8      0.086700
     53 H272        0.9050    1.6950   -4.5810 h1        1 LI8      0.086700
     54 H281        2.9230    0.6400   -4.6310 hc        1 LI8      0.077700
     55 H282        2.7340   -0.1400   -3.0280 hc        1 LI8      0.077700
     56 H29         1.8270    0.6740   -1.1270 hn        1 LI8      0.329700
     57 H331        3.7410    2.7010   -3.7350 h1        1 LI8      0.080200
     58 H332        3.0720    2.3740   -2.0680 h1        1 LI8      0.080200
     59 H351        7.6210    2.1350   -1.9430 hc        1 LI8      0.081033
     60 H352        6.9630    2.6530   -0.3410 hc        1 LI8      0.081033
     61 H353        8.4190    1.5560   -0.4310 hc        1 LI8      0.081033
     62 H361        6.3460   -1.3180   -1.9770 hc        1 LI8      0.081033
     63 H362        7.2610   -0.0170   -2.8690 hc        1 LI8      0.081033
     64 H363        8.0360   -0.8850   -1.4850 hc        1 LI8      0.081033
     65 H391        6.7800    1.6310    1.6980 hn        1 LI8      0.486133
     66 H392        6.1790    0.3230    2.5440 hn        1 LI8      0.486133
     67 H292        5.5690    1.3310   -3.2390 hn        1 LI8      0.348500
     68 H393        5.1810    1.1850    1.5260 hn        1 LI8      0.486133
@<TRIPOS>BOND
     1    1    2 ar  
     2    1    6 ar  
     3    1    7 1   
     4    2    3 2   
     5    2   23 1   
     6    3    4 1   
     7    3   56 1   
     8    4    5 ar  
     9    4    8 1   
    10    5    6 ar  
    11    6   36 1   
    12    8    9 1   
    13    8   37 1   
    14    9   10 ar  
    15    9   14 ar  
    16   10   11 ar  
    17   10   38 1   
    18   11   12 ar  
    19   11   15 1   
    20   12   13 ar  
    21   12   39 1   
    22   13   14 ar  
    23   13   40 1   
    24   14   41 1   
    25   15   16 1   
    26   15   42 1   
    27   16   17 2   
    28   16   18 1   
    29   18   19 1   
    30   18   22 1   
    31   19   20 1   
    32   19   43 1   
    33   19   44 1   
    34   20   21 1   
    35   20   45 1   
    36   20   46 1   
    37   21   22 1   
    38   21   47 1   
    39   21   48 1   
    40   22   49 1   
    41   22   50 1   
    42   23   24 1   
    43   23   51 1   
    44   24   25 1   
    45   24   52 1   
    46   24   53 1   
    47   25   29 1   
    48   25   54 1   
    49   25   55 1   
    50   26   27 1   
    51   26   29 1   
    52   26   67 1   
    53   27   28 2   
    54   27   30 1   
    55   29   57 1   
    56   29   58 1   
    57   30   31 1   
    58   30   32 1   
    59   30   33 1   
    60   31   59 1   
    61   31   60 1   
    62   31   61 1   
    63   32   62 1   
    64   32   63 1   
    65   32   64 1   
    66   33   34 2   
    67   33   35 1   
    68   35   65 1   
    69   35   66 1   
    70   35   68 1   
@<TRIPOS>SUBSTRUCTURE
     1 LI8         1 TEMP              0 ****  ****    0 ROOT
