@<TRIPOS>MOLECULE
LI9
   64    63     1     0     0
SMALL
bcc


@<TRIPOS>ATOM
      1 C1         -0.1990   -0.7930   -0.2840 c3        1 LI9     -0.207000
      2 C2          0.8950    0.3060    2.0990 c2        1 LI9     -0.080000
      3 C3          1.1880   -0.2570   -0.2540 c2        1 LI9      0.010000
      4 C4         -1.0040   -0.7090    0.9160 c1        1 LI9     -0.086000
      5 C5         -0.4050   -0.1580    2.0960 c2        1 LI9     -0.008000
      6 C6          1.6850    0.2540    0.9110 c2        1 LI9     -0.178000
      7 C7          1.9640   -0.3350   -1.4580 c2        1 LI9     -0.198000
      8 F9         -1.1480   -0.0930    3.2280 f         1 LI9     -0.097000
      9 N10         2.7580   -1.1770   -3.5160 n         1 LI9     -0.212000
     10 C11         2.4260   -1.4270   -4.9190 c3        1 LI9     -0.015000
     11 C13         3.0370    0.4180   -1.9050 c2        1 LI9      0.082000
     12 C14         3.7060    1.5690   -1.2730 c2        1 LI9      0.089000
     13 C16         1.7050   -1.3500   -2.5300 c2        1 LI9      0.308000
     14 N17         3.4300    0.0170   -3.2190 na        1 LI9     -0.149000
     15 C18         6.5950   -0.3230   -4.8210 c2        1 LI9     -0.053000
     16 C19         0.0670   -0.8860   -5.6280 c3        1 LI9     -0.189000
     17 C20         1.4840   -0.4560   -5.5740 c2        1 LI9     -0.146000
     18 C21         6.6980   -0.7650   -3.5550 c2        1 LI9     -0.342000
     19 N22         6.2400   -1.0880   -5.9280 n3        1 LI9     -0.341000
     20 N23         5.0570    1.5530   -1.2010 n2        1 LI9     -0.230000
     21 C24         3.6300    3.7210   -0.2240 c2        1 LI9      0.003000
     22 N25         7.0490    2.7230   -0.6290 nh        1 LI9     -0.339000
     23 C26         2.9280    2.6440   -0.7980 c2        1 LI9     -0.264000
     24 C27         5.6600    2.6700   -0.6300 c2        1 LI9      0.163000
     25 N28         4.9620    3.7670   -0.1160 n2        1 LI9     -0.230000
     26 C29         5.7370    6.5500    2.2270 c2        1 LI9     -0.094000
     27 C30         7.1080    6.1660    1.9560 c2        1 LI9     -0.406000
     28 C31         5.4050    7.5080    3.0940 c2        1 LI9     -0.208000
     29 C32        10.8390    5.6340   -0.8800 c1        1 LI9     -0.027000
     30 C33         9.5280    5.1280   -2.8350 c1        1 LI9      0.352000
     31 C34         7.5160    5.2270    1.1320 c1        1 LI9      0.150000
     32 C35        10.8710    5.8300    0.5560 c3        1 LI9     -0.261000
     33 C36         9.6190    5.3030   -1.5250 c2        1 LI9     -0.551000
     34 H1         -0.1690   -1.8970   -0.5730 hc        1 LI9      0.192500
     35 H2          2.7150    0.6410    0.9670 ha        1 LI9      0.138000
     36 H4         -0.7820   -0.3090   -1.1250 hc        1 LI9      0.192500
     37 H6          1.3500    0.7250    3.0110 ha        1 LI9      0.144000
     38 H11         1.9690   -2.4600   -4.9220 h1        1 LI9      0.122000
     39 H121        2.9700    1.0040   -6.0410 ha        1 LI9      0.116500
     40 H122        1.2420    1.4100   -6.5810 ha        1 LI9      0.116500
     41 H123        4.4310   -0.1000   -3.3480 hn        1 LI9      0.246000
     42 H181        6.8900   -0.0690   -2.7310 ha        1 LI9      0.124500
     43 H182        6.7170    0.7550   -5.0510 h4        1 LI9      0.135000
     44 H191       -0.0470   -1.7340   -6.3500 hc        1 LI9      0.087667
     45 H192        6.6410   -0.7760   -6.7840 hn        1 LI9      0.180500
     46 H201       -0.6020   -0.0530   -5.9540 hc        1 LI9      0.087667
     47 H202       -0.2660   -1.2430   -4.6200 hc        1 LI9      0.087667
     48 H211        3.3970   -1.4550   -5.4930 h1        1 LI9      0.122000
     49 H212        6.5990   -1.8190   -3.2700 ha        1 LI9      0.124500
     50 H22         6.3220   -2.0740   -5.8030 hn        1 LI9      0.180500
     51 H24         1.8350    2.6370   -0.8680 ha        1 LI9      0.170000
     52 H25         7.4840    3.4080   -0.0430 hn        1 LI9      0.241500
     53 H26         3.0880    4.5990    0.1780 h4        1 LI9      0.167000
     54 H29         7.5370    1.8710   -0.7780 hn        1 LI9      0.241500
     55 H311        4.3570    7.7800    3.2810 ha        1 LI9      0.118000
     56 H312        4.9670    5.9950    1.6650 ha        1 LI9      0.138000
     57 H313        6.1440    8.0800    3.6700 ha        1 LI9      0.118000
     58 H32        11.2750    6.8590    0.7540 hc        1 LI9      0.097000
     59 H33         7.8900    6.7340    2.5100 ha        1 LI9      0.193000
     60 H34        11.6050    5.0960    0.9850 hc        1 LI9      0.097000
     61 H35         9.8950    5.7170    1.1000 hc        1 LI9      0.097000
     62 H36         8.6820    5.1780   -0.9240 ha        1 LI9      0.196000
     63 C12         1.9160    0.6980   -6.0870 c2        1 LI9     -0.192000
     64 O15         0.8360   -2.2260   -2.5910 o         1 LI9     -0.324000
@<TRIPOS>BOND
     1    1    3 1   
     2    1    4 1   
     3    1   34 1   
     4    1   36 1   
     5    2    5 1   
     6    2    6 1   
     7    2   37 1   
     8    3    6 1   
     9    3    7 1   
    10    4    5 1   
    11    5    8 1   
    12    6   35 1   
    13    7   11 1   
    14    7   13 1   
    15    9   10 1   
    16    9   13 1   
    17    9   14 1   
    18   10   17 1   
    19   10   38 1   
    20   10   48 1   
    21   11   12 1   
    22   11   14 1   
    23   12   20 1   
    24   12   23 1   
    25   13   64 1   
    26   14   41 1   
    27   15   18 1   
    28   15   19 1   
    29   15   43 1   
    30   16   17 1   
    31   16   44 1   
    32   16   46 1   
    33   16   47 1   
    34   17   63 1   
    35   18   42 1   
    36   18   49 1   
    37   19   45 1   
    38   19   50 1   
    39   20   24 1   
    40   21   23 1   
    41   21   25 1   
    42   21   53 1   
    43   22   24 1   
    44   22   52 1   
    45   22   54 1   
    46   23   51 1   
    47   24   25 1   
    48   26   27 1   
    49   26   28 1   
    50   26   56 1   
    51   27   31 1   
    52   27   59 1   
    53   28   55 1   
    54   28   57 1   
    55   29   32 1   
    56   29   33 1   
    57   30   33 1   
    58   32   58 1   
    59   32   60 1   
    60   32   61 1   
    61   33   62 1   
    62   39   63 1   
    63   40   63 1   
@<TRIPOS>SUBSTRUCTURE
     1 LI9         1 TEMP              0 ****  ****    0 ROOT
