@<TRIPOS>MOLECULE
LI9
   64    61     1     0     0
SMALL
bcc


@<TRIPOS>ATOM
      1 C1         -1.7910    0.7730    1.1230 c2        1 LI9     -0.111000
      2 C2          1.4980    0.0050    2.5410 c3        1 LI9     -0.020000
      3 C3          2.0280   -0.1270   -0.0290 c1        1 LI9     -0.076000
      4 C4         -0.8440    0.6760    1.9990 c1        1 LI9     -0.215000
      5 C5          0.1370    0.5620    2.8690 c2        1 LI9      0.093000
      6 C6          1.7690   -0.0620    1.1400 c1        1 LI9     -0.133000
      7 C7          2.3360   -0.2150   -1.3760 c2        1 LI9     -0.107000
      8 F9         -0.0070    0.9310    4.1710 f         1 LI9     -0.110000
      9 N10         2.9440   -1.1230   -3.4590 n         1 LI9     -0.205000
     10 C11         2.4660   -2.0360   -4.5000 c3        1 LI9     -0.103000
     11 C13         2.4450    0.7910   -2.3190 c2        1 LI9      0.112000
     12 C14         2.2930    2.2410   -2.0830 c2        1 LI9     -0.239000
     13 C16         2.5860   -1.4970   -2.0950 c2        1 LI9      0.312000
     14 N17         2.6480    0.2510   -3.6310 na        1 LI9     -0.116000
     15 C18         7.2280   -1.1590   -6.2850 c1        1 LI9     -0.174000
     16 C19         2.7080   -2.7350   -6.8890 c3        1 LI9     -0.281000
     17 C20         3.1250   -1.8860   -5.7960 c1        1 LI9     -0.071000
     18 C21         7.6170   -2.0230   -5.1500 c3        1 LI9     -0.245000
     19 N22         5.9900   -0.8390   -6.5400 n8        1 LI9     -0.247000
     20 N23         3.4770    2.9930   -2.1810 n2        1 LI9     -0.227000
     21 C24         1.5950    4.7420   -0.4720 c2        1 LI9     -0.068000
     22 N25         4.7810    4.8860   -1.6580 n8        1 LI9     -0.313000
     23 C26         1.0480    2.7030   -1.8570 c1        1 LI9      0.160000
     24 C27         3.6670    4.0640   -1.4120 c2        1 LI9      0.144000
     25 N28         2.8310    4.4660   -0.3020 n2        1 LI9     -0.183000
     26 C29         6.9550    6.2310    3.0130 c2        1 LI9     -0.102000
     27 C30         7.5030    6.0360    1.6690 c2        1 LI9     -0.314000
     28 C31         5.8760    5.5990    3.4780 c2        1 LI9     -0.208000
     29 C32        11.0840    5.7190    0.5290 c1        1 LI9     -0.146000
     30 C33         8.9410    6.2240    1.5290 c2        1 LI9     -0.077000
     31 C34         6.6920    5.7450    0.6550 c1        1 LI9      0.176000
     32 C35        12.2660    5.8610    0.3990 c1        1 LI9     -0.180000
     33 C36         9.7000    5.5310    0.6620 c2        1 LI9     -0.058000
     34 H1         -2.5060   -0.0430    0.9380 ha        1 LI9      0.133000
     35 H2          1.5710   -1.0280    2.9900 hc        1 LI9      0.122500
     36 H4         -1.9320    1.6750    0.5060 ha        1 LI9      0.133000
     37 H6          2.2770    0.6460    3.0460 hc        1 LI9      0.122500
     38 H11         1.3410   -1.9670   -4.6310 h1        1 LI9      0.137000
     39 H121        3.0700    2.0010   -4.6740 h1        1 LI9      0.104333
     40 H122        3.5980    0.4500   -5.5010 h1        1 LI9      0.104333
     41 H123        4.5720    1.1180   -4.1050 h1        1 LI9      0.104333
     42 H181        8.1830   -2.8940   -5.5670 hc        1 LI9      0.083333
     43 H182        8.3160   -1.4340   -4.5030 hc        1 LI9      0.083333
     44 H191        5.8150   -0.2520   -7.3230 hn        1 LI9      0.202000
     45 H192        1.8840   -3.4630   -6.6740 hc        1 LI9      0.114667
     46 H201        2.3890   -2.0710   -7.7380 hc        1 LI9      0.114667
     47 H202        3.6100   -3.3050   -7.2440 hc        1 LI9      0.114667
     48 H211        6.7850   -2.4120   -4.5090 hc        1 LI9      0.083333
     49 H212        2.6900   -3.0790   -4.1000 h1        1 LI9      0.137000
     50 H22         5.1710   -1.1230   -6.0270 hn        1 LI9      0.202000
     51 H24         1.0390    4.8180   -1.4340 h4        1 LI9      0.142500
     52 H25         5.4990    4.4680   -2.2120 hn        1 LI9      0.224000
     53 H26         0.9990    4.9760    0.4330 h4        1 LI9      0.142500
     54 H29         5.1360    5.3830   -0.8600 hn        1 LI9      0.224000
     55 H311        5.3040    4.8690    2.8910 ha        1 LI9      0.125000
     56 H312        7.5170    6.9490    3.6340 ha        1 LI9      0.137000
     57 H313        5.4990    5.7780    4.4950 ha        1 LI9      0.125000
     58 H32        13.3130    5.9840    0.2820 ha        1 LI9      0.227000
     59 H33         9.3820    6.9780    2.2040 ha        1 LI9      0.145000
     60 H34         7.7190    5.3980   -1.4480 ha        1 LI9      0.008500
     61 H35         7.5060    6.0360   -1.5470 ha        1 LI9      0.008500
     62 H36         9.2640    4.7580   -0.0000 ha        1 LI9      0.143000
     63 C12         3.5370    0.9930   -4.5190 c3        1 LI9     -0.106000
     64 O15         2.5600   -2.6660   -1.7000 o         1 LI9     -0.311000
@<TRIPOS>BOND
     1    1    4 1   
     2    1   34 1   
     3    1   36 1   
     4    2    5 1   
     5    2    6 1   
     6    2   35 1   
     7    2   37 1   
     8    3    6 1   
     9    3    7 1   
    10    4    5 1   
    11    5    8 1   
    12    7   11 1   
    13    7   13 1   
    14    9   10 1   
    15    9   13 1   
    16    9   14 1   
    17   10   17 1   
    18   10   38 1   
    19   10   49 1   
    20   11   12 1   
    21   11   14 1   
    22   12   20 1   
    23   12   23 1   
    24   13   64 1   
    25   14   63 1   
    26   15   18 1   
    27   15   19 1   
    28   16   17 1   
    29   16   45 1   
    30   16   46 1   
    31   16   47 1   
    32   18   42 1   
    33   18   43 1   
    34   18   48 1   
    35   19   44 1   
    36   19   50 1   
    37   20   24 1   
    38   21   25 1   
    39   21   51 1   
    40   21   53 1   
    41   22   24 1   
    42   22   52 1   
    43   22   54 1   
    44   24   25 1   
    45   26   27 1   
    46   26   28 1   
    47   26   56 1   
    48   27   30 1   
    49   27   31 1   
    50   28   55 1   
    51   28   57 1   
    52   29   32 1   
    53   29   33 1   
    54   30   33 1   
    55   30   59 1   
    56   32   58 1   
    57   33   62 1   
    58   39   63 1   
    59   40   63 1   
    60   41   63 1   
    61   60   61 1   
@<TRIPOS>SUBSTRUCTURE
     1 LI9         1 TEMP              0 ****  ****    0 ROOT
