@<TRIPOS>MOLECULE
LI9
   64    68     1     0     0
SMALL
bcc


@<TRIPOS>ATOM
      1 C1          3.6190   -2.9120    0.1020 ca        1 LI9     -0.088000
      2 C2          1.3250   -4.1420    1.1330 ca        1 LI9     -0.169500
      3 C3          2.4170   -2.1870    0.1880 ca        1 LI9     -0.038800
      4 C4          3.6810   -4.2380    0.5120 ca        1 LI9     -0.169500
      5 C5          2.5290   -4.8610    1.0270 ca        1 LI9      0.127900
      6 C6          1.2800   -2.8160    0.7180 ca        1 LI9     -0.088000
      7 C7          2.3710   -0.8160   -0.2500 cc        1 LI9     -0.164400
      8 F9          2.5810   -6.1550    1.4260 f         1 LI9     -0.141900
      9 N10         3.0980    1.3830   -0.7020 n         1 LI9     -0.299200
     10 C11         3.6720    2.5960   -0.0940 c3        1 LI9      0.085700
     11 C13         1.3280   -0.0670   -0.7540 cd        1 LI9      0.028200
     12 C14        -0.0320   -0.5270   -1.0930 ca        1 LI9      0.523100
     13 C16         3.5400    0.1110   -0.1580 c         1 LI9      0.672700
     14 N17         1.6960    1.3200   -0.8830 na        1 LI9     -0.365400
     15 C18         3.5940    4.4390    1.5950 c3        1 LI9      0.162300
     16 C19         4.7880    4.7990   -0.4880 c3        1 LI9      0.162300
     17 C20         4.0430    3.6430   -1.1550 c3        1 LI9     -0.084400
     18 C21         2.8180    3.2720    0.9850 c3        1 LI9     -0.084400
     19 N22         4.0530    5.3970    0.6090 n3        1 LI9     -0.823200
     20 N23        -1.0770   -0.0190   -0.4040 nb        1 LI9     -0.736000
     21 C24        -1.4980   -1.9040   -2.3940 ca        1 LI9      0.464200
     22 N25        -3.4300    0.1390   -0.1410 nh        1 LI9     -0.823900
     23 C26        -0.1830   -1.4820   -2.1210 ca        1 LI9     -0.401600
     24 C27        -2.3430   -0.4800   -0.7670 ca        1 LI9      0.872900
     25 N28        -2.5760   -1.4420   -1.7500 nb        1 LI9     -0.737000
     26 C29        -4.7450   -0.4840   -0.1200 c3        1 LI9      0.263800
     27 C30        -5.7730    0.5020    0.3870 ca        1 LI9     -0.096300
     28 C31        -4.8260   -1.7640    0.7180 c3        1 LI9     -0.121100
     29 C32        -7.7060    2.3020    1.3060 ca        1 LI9     -0.123000
     30 C33        -6.8070    0.9160   -0.4590 ca        1 LI9     -0.117500
     31 C34        -5.7070    1.0000    1.6920 ca        1 LI9     -0.117500
     32 C35        -6.6710    1.8970    2.1500 ca        1 LI9     -0.128500
     33 C36        -7.7730    1.8090    0.0030 ca        1 LI9     -0.128500
     34 H1          4.5260   -2.4130   -0.2800 ha        1 LI9      0.151000
     35 H2          0.4320   -4.6310    1.5480 ha        1 LI9      0.149500
     36 H4          4.6220   -4.8030    0.4430 ha        1 LI9      0.149500
     37 H6          0.3400   -2.2510    0.8140 ha        1 LI9      0.151000
     38 H11         4.6400    2.2470    0.3880 h1        1 LI9      0.085700
     39 H121        1.7050    1.7280   -3.0150 h1        1 LI9      0.058700
     40 H122        0.0900    1.7750   -2.1540 h1        1 LI9      0.058700
     41 H123        1.3000    3.1140   -1.8930 h1        1 LI9      0.058700
     42 H181        4.4480    4.0140    2.2040 h1        1 LI9      0.031700
     43 H182        2.9140    4.9910    2.3050 h1        1 LI9      0.031700
     44 H191        5.8030    4.4210   -0.1630 h1        1 LI9      0.031700
     45 H192        4.9570    5.6070   -1.2550 h1        1 LI9      0.031700
     46 H201        4.7100    3.1920   -1.9340 hc        1 LI9      0.058200
     47 H202        3.1230    4.0260   -1.6650 hc        1 LI9      0.058200
     48 H211        1.8590    3.6460    0.5440 hc        1 LI9      0.058200
     49 H212        2.5670    2.5450    1.7980 hc        1 LI9      0.058200
     50 H22         4.6120    6.1030    1.0510 hn        1 LI9      0.364800
     51 H24        -1.6980   -2.6620   -3.1750 h4        1 LI9      0.032100
     52 H25        -3.2100    0.6900    0.6630 hn        1 LI9      0.435800
     53 H26         0.6770   -1.8850   -2.6640 ha        1 LI9      0.166000
     54 H29        -5.0060   -0.7550   -1.1890 h1        1 LI9      0.087700
     55 H311       -4.5720   -1.5640    1.7870 hc        1 LI9      0.047700
     56 H312       -5.8680   -2.1610    0.6700 hc        1 LI9      0.047700
     57 H313       -4.1300   -2.5400    0.3210 hc        1 LI9      0.047700
     58 H32        -8.4670    3.0090    1.6680 ha        1 LI9      0.134000
     59 H33        -6.8600    0.5370   -1.4910 ha        1 LI9      0.133500
     60 H34        -4.8970    0.6800    2.3650 ha        1 LI9      0.133500
     61 H35        -6.6140    2.2860    3.1770 ha        1 LI9      0.134500
     62 H36        -8.5860    2.1290   -0.6650 ha        1 LI9      0.134500
     63 C12         1.1820    2.0110   -2.0630 c3        1 LI9      0.158100
     64 O15         4.6930   -0.1000    0.2320 o         1 LI9     -0.596500
@<TRIPOS>BOND
     1    1    3 ar  
     2    1    4 ar  
     3    1   34 1   
     4    2    5 ar  
     5    2    6 ar  
     6    2   35 1   
     7    3    6 ar  
     8    3    7 1   
     9    4    5 ar  
    10    4   36 1   
    11    5    8 1   
    12    6   37 1   
    13    7   11 2   
    14    7   13 1   
    15    9   10 1   
    16    9   13 1   
    17    9   14 1   
    18   10   17 1   
    19   10   18 1   
    20   10   38 1   
    21   11   12 1   
    22   11   14 1   
    23   12   20 ar  
    24   12   23 ar  
    25   13   64 2   
    26   14   63 1   
    27   15   18 1   
    28   15   19 1   
    29   15   42 1   
    30   15   43 1   
    31   16   17 1   
    32   16   19 1   
    33   16   44 1   
    34   16   45 1   
    35   17   46 1   
    36   17   47 1   
    37   18   48 1   
    38   18   49 1   
    39   19   50 1   
    40   20   24 ar  
    41   21   23 ar  
    42   21   25 ar  
    43   21   51 1   
    44   22   24 1   
    45   22   26 1   
    46   22   52 1   
    47   23   53 1   
    48   24   25 ar  
    49   26   27 1   
    50   26   28 1   
    51   26   54 1   
    52   27   30 ar  
    53   27   31 ar  
    54   28   55 1   
    55   28   56 1   
    56   28   57 1   
    57   29   32 ar  
    58   29   33 ar  
    59   29   58 1   
    60   30   33 ar  
    61   30   59 1   
    62   31   32 ar  
    63   31   60 1   
    64   32   61 1   
    65   33   62 1   
    66   39   63 1   
    67   40   63 1   
    68   41   63 1   
@<TRIPOS>SUBSTRUCTURE
     1 LI9         1 TEMP              0 ****  ****    0 ROOT
