@<TRIPOS>MOLECULE
LIA
   51    53     1     0     0
SMALL
bcc


@<TRIPOS>ATOM
      1 N1          0.2220   -0.1770   -0.0200 n3        1 LIA     -0.820500
      2 C2          1.6540   -0.0550    0.0730 c3        1 LIA      0.224300
      3 C3          2.1630    0.1390    1.5020 c3        1 LIA     -0.115400
      4 C4          1.4500    1.3390    2.1510 c3        1 LIA      0.221500
      5 C5         -0.0700    1.1050    2.0910 c3        1 LIA     -0.115400
      6 C6         -0.5070    0.8750    0.6440 c3        1 LIA      0.224300
      7 N7          1.9580    1.5690    3.4900 nu        1 LIA     -0.830900
      8 C8          1.6970    2.7560    4.1810 ca        1 LIA      0.930900
      9 N9          1.2780    3.8820    3.4620 nb        1 LIA     -0.783000
     10 C10         1.1240    4.9990    4.1700 ca        1 LIA      0.542200
     11 C11         1.3230    5.1000    5.5670 ca        1 LIA     -0.530200
     12 C12         1.7880    3.9130    6.2290 ca        1 LIA      0.773200
     13 N13         1.9540    2.7360    5.5370 nb        1 LIA     -0.841000
     14 C14         1.0440    6.3820    6.2090 c         1 LIA      0.630300
     15 O15         1.3320    7.4600    5.6730 o         1 LIA     -0.528100
     16 C16         0.3290    6.3780    7.5180 ca        1 LIA     -0.179600
     17 C17        -1.0410    6.0550    7.5860 ca        1 LIA      0.138900
     18 C18        -1.7220    6.1140    8.8340 ca        1 LIA      0.086900
     19 C19        -1.0340    6.4990    9.9950 ca        1 LIA     -0.123000
     20 C20         0.3160    6.8210    9.9280 ca        1 LIA     -0.134000
     21 C21         0.9880    6.7550    8.7010 ca        1 LIA      0.115100
     22 O22         2.3630    6.9490    8.6850 os        1 LIA     -0.364900
     23 C23         2.7510    8.3050    8.4390 c3        1 LIA      0.112700
     24 F24        -1.7310    5.6990    6.4810 f         1 LIA     -0.113900
     25 F25        -3.0360    5.8010    8.8920 f         1 LIA     -0.120900
     26 N26         2.0610    3.9090    7.5780 nv        1 LIA     -0.952500
     27 S27        -0.5120   -1.4380   -0.7320 s6        1 LIA      1.460900
     28 C28        -0.7390   -2.5400    0.5510 c3        1 LIA     -0.363300
     29 O29        -1.7900   -1.0630   -1.1960 o         1 LIA     -0.649800
     30 O30         0.3570   -2.0450   -1.6630 o         1 LIA     -0.649800
     31 H21         1.9850    0.8300   -0.5460 h1        1 LIA      0.063450
     32 H22         2.1300   -0.9790   -0.3670 h1        1 LIA      0.063450
     33 H31         1.9890   -0.7900    2.1040 hc        1 LIA      0.057450
     34 H32         3.2680    0.3210    1.4600 hc        1 LIA      0.057450
     35 H4          1.6850    2.2540    1.5260 h1        1 LIA      0.092700
     36 H51        -0.3500    0.2250    2.7250 hc        1 LIA      0.057450
     37 H52        -0.6140    2.0020    2.4820 hc        1 LIA      0.057450
     38 H61        -1.6070    0.6250    0.6230 h1        1 LIA      0.063450
     39 H62        -0.3620    1.8370    0.0700 h1        1 LIA      0.063450
     40 HN7         2.0620    0.7510    4.0530 hn        1 LIA      0.432800
     41 H10         0.8050    5.8950    3.5990 h4        1 LIA      0.042100
     42 H19        -1.5760    6.5440   10.9520 ha        1 LIA      0.161000
     43 H20         0.8670    7.1220   10.8310 ha        1 LIA      0.159000
     44 H231        2.3540    8.9670    9.2460 h1        1 LIA      0.054033
     45 H232        2.3820    8.6340    7.4360 h1        1 LIA      0.054033
     46 H233        3.8680    8.2660    8.4660 h1        1 LIA      0.054033
     47 H261        2.2030    4.7810    8.0280 hn        1 LIA      0.442800
     48 H262        2.4820    3.1070    7.9850 hn        1 LIA      0.442800
     49 H281       -1.2960   -3.4410    0.1900 h1        1 LIA      0.111367
     50 H282        0.2190   -2.9170    0.9830 h1        1 LIA      0.111367
     51 H283       -1.3360   -2.1230    1.3970 h1        1 LIA      0.111367
@<TRIPOS>BOND
     1    1    2 1   
     2    1    6 1   
     3    1   27 1   
     4    2    3 1   
     5    2   31 1   
     6    2   32 1   
     7    3    4 1   
     8    3   33 1   
     9    3   34 1   
    10    4    5 1   
    11    4    7 1   
    12    4   35 1   
    13    5    6 1   
    14    5   36 1   
    15    5   37 1   
    16    6   38 1   
    17    6   39 1   
    18    7    8 1   
    19    7   40 1   
    20    8    9 ar  
    21    8   13 ar  
    22    9   10 ar  
    23   10   11 ar  
    24   10   41 1   
    25   11   12 ar  
    26   11   14 1   
    27   12   13 ar  
    28   12   26 1   
    29   14   15 2   
    30   14   16 1   
    31   16   17 ar  
    32   16   21 ar  
    33   17   18 ar  
    34   17   24 1   
    35   18   19 ar  
    36   18   25 1   
    37   19   20 ar  
    38   19   42 1   
    39   20   21 ar  
    40   20   43 1   
    41   21   22 1   
    42   22   23 1   
    43   23   44 1   
    44   23   45 1   
    45   23   46 1   
    46   26   47 1   
    47   26   48 1   
    48   27   28 1   
    49   27   29 2   
    50   27   30 2   
    51   28   49 1   
    52   28   50 1   
    53   28   51 1   
@<TRIPOS>SUBSTRUCTURE
     1 LIA         1 TEMP              0 ****  ****    0 ROOT
