@<TRIPOS>MOLECULE
LIA
   51    53     1     0     0
SMALL
bcc


@<TRIPOS>ATOM
      1 N1          0.1700   -0.2700   -0.0170 n3        1 LIA     -0.820500
      2 C2          1.5980   -0.0840    0.0090 c3        1 LIA      0.224300
      3 C3          2.1600    0.1680    1.4090 c3        1 LIA     -0.114900
      4 C4          1.4230    1.3530    2.0610 c3        1 LIA      0.220500
      5 C5         -0.0850    1.0510    2.0750 c3        1 LIA     -0.114900
      6 C6         -0.5750    0.7660    0.6540 c3        1 LIA      0.224300
      7 N7          1.9800    1.6370    3.3700 nh        1 LIA     -0.829900
      8 C8          1.6890    2.8290    4.0450 ca        1 LIA      0.926900
      9 N9          1.1950    3.9180    3.3180 nb        1 LIA     -0.782000
     10 C10         1.0200    5.0440    4.0080 ca        1 LIA      0.539200
     11 C11         1.2670    5.1870    5.3920 ca        1 LIA     -0.522200
     12 C12         1.8030    4.0350    6.0620 ca        1 LIA      0.766200
     13 N13         1.9970    2.8520    5.3910 nb        1 LIA     -0.839000
     14 C14         0.9620    6.4740    6.0160 c         1 LIA      0.631300
     15 O15         1.1870    7.5470    5.4430 o         1 LIA     -0.512100
     16 C16         0.2840    6.4730    7.3440 ca        1 LIA     -0.188600
     17 C17        -1.0700    6.1080    7.4610 ca        1 LIA      0.157900
     18 C18        -1.7260    6.1970    8.7220 ca        1 LIA      0.063900
     19 C19        -1.0240    6.6550    9.8460 ca        1 LIA     -0.101000
     20 C20         0.3160    7.0080    9.7360 ca        1 LIA     -0.187000
     21 C21         0.9640    6.9100    8.4990 ca        1 LIA      0.145100
     22 O22         2.3130    7.1590    8.3330 os        1 LIA     -0.337900
     23 C23         2.9010    8.0590    9.2710 c3        1 LIA      0.115700
     24 F24        -1.7740    5.6890    6.3880 f         1 LIA     -0.112900
     25 F25        -3.0280    5.8450    8.8240 f         1 LIA     -0.122900
     26 N26         2.1140    4.0720    7.4050 nh        1 LIA     -0.950500
     27 S27        -0.5380   -1.5800   -0.6630 s6        1 LIA      1.460900
     28 C28        -0.6590   -2.6550    0.6560 c3        1 LIA     -0.363300
     29 O29        -1.8510   -1.2740   -1.0790 o         1 LIA     -0.649800
     30 O30         0.3160   -2.1740   -1.6170 o         1 LIA     -0.649800
     31 H21         2.0950   -0.9970   -0.4310 h1        1 LIA      0.063450
     32 H22         1.8610    0.7990   -0.6450 h1        1 LIA      0.063450
     33 H31         2.0530   -0.7520    2.0390 hc        1 LIA      0.057450
     34 H32         3.2530    0.3970    1.3120 hc        1 LIA      0.057450
     35 H4          1.5910    2.2610    1.4050 h1        1 LIA      0.092700
     36 H51        -0.6510    1.9340    2.4690 hc        1 LIA      0.057450
     37 H52        -0.2990    0.1760    2.7410 hc        1 LIA      0.057450
     38 H61        -0.4980    1.7190    0.0520 h1        1 LIA      0.063450
     39 H62        -1.6640    0.4690    0.6890 h1        1 LIA      0.063450
     40 HN7         2.1340    0.8390    3.9490 hn        1 LIA      0.430800
     41 H10         0.6430    5.9120    3.4290 h4        1 LIA      0.042100
     42 H19        -1.5450    6.7280   10.8130 ha        1 LIA      0.159000
     43 H20         0.8590    7.3650   10.6230 ha        1 LIA      0.151000
     44 H231        3.8920    8.3020    8.8090 h1        1 LIA      0.051367
     45 H232        2.2810    8.9790    9.3880 h1        1 LIA      0.051367
     46 H233        3.0390    7.5470   10.2550 h1        1 LIA      0.051367
     47 H261        2.2590    4.9640    7.8160 hn        1 LIA      0.437800
     48 H262        2.5950    3.3020    7.8080 hn        1 LIA      0.437800
     49 H281       -1.1900   -3.5910    0.3430 h1        1 LIA      0.111033
     50 H282       -1.2380   -2.2420    1.5160 h1        1 LIA      0.111033
     51 H283        0.3320   -2.9770    1.0550 h1        1 LIA      0.111033
@<TRIPOS>BOND
     1    1    2 1   
     2    1    6 1   
     3    1   27 1   
     4    2    3 1   
     5    2   31 1   
     6    2   32 1   
     7    3    4 1   
     8    3   33 1   
     9    3   34 1   
    10    4    5 1   
    11    4    7 1   
    12    4   35 1   
    13    5    6 1   
    14    5   36 1   
    15    5   37 1   
    16    6   38 1   
    17    6   39 1   
    18    7    8 1   
    19    7   40 1   
    20    8    9 ar  
    21    8   13 ar  
    22    9   10 ar  
    23   10   11 ar  
    24   10   41 1   
    25   11   12 ar  
    26   11   14 1   
    27   12   13 ar  
    28   12   26 1   
    29   14   15 2   
    30   14   16 1   
    31   16   17 ar  
    32   16   21 ar  
    33   17   18 ar  
    34   17   24 1   
    35   18   19 ar  
    36   18   25 1   
    37   19   20 ar  
    38   19   42 1   
    39   20   21 ar  
    40   20   43 1   
    41   21   22 1   
    42   22   23 1   
    43   23   44 1   
    44   23   45 1   
    45   23   46 1   
    46   26   47 1   
    47   26   48 1   
    48   27   28 1   
    49   27   29 2   
    50   27   30 2   
    51   28   49 1   
    52   28   50 1   
    53   28   51 1   
@<TRIPOS>SUBSTRUCTURE
     1 LIA         1 TEMP              0 ****  ****    0 ROOT
