@<TRIPOS>MOLECULE
LIA
   53    55     1     0     0
SMALL
bcc


@<TRIPOS>ATOM
      1 N1         -0.5290    0.2960    0.7310 n3        1 LIA     -0.809500
      2 C2          0.4670    1.1300    0.1250 c3        1 LIA      0.229800
      3 C3          1.7790    1.1990    0.9280 c3        1 LIA     -0.123400
      4 C4          1.4420    1.6240    2.3610 c3        1 LIA      0.137500
      5 C5          0.4590    0.6350    2.9850 c3        1 LIA     -0.123400
      6 C6         -0.8040    0.5860    2.1070 c3        1 LIA      0.229800
      7 N7          2.7250    1.7340    3.1820 n4        1 LIA     -0.755700
      8 C8          2.5510    2.5730    4.4020 ca        1 LIA      0.766900
      9 N9          2.4990    3.9400    4.2080 nb        1 LIA     -0.620000
     10 C10         2.3570    4.6950    5.3050 ca        1 LIA      0.530200
     11 C11         2.2690    4.1330    6.6080 ca        1 LIA     -0.302200
     12 C12         2.3340    2.7260    6.6960 ca        1 LIA      0.541200
     13 N13         2.4680    1.9190    5.6010 nb        1 LIA     -0.665000
     14 C14         2.1290    4.9760    7.8400 c         1 LIA      0.616300
     15 O15         3.0010    4.9040    8.7020 o         1 LIA     -0.440100
     16 C16         0.8660    5.7180    7.9430 ca        1 LIA     -0.261600
     17 C17        -0.2340    5.0880    8.5730 ca        1 LIA      0.112900
     18 C18        -1.4310    5.8000    8.7960 ca        1 LIA      0.115900
     19 C19        -1.5160    7.1500    8.3820 ca        1 LIA     -0.058000
     20 C20        -0.4530    7.7600    7.7400 ca        1 LIA     -0.160000
     21 C21         0.7380    7.0450    7.5030 ca        1 LIA      0.195100
     22 O22         1.8130    7.5440    6.8090 os        1 LIA     -0.361900
     23 C23         1.8830    8.9720    6.6770 c3        1 LIA      0.109700
     24 F24        -0.1170    3.7880    8.9550 f         1 LIA     -0.162900
     25 F25        -2.4760    5.1980    9.3960 f         1 LIA     -0.087900
     26 N26         2.2520    2.0950    8.0300 n4        1 LIA     -0.838300
     27 S27        -1.4920   -0.7320   -0.1680 s6        1 LIA      1.466900
     28 C28        -0.5270   -2.1100   -0.3130 c3        1 LIA     -0.383300
     29 O29        -2.6130   -1.0360    0.6180 o         1 LIA     -0.621300
     30 O30        -1.6610   -0.1610   -1.4330 o         1 LIA     -0.621300
     31 H21         0.0750    2.1840    0.0080 h1        1 LIA      0.083200
     32 H22         0.7040    0.7380   -0.9080 h1        1 LIA      0.083200
     33 H31         2.2850    0.1990    0.9190 hc        1 LIA      0.074200
     34 H32         2.4490    1.9470    0.4290 hc        1 LIA      0.074200
     35 H4          0.9830    2.6590    2.3370 hx        1 LIA      0.123700
     36 H51         0.1570    0.9600    4.0130 hc        1 LIA      0.074200
     37 H52         0.9140   -0.3870    3.0530 hc        1 LIA      0.074200
     38 H61        -1.4980   -0.2030    2.5250 h1        1 LIA      0.083200
     39 H62        -1.3260    1.5850    2.1960 h1        1 LIA      0.083200
     40 HN7         3.0310    0.7870    3.4500 hn        1 LIA      0.484300
     41 H10         2.3150    5.8040    5.1600 h4        1 LIA      0.125100
     42 H19        -2.4510    7.7070    8.5790 ha        1 LIA      0.197000
     43 H20        -0.5390    8.8120    7.4200 ha        1 LIA      0.185000
     44 H231        1.7760    9.4660    7.6720 h1        1 LIA      0.073367
     45 H232        1.1000    9.3230    5.9630 h1        1 LIA      0.073367
     46 H233        2.9100    9.1350    6.2590 h1        1 LIA      0.073367
     47 H261        1.3300    2.3260    8.4500 hn        1 LIA      0.502133
     48 H262        3.0000    2.4960    8.6250 hn        1 LIA      0.502133
     49 H281       -1.0420   -2.8750   -0.9580 h1        1 LIA      0.128700
     50 H282        0.4610   -1.9330   -0.8030 h1        1 LIA      0.128700
     51 H283       -0.3240   -2.6310    0.6540 h1        1 LIA      0.128700
     52 H72         3.4550    2.1670    2.5930 hn        1 LIA      0.484300
     53 H263        2.3610    1.0720    7.9820 hn        1 LIA      0.502133
@<TRIPOS>BOND
     1    1    2 1   
     2    1    6 1   
     3    1   27 1   
     4    2    3 1   
     5    2   31 1   
     6    2   32 1   
     7    3    4 1   
     8    3   33 1   
     9    3   34 1   
    10    4    5 1   
    11    4    7 1   
    12    4   35 1   
    13    5    6 1   
    14    5   36 1   
    15    5   37 1   
    16    6   38 1   
    17    6   39 1   
    18    7    8 1   
    19    7   40 1   
    20    7   52 1   
    21    8    9 ar  
    22    8   13 ar  
    23    9   10 ar  
    24   10   11 ar  
    25   10   41 1   
    26   11   12 ar  
    27   11   14 1   
    28   12   13 ar  
    29   12   26 1   
    30   14   15 2   
    31   14   16 1   
    32   16   17 ar  
    33   16   21 ar  
    34   17   18 ar  
    35   17   24 1   
    36   18   19 ar  
    37   18   25 1   
    38   19   20 ar  
    39   19   42 1   
    40   20   21 ar  
    41   20   43 1   
    42   21   22 1   
    43   22   23 1   
    44   23   44 1   
    45   23   45 1   
    46   23   46 1   
    47   26   47 1   
    48   26   48 1   
    49   26   53 1   
    50   27   28 1   
    51   27   29 2   
    52   27   30 2   
    53   28   49 1   
    54   28   50 1   
    55   28   51 1   
@<TRIPOS>SUBSTRUCTURE
     1 LIA         1 TEMP              0 ****  ****    0 ROOT
