@<TRIPOS>MOLECULE
LIA
   51    53     1     0     0
SMALL
bcc


@<TRIPOS>ATOM
      1 N1         -5.5820    0.1570    0.3240 n3        1 LIA     -0.820500
      2 C2         -5.3120    1.5540    0.0960 c3        1 LIA      0.224300
      3 C3         -4.0480    1.8100   -0.7270 c3        1 LIA     -0.114900
      4 C4         -2.8480    1.1010   -0.0720 c3        1 LIA      0.220500
      5 C5         -3.1720   -0.3970    0.0650 c3        1 LIA     -0.114900
      6 C6         -4.4660   -0.5830    0.8580 c3        1 LIA      0.224300
      7 N7         -1.6320    1.3760   -0.8120 nh        1 LIA     -0.829900
      8 C8         -0.3700    1.0930   -0.2760 ca        1 LIA      0.926900
      9 N9         -0.2420    0.9210    1.1060 nb        1 LIA     -0.782000
     10 C10         0.9980    0.7380    1.5570 ca        1 LIA      0.539200
     11 C11         2.1500    0.6790    0.7400 ca        1 LIA     -0.522200
     12 C12         1.9430    0.8960   -0.6640 ca        1 LIA      0.766200
     13 N13         0.6810    1.0860   -1.1730 nb        1 LIA     -0.839000
     14 C14         3.4360    0.4060    1.3830 c         1 LIA      0.631300
     15 O15         3.7320    0.8910    2.4810 o         1 LIA     -0.512100
     16 C16         4.3670   -0.5520    0.7210 ca        1 LIA     -0.188600
     17 C17         4.0920   -1.9320    0.7090 ca        1 LIA      0.157900
     18 C18         5.0340   -2.8410    0.1510 ca        1 LIA      0.063900
     19 C19         6.2400   -2.3620   -0.3810 ca        1 LIA     -0.101000
     20 C20         6.5110   -1.0000   -0.3790 ca        1 LIA     -0.187000
     21 C21         5.5800   -0.1040    0.1590 ca        1 LIA      0.145100
     22 O22         5.7420    1.2680    0.1170 os        1 LIA     -0.337900
     23 C23         7.0880    1.7360    0.0570 c3        1 LIA      0.115700
     24 F24         2.9500   -2.4200    1.2390 f         1 LIA     -0.112900
     25 F25         4.7620   -4.1670    0.1450 f         1 LIA     -0.122900
     26 N26         3.0010    0.8950   -1.5490 nh        1 LIA     -0.950500
     27 S27        -6.9910   -0.5460   -0.0730 s6        1 LIA      1.460900
     28 C28        -6.7210   -1.1010   -1.6630 c3        1 LIA     -0.363300
     29 O29        -7.2190   -1.6780    0.7350 o         1 LIA     -0.649800
     30 O30        -8.0180    0.4200   -0.1310 o         1 LIA     -0.649800
     31 H21        -5.1980    2.0700    1.0950 h1        1 LIA      0.063450
     32 H22        -6.1970    2.0170   -0.4300 h1        1 LIA      0.063450
     33 H31        -3.8720    2.9160   -0.7650 hc        1 LIA      0.057450
     34 H32        -4.1910    1.4460   -1.7770 hc        1 LIA      0.057450
     35 H4         -2.7270    1.5280    0.9700 h1        1 LIA      0.092700
     36 H51        -3.2670   -0.8660   -0.9470 hc        1 LIA      0.057450
     37 H52        -2.3480   -0.9200    0.6150 hc        1 LIA      0.057450
     38 H61        -4.2840   -0.2490    1.9220 h1        1 LIA      0.063450
     39 H62        -4.7340   -1.6790    0.8830 h1        1 LIA      0.063450
     40 HN7        -1.7090    1.2910   -1.8040 hn        1 LIA      0.430800
     41 H10         1.1020    0.6170    2.6550 h4        1 LIA      0.042100
     42 H19         6.9640   -3.0770   -0.8010 ha        1 LIA      0.159000
     43 H20         7.4590   -0.6330   -0.8000 ha        1 LIA      0.151000
     44 H231        7.7240    1.2270    0.8200 h1        1 LIA      0.051367
     45 H232        7.5000    1.5790   -0.9700 h1        1 LIA      0.051367
     46 H233        6.9920    2.8280    0.2820 h1        1 LIA      0.051367
     47 H261        2.8390    1.1690   -2.4900 hn        1 LIA      0.437800
     48 H262        3.9070    1.0550   -1.1780 hn        1 LIA      0.437800
     49 H281       -5.8560   -1.8020   -1.7500 h1        1 LIA      0.111033
     50 H282       -7.6160   -1.6630   -2.0330 h1        1 LIA      0.111033
     51 H283       -6.5460   -0.2760   -2.3950 h1        1 LIA      0.111033
@<TRIPOS>BOND
     1    1    2 1   
     2    1    6 1   
     3    1   27 1   
     4    2    3 1   
     5    2   31 1   
     6    2   32 1   
     7    3    4 1   
     8    3   33 1   
     9    3   34 1   
    10    4    5 1   
    11    4    7 1   
    12    4   35 1   
    13    5    6 1   
    14    5   36 1   
    15    5   37 1   
    16    6   38 1   
    17    6   39 1   
    18    7    8 1   
    19    7   40 1   
    20    8    9 ar  
    21    8   13 ar  
    22    9   10 ar  
    23   10   11 ar  
    24   10   41 1   
    25   11   12 ar  
    26   11   14 1   
    27   12   13 ar  
    28   12   26 1   
    29   14   15 2   
    30   14   16 1   
    31   16   17 ar  
    32   16   21 ar  
    33   17   18 ar  
    34   17   24 1   
    35   18   19 ar  
    36   18   25 1   
    37   19   20 ar  
    38   19   42 1   
    39   20   21 ar  
    40   20   43 1   
    41   21   22 1   
    42   22   23 1   
    43   23   44 1   
    44   23   45 1   
    45   23   46 1   
    46   26   47 1   
    47   26   48 1   
    48   27   28 1   
    49   27   29 2   
    50   27   30 2   
    51   28   49 1   
    52   28   50 1   
    53   28   51 1   
@<TRIPOS>SUBSTRUCTURE
     1 LIA         1 TEMP              0 ****  ****    0 ROOT
