@<TRIPOS>MOLECULE
LIB
   58    60     1     0     0
SMALL
bcc


@<TRIPOS>ATOM
      1 N1          0.6630    0.5500   -1.3800 n         1 LIB     -0.350500
      2 C4          3.2010    2.7810    1.1670 ca        1 LIB      0.139100
      3 C5          2.5320    2.0880   -1.0490 ca        1 LIB     -0.080000
      4 C6          1.3530    1.2520    0.9070 ca        1 LIB     -0.080000
      5 C7          2.1930    1.9930    1.7340 ca        1 LIB     -0.184500
      6 C8          3.3720    2.8270   -0.2290 ca        1 LIB     -0.184500
      7 C20         2.4410   -2.7430   -1.2620 ca        1 LIB      0.080600
      8 C22         3.3960   -5.3510   -1.7750 ca        1 LIB     -0.148000
      9 C24         3.8300   -3.0370   -1.2360 ca        1 LIB     -0.036600
     10 C26         2.0300   -5.0790   -1.8090 ca        1 LIB     -0.106000
     11 CL28        4.9760   -1.8200   -0.8910 cl        1 LIB     -0.104400
     12 C25         4.2950   -4.3280   -1.4850 ca        1 LIB     -0.102000
     13 C23         1.5500   -3.8000   -1.5540 ca        1 LIB     -0.136000
     14 C1          0.8300   -0.8750   -1.4830 c         1 LIB      0.770100
     15 O18        -0.0350   -1.5440   -2.0850 o         1 LIB     -0.592100
     16 C2          1.5110    1.2870   -0.4910 ca        1 LIB     -0.057400
     17 C14         3.9370    3.5350    3.3020 c3        1 LIB      0.111700
     18 C3         -0.7090    1.0040   -1.4060 ca        1 LIB      0.577200
     19 C32        -1.1050    1.8790   -2.4490 ca        1 LIB     -0.379600
     20 C37        -2.4550    2.2720   -2.4500 ca        1 LIB      0.460200
     21 N38        -3.3520    1.8780   -1.5380 nb        1 LIB     -0.739000
     22 C34        -2.8790    1.0390   -0.5310 ca        1 LIB      0.878900
     23 N33        -1.5730    0.5770   -0.4470 nb        1 LIB     -0.769000
     24 N35        -3.7330    0.6980    0.5360 nh        1 LIB     -0.810900
     25 C40        -5.1740    0.6900    0.3350 c3        1 LIB      0.223500
     26 C43        -5.6600   -0.3940   -0.6280 c3        1 LIB     -0.124100
     27 C42        -5.9050    0.5420    1.7090 c3        1 LIB      0.143800
     28 C47        -5.5060    1.6620    2.6620 c3        1 LIB     -0.123100
     29 C46        -7.4150    0.5620    1.4960 c3        1 LIB     -0.123100
     30 O45        -5.5080   -0.7220    2.2410 oh        1 LIB     -0.605800
     31 H5          2.6680    2.1320   -2.1420 ha        1 LIB      0.155500
     32 H6          0.5580    0.6370    1.3610 ha        1 LIB      0.155500
     33 H7          2.0500    1.9510    2.8230 ha        1 LIB      0.150000
     34 H8          4.1700    3.4530   -0.6550 ha        1 LIB      0.150000
     35 H22         3.7670   -6.3670   -1.9760 ha        1 LIB      0.138000
     36 H26         1.3150   -5.8850   -2.0390 ha        1 LIB      0.139000
     37 H25         5.3760   -4.5350   -1.4560 ha        1 LIB      0.146000
     38 H23         0.4630   -3.6100   -1.5900 ha        1 LIB      0.177000
     39 HN19        2.6910   -0.8330   -0.5770 hn        1 LIB      0.331500
     40 H141        4.7460    4.2230    3.6570 h1        1 LIB      0.047367
     41 H142        2.9320    3.9230    3.5950 h1        1 LIB      0.047367
     42 H143        4.0930    2.5040    3.7010 h1        1 LIB      0.047367
     43 H32        -0.4070    2.2180   -3.2210 ha        1 LIB      0.165000
     44 H37        -2.8440    2.9410   -3.2400 h4        1 LIB      0.028100
     45 HN35       -3.4140   -0.0710    1.0950 hn        1 LIB      0.434800
     46 H40        -5.4750    1.7010   -0.0720 h1        1 LIB      0.082700
     47 H431       -5.6030   -1.3990   -0.1450 hc        1 LIB      0.049367
     48 H432       -6.7190   -0.1900   -0.9140 hc        1 LIB      0.049367
     49 H433       -5.0450   -0.4030   -1.5600 hc        1 LIB      0.049367
     50 H471       -5.6300    2.6510    2.1610 hc        1 LIB      0.046700
     51 H472       -6.1480    1.6370    3.5750 hc        1 LIB      0.046700
     52 H473       -4.4420    1.5470    2.9780 hc        1 LIB      0.046700
     53 H461       -7.7490   -0.3870    1.0120 hc        1 LIB      0.046700
     54 H462       -7.9380    0.6570    2.4780 hc        1 LIB      0.046700
     55 H463       -7.7030    1.4250    0.8520 hc        1 LIB      0.046700
     56 HO45       -5.9270   -0.8040    3.1060 ho        1 LIB      0.404000
     57 O13         4.0890    3.5530    1.8860 os        1 LIB     -0.322900
     58 N19         1.9950   -1.4490   -0.9450 n         1 LIB     -0.458100
@<TRIPOS>BOND
     1    1   14 1   
     2    1   16 1   
     3    1   18 1   
     4    2    5 ar  
     5    2    6 ar  
     6    2   57 1   
     7    3    6 ar  
     8    3   16 ar  
     9    3   31 1   
    10    4    5 ar  
    11    4   16 ar  
    12    4   32 1   
    13    5   33 1   
    14    6   34 1   
    15    7    9 ar  
    16    7   13 ar  
    17    7   58 1   
    18    8   10 ar  
    19    8   12 ar  
    20    8   35 1   
    21    9   11 1   
    22    9   12 ar  
    23   10   13 ar  
    24   10   36 1   
    25   12   37 1   
    26   13   38 1   
    27   14   15 2   
    28   14   58 1   
    29   17   40 1   
    30   17   41 1   
    31   17   42 1   
    32   17   57 1   
    33   18   19 ar  
    34   18   23 ar  
    35   19   20 ar  
    36   19   43 1   
    37   20   21 ar  
    38   20   44 1   
    39   21   22 ar  
    40   22   23 ar  
    41   22   24 1   
    42   24   25 1   
    43   24   45 1   
    44   25   26 1   
    45   25   27 1   
    46   25   46 1   
    47   26   47 1   
    48   26   48 1   
    49   26   49 1   
    50   27   28 1   
    51   27   29 1   
    52   27   30 1   
    53   28   50 1   
    54   28   51 1   
    55   28   52 1   
    56   29   53 1   
    57   29   54 1   
    58   29   55 1   
    59   30   56 1   
    60   39   58 1   
@<TRIPOS>SUBSTRUCTURE
     1 LIB         1 TEMP              0 ****  ****    0 ROOT
