@<TRIPOS>MOLECULE
LIB
   58    52     1     0     0
SMALL
bcc


@<TRIPOS>ATOM
      1 N1          1.0590   -0.3110    1.1420 n         1 LIB     -0.246000
      2 C4         -0.1100   -1.8410    4.6610 c1        1 LIB      0.088000
      3 C5         -0.1620    0.2970    3.5430 c1        1 LIB     -0.119000
      4 C6          0.6140   -1.6600    2.3680 c1        1 LIB     -0.059000
      5 C7          0.3900   -2.4330    3.5040 c1        1 LIB     -0.208000
      6 C8         -0.3860   -0.4750    4.6800 c1        1 LIB     -0.119000
      7 C20         4.6410   -0.7150   -0.0480 c1        1 LIB      0.053000
      8 C22         7.4100   -0.9520   -0.1240 c1        1 LIB     -0.119000
      9 C24         5.4280    0.0480    0.8080 c1        1 LIB     -0.038000
     10 C26         6.6240   -1.7130   -0.9790 c1        1 LIB     -0.119000
     11 CL28        4.6880    1.2670    1.8130 cl        1 LIB      0.012000
     12 C25         6.8130   -0.0710    0.7690 c1        1 LIB     -0.122000
     13 C23         5.2390   -1.5950   -0.9410 c1        1 LIB     -0.138000
     14 N19         3.2180   -0.5220   -0.0770 n         1 LIB     -0.328000
     15 C1          2.5050   -0.3020    1.1440 c2        1 LIB      0.412000
     16 O18         3.1090   -0.2800    2.2030 o         1 LIB     -0.324000
     17 C2          0.3370   -0.2950    2.3870 c1        1 LIB      0.011000
     18 O13        -0.2270   -2.6040    5.8530 os        1 LIB     -0.210000
     19 C14        -1.5250   -3.1370    6.0690 c3        1 LIB     -0.076000
     20 C3          0.3360   -0.3370   -0.1140 c2        1 LIB      0.197000
     21 C32         0.3900   -1.4480   -0.9120 c2        1 LIB     -0.345000
     22 C37        -0.3710   -1.5110   -2.0520 c1        1 LIB      0.015000
     23 N38        -1.1720   -0.4780   -2.3850 n1        1 LIB     -0.237000
     24 C34        -1.2260    0.6310   -1.5880 c1        1 LIB      0.179000
     25 N33        -0.4660    0.6950   -0.4490 n1        1 LIB     -0.262000
     26 N35        -2.0660    1.7470   -1.9590 n3        1 LIB     -0.260000
     27 C40        -3.3720    1.5150   -2.4740 c3        1 LIB      0.031000
     28 C43        -4.3520    1.3850   -1.3280 c3        1 LIB     -0.240000
     29 C42        -3.7840    2.6840   -3.3660 c3        1 LIB      0.072000
     30 C47        -2.9130    2.6960   -4.6310 c3        1 LIB     -0.241500
     31 C46        -5.2640    2.5300   -3.7630 c3        1 LIB     -0.241500
     32 O45        -3.6080    3.9010   -2.6600 oh        1 LIB     -0.333000
     33 H5         -0.3570    1.2590    3.5570 ha        1 LIB      0.144500
     34 H6          0.9650   -2.0770    1.5540 ha        1 LIB      0.152000
     35 H7          0.5850   -3.3960    3.4900 ha        1 LIB      0.140000
     36 H8         -0.7390   -0.0570    5.4960 ha        1 LIB      0.144500
     37 H22         8.3870   -1.0350   -0.1510 ha        1 LIB      0.144500
     38 H26         7.0460   -2.3350   -1.6100 ha        1 LIB      0.144500
     39 H25         7.3680    0.4660    1.3720 ha        1 LIB      0.151000
     40 H23         4.6850   -2.1330   -1.5440 ha        1 LIB      0.137000
     41 HN19        2.7590   -0.6540   -0.8500 hn        1 LIB      0.238000
     42 H141       -1.8190   -3.6200    5.2650 h1        1 LIB      0.084333
     43 H142       -2.1510   -2.4060    6.2600 h1        1 LIB      0.084333
     44 H143       -1.5010   -3.7570    6.8330 h1        1 LIB      0.084333
     45 H32         0.9730   -2.1980   -0.6690 ha        1 LIB      0.156000
     46 H37        -0.3320   -2.3070   -2.6250 ha        1 LIB      0.162000
     47 HN35       -1.7680    2.6080   -1.8350 hn        1 LIB      0.237000
     48 H40        -3.3730    0.6860   -3.0000 h1        1 LIB      0.122000
     49 H431       -3.8790    1.5110   -0.4760 hc        1 LIB      0.088667
     50 H432       -4.7630    0.4900   -1.3460 hc        1 LIB      0.088667
     51 H433       -5.0520    2.0680   -1.4170 hc        1 LIB      0.088667
     52 H471       -2.8700    1.7900   -5.0080 hc        1 LIB      0.086667
     53 H472       -2.0070    2.9990   -4.4020 hc        1 LIB      0.086667
     54 H473       -3.3050    3.3080   -5.2930 hc        1 LIB      0.086667
     55 H461       -5.8330    2.7360   -2.9890 hc        1 LIB      0.086667
     56 H462       -5.4300    1.6070   -4.0560 hc        1 LIB      0.086667
     57 H463       -5.4720    3.1510   -4.4980 hc        1 LIB      0.086667
     58 HO45       -3.9140    4.5790   -3.1540 ho        1 LIB      0.205000
@<TRIPOS>BOND
     1    1   15 1   
     2    1   17 1   
     3    1   20 1   
     4    2    5 1   
     5    2   18 1   
     6    3    6 1   
     7    3   33 1   
     8    4   17 1   
     9    4   34 1   
    10    5   35 1   
    11    6   36 1   
    12    7   13 1   
    13    7   14 1   
    14    8   10 1   
    15    8   37 1   
    16    9   11 1   
    17    9   12 1   
    18   10   38 1   
    19   12   39 1   
    20   13   40 1   
    21   14   15 1   
    22   14   41 1   
    23   15   16 1   
    24   18   19 1   
    25   19   42 1   
    26   19   43 1   
    27   19   44 1   
    28   20   21 1   
    29   20   25 1   
    30   21   22 1   
    31   21   45 1   
    32   22   46 1   
    33   23   24 1   
    34   24   26 1   
    35   26   27 1   
    36   26   47 1   
    37   27   28 1   
    38   27   29 1   
    39   27   48 1   
    40   28   49 1   
    41   28   50 1   
    42   28   51 1   
    43   29   30 1   
    44   29   31 1   
    45   29   32 1   
    46   30   52 1   
    47   30   53 1   
    48   30   54 1   
    49   31   55 1   
    50   31   56 1   
    51   31   57 1   
    52   32   58 1   
@<TRIPOS>SUBSTRUCTURE
     1 LIB         1 TEMP              0 ****  ****    0 ROOT
