@<TRIPOS>MOLECULE
LIB
   58    57     1     0     0
SMALL
bcc


@<TRIPOS>ATOM
      1 N1         -0.0020   -1.3800    0.2570 n         1 LIB     -0.179000
      2 C4         -1.7630    1.0240   -4.2610 c2        1 LIB     -0.052000
      3 C5         -1.4850   -1.6280   -1.6210 c1        1 LIB      0.286000
      4 C6         -0.8540    0.6290   -1.0040 c2        1 LIB     -0.427000
      5 C7         -1.1930    1.3800   -2.0340 c1        1 LIB      0.110000
      6 C8         -1.9210   -0.2040   -3.7460 c2        1 LIB     -0.278000
      7 C20         3.3460   -0.7480   -1.3090 c2        1 LIB      0.216000
      8 C22         6.0940   -0.9430   -2.1790 c3        1 LIB     -0.195000
      9 C24         3.8330    0.0110   -2.3900 c2        1 LIB     -0.236000
     10 C26         5.5640   -1.7490   -1.0600 c2        1 LIB     -0.091000
     11 Cl28        2.7820    1.0870   -3.2120 cl        1 LIB     -0.037000
     12 C25         5.1510   -0.0470   -2.8360 c1        1 LIB     -0.102000
     13 C23         4.2800   -1.6560   -0.6530 c2        1 LIB     -0.203000
     14 C1          1.4320   -1.2350    0.2230 c2        1 LIB      0.402000
     15 O18         2.1010   -1.6970    1.1640 o         1 LIB     -0.318000
     16 C2         -0.7780   -0.8160   -0.8060 c2        1 LIB     -0.249000
     17 C14        -2.7190    3.1390   -3.7910 c1        1 LIB      0.004000
     18 C3         -0.5920   -1.2040    1.5690 c2        1 LIB      0.154000
     19 C32        -1.4260   -2.2310    2.0710 c2        1 LIB     -0.255000
     20 C37        -1.9410   -2.0290    3.3660 c2        1 LIB      0.005000
     21 N38        -1.6940   -0.9480    4.1120 n2        1 LIB     -0.212000
     22 C34        -0.8840    0.0310    3.5340 c2        1 LIB      0.177000
     23 N33        -0.3110   -0.0760    2.2720 n2        1 LIB     -0.258000
     24 N35        -0.6870    1.2420    4.2050 nu        1 LIB     -0.265000
     25 C40        -0.8820    1.3500    5.6400 c3        1 LIB     -0.006000
     26 C43         0.1280    0.5450    6.4600 c3        1 LIB     -0.245000
     27 C42        -0.8550    2.8570    6.0640 c3        1 LIB      0.073000
     28 C47        -1.9460    3.6370    5.3360 c3        1 LIB     -0.221500
     29 C46        -1.0540    2.9720    7.5700 c3        1 LIB     -0.221500
     30 O45         0.3760    3.4560    5.6670 oh        1 LIB     -0.326000
     31 H5         -2.8670   -0.5340   -3.2890 ha        1 LIB      0.147500
     32 H6         -0.6030    1.2420   -0.0990 ha        1 LIB      0.225000
     33 H7         -0.8620    1.4090   -4.7620 h4        1 LIB      0.155000
     34 H8         -1.1450   -0.9730   -3.8740 ha        1 LIB      0.147500
     35 H22         6.9580   -0.3090   -1.8160 hc        1 LIB      0.162000
     36 H26         3.9170   -2.2680    0.1910 ha        1 LIB      0.175000
     37 H25         6.5220   -1.6240   -2.9730 hc        1 LIB      0.162000
     38 H23         6.2590   -2.4430   -0.5600 ha        1 LIB      0.136000
     39 HN19        1.4450   -0.0610   -1.4900 hn        1 LIB      0.263000
     40 H141        0.4480    2.7410   -3.4300 ha        1 LIB      0.001500
     41 H142        0.8900    3.1250   -3.7720 ha        1 LIB      0.001500
     42 H143       -1.7340    3.5070   -3.4300 ha        1 LIB      0.045000
     43 H32        -1.6480   -3.1390    1.5020 ha        1 LIB      0.168000
     44 H37        -2.5900   -2.7930    3.8360 h4        1 LIB      0.170000
     45 HN35        0.0330    1.8360    3.8430 hn        1 LIB      0.241000
     46 H40        -1.9180    0.9660    5.8810 h1        1 LIB      0.126000
     47 H431        1.1460    0.9980    6.4040 hc        1 LIB      0.086000
     48 H432        0.1900   -0.5080    6.0930 hc        1 LIB      0.086000
     49 H433       -0.1980    0.5170    7.5270 hc        1 LIB      0.086000
     50 H471       -2.0320    4.6620    5.7690 hc        1 LIB      0.088333
     51 H472       -2.9210    3.1060    5.4450 hc        1 LIB      0.088333
     52 H473       -1.6990    3.7380    4.2520 hc        1 LIB      0.088333
     53 H461       -1.1920    4.0450    7.8480 hc        1 LIB      0.088333
     54 H462       -1.9580    2.3980    7.8830 hc        1 LIB      0.088333
     55 H463       -0.1650    2.5820    8.1210 hc        1 LIB      0.088333
     56 HO45        1.0630    3.1180    6.2530 ho        1 LIB      0.201000
     57 O13        -2.8490    1.9410   -4.2210 os        1 LIB     -0.055000
     58 N19         2.0260   -0.6470   -0.9160 ns        1 LIB     -0.310000
@<TRIPOS>BOND
     1    1   14 1   
     2    1   16 1   
     3    1   18 1   
     4    2    6 1   
     5    2   33 1   
     6    2   57 1   
     7    3   16 1   
     8    4    5 1   
     9    4   16 1   
    10    4   32 1   
    11    6   31 1   
    12    6   34 1   
    13    7    9 1   
    14    7   13 1   
    15    7   58 1   
    16    8   10 1   
    17    8   12 1   
    18    8   35 1   
    19    8   37 1   
    20    9   11 1   
    21    9   12 1   
    22   10   13 1   
    23   10   38 1   
    24   13   36 1   
    25   14   15 1   
    26   14   58 1   
    27   17   42 1   
    28   17   57 1   
    29   18   19 1   
    30   18   23 1   
    31   19   20 1   
    32   19   43 1   
    33   20   21 1   
    34   20   44 1   
    35   21   22 1   
    36   22   23 1   
    37   22   24 1   
    38   24   25 1   
    39   24   45 1   
    40   25   26 1   
    41   25   27 1   
    42   25   46 1   
    43   26   47 1   
    44   26   48 1   
    45   26   49 1   
    46   27   28 1   
    47   27   29 1   
    48   27   30 1   
    49   28   50 1   
    50   28   51 1   
    51   28   52 1   
    52   29   53 1   
    53   29   54 1   
    54   29   55 1   
    55   30   56 1   
    56   39   58 1   
    57   40   41 1   
@<TRIPOS>SUBSTRUCTURE
     1 LIB         1 TEMP              0 ****  ****    0 ROOT
