@<TRIPOS>MOLECULE
LIB
   58    57     1     0     0
SMALL
bcc


@<TRIPOS>ATOM
      1 N1          0.0610   -1.3960    0.2730 n         1 LIB     -0.179000
      2 C4         -1.7870    0.9120   -4.2610 c2        1 LIB     -0.052000
      3 C5         -1.4180   -1.7080   -1.6000 c1        1 LIB      0.286000
      4 C6         -0.8600    0.5740   -1.0020 c2        1 LIB     -0.427000
      5 C7         -1.2260    1.3040   -2.0360 c1        1 LIB      0.110000
      6 C8         -1.9030   -0.3170   -3.7350 c2        1 LIB     -0.278000
      7 C20         3.3820   -0.6650   -1.3060 c2        1 LIB      0.216000
      8 C22         6.1330   -0.7760   -2.1820 c3        1 LIB     -0.195000
      9 C24         3.8410    0.1010   -2.3940 c2        1 LIB     -0.236000
     10 C26         5.6320   -1.5900   -1.0560 c2        1 LIB     -0.091000
     11 Cl28        2.7540    1.1350   -3.2220 cl        1 LIB     -0.037000
     12 C25         5.1590    0.0830   -2.8430 c1        1 LIB     -0.102000
     13 C23         4.3470   -1.5370   -0.6450 c2        1 LIB     -0.203000
     14 C1          1.4890   -1.2030    0.2340 c2        1 LIB      0.402000
     15 O18         2.1750   -1.6350    1.1770 o         1 LIB     -0.318000
     16 C2         -0.7360   -0.8670   -0.7930 c2        1 LIB     -0.249000
     17 C14        -2.8130    2.9980   -3.8050 c1        1 LIB      0.004000
     18 C3         -0.5320   -1.2300    1.5850 c2        1 LIB      0.154000
     19 C32        -1.3290   -2.2810    2.0970 c2        1 LIB     -0.255000
     20 C37        -1.8480   -2.0860    3.3920 c2        1 LIB      0.005000
     21 N38        -1.6370   -0.9920    4.1290 n2        1 LIB     -0.212000
     22 C34        -0.8620    0.0090    3.5410 c2        1 LIB      0.177000
     23 N33        -0.2880   -0.0880    2.2790 n2        1 LIB     -0.258000
     24 N35        -0.7060    1.2320    4.2020 nu        1 LIB     -0.265000
     25 C40        -0.9000    1.3440    5.6360 c3        1 LIB     -0.006000
     26 C43         0.1390    0.5820    6.4600 c3        1 LIB     -0.245000
     27 C42        -0.9240    2.8550    6.0480 c3        1 LIB      0.073000
     28 C47        -2.0440    3.5900    5.3180 c3        1 LIB     -0.221500
     29 C46        -1.1230    2.9750    7.5540 c3        1 LIB     -0.221500
     30 O45         0.2840    3.4930    5.6430 oh        1 LIB     -0.326000
     31 H5         -2.8370   -0.6750   -3.2750 ha        1 LIB      0.147500
     32 H6         -0.6290    1.2020   -0.1020 ha        1 LIB      0.226000
     33 H7         -0.9000    1.3230   -4.7660 h4        1 LIB      0.155000
     34 H8         -1.1010   -1.0600   -3.8590 ha        1 LIB      0.147500
     35 H22         6.9760   -0.1110   -1.8270 hc        1 LIB      0.162000
     36 H26         4.0060   -2.1540    0.2030 ha        1 LIB      0.175000
     37 H25         6.5810   -1.4490   -2.9720 hc        1 LIB      0.162000
     38 H23         6.3510   -2.2570   -0.5520 ha        1 LIB      0.136000
     39 HN19        1.4590   -0.0430   -1.4880 hn        1 LIB      0.263000
     40 H141        0.3650    2.7100   -3.4460 ha        1 LIB      0.001500
     41 H142        0.7940    3.1070   -3.7900 ha        1 LIB      0.001500
     42 H143       -1.8400    3.4010   -3.4490 ha        1 LIB      0.045000
     43 H32        -1.5210   -3.2010    1.5350 ha        1 LIB      0.168000
     44 H37        -2.4690   -2.8690    3.8690 h4        1 LIB      0.170000
     45 HN35       -0.0070    1.8480    3.8330 hn        1 LIB      0.241000
     46 H40        -1.9220    0.9260    5.8830 h1        1 LIB      0.126000
     47 H431        1.1410    1.0690    6.3970 hc        1 LIB      0.086000
     48 H432        0.2370   -0.4720    6.1010 hc        1 LIB      0.086000
     49 H433       -0.1830    0.5500    7.5280 hc        1 LIB      0.086000
     50 H471       -2.1640    4.6150    5.7440 hc        1 LIB      0.088333
     51 H472       -2.9990    3.0270    5.4350 hc        1 LIB      0.088333
     52 H473       -1.8040    3.6910    4.2330 hc        1 LIB      0.088333
     53 H461       -1.2970    4.0440    7.8250 hc        1 LIB      0.088333
     54 H462       -2.0050    2.3720    7.8740 hc        1 LIB      0.088333
     55 H463       -0.2200    2.6200    8.1060 hc        1 LIB      0.088333
     56 HO45        0.9840    3.1830    6.2300 ho        1 LIB      0.201000
     57 O13        -2.9030    1.7930   -4.2260 os        1 LIB     -0.055000
     58 N19         2.0600   -0.6050   -0.9110 ns        1 LIB     -0.310000
@<TRIPOS>BOND
     1    1   14 1   
     2    1   16 1   
     3    1   18 1   
     4    2    6 1   
     5    2   33 1   
     6    2   57 1   
     7    3   16 1   
     8    4    5 1   
     9    4   16 1   
    10    4   32 1   
    11    6   31 1   
    12    6   34 1   
    13    7    9 1   
    14    7   13 1   
    15    7   58 1   
    16    8   10 1   
    17    8   12 1   
    18    8   35 1   
    19    8   37 1   
    20    9   11 1   
    21    9   12 1   
    22   10   13 1   
    23   10   38 1   
    24   13   36 1   
    25   14   15 1   
    26   14   58 1   
    27   17   42 1   
    28   17   57 1   
    29   18   19 1   
    30   18   23 1   
    31   19   20 1   
    32   19   43 1   
    33   20   21 1   
    34   20   44 1   
    35   21   22 1   
    36   22   23 1   
    37   22   24 1   
    38   24   25 1   
    39   24   45 1   
    40   25   26 1   
    41   25   27 1   
    42   25   46 1   
    43   26   47 1   
    44   26   48 1   
    45   26   49 1   
    46   27   28 1   
    47   27   29 1   
    48   27   30 1   
    49   28   50 1   
    50   28   51 1   
    51   28   52 1   
    52   29   53 1   
    53   29   54 1   
    54   29   55 1   
    55   30   56 1   
    56   39   58 1   
    57   40   41 1   
@<TRIPOS>SUBSTRUCTURE
     1 LIB         1 TEMP              0 ****  ****    0 ROOT
