@<TRIPOS>MOLECULE
LIC
   62    61     1     0     0
SMALL
bcc


@<TRIPOS>ATOM
      1 N1         -1.2300   -0.0150   -1.4110 n         1 LIC     -0.233000
      2 C7          3.1360    0.0840    0.8940 c2        1 LIC      0.021000
      3 C13         3.5700    1.7070   -0.8990 c3        1 LIC     -0.103000
      4 C15         5.9800    2.4780    0.5480 c2        1 LIC     -0.199000
      5 C21        -3.8990    0.3080   -4.2000 cx        1 LIC     -0.106000
      6 C22        -3.2030   -1.4700   -1.4650 c1        1 LIC     -0.189000
      7 C24        -2.6970    1.2300   -4.1790 cx        1 LIC     -0.144000
      8 C12         5.1780    1.4380    1.1010 c2        1 LIC      0.161000
      9 C11         5.6380    2.6990   -0.7410 c1        1 LIC      0.101000
     10 C14         4.7900    2.2230   -1.6270 c2        1 LIC     -0.077000
     11 C9          3.9760    1.0320    0.4020 c2        1 LIC     -0.235000
     12 C1         -0.0040   -0.5440   -1.9310 c2        1 LIC      0.437000
     13 O4          1.1000   -0.0210   -1.6330 o         1 LIC     -0.441000
     14 C2         -2.4600   -0.4060   -2.0400 c2        1 LIC      0.162000
     15 C25        -3.8420   -2.3650   -0.9930 c1        1 LIC     -0.121000
     16 C31        -4.8790   -1.2480   -5.7260 c1        1 LIC     -0.001000
     17 C23        -2.8870    0.2180   -3.1380 cu        1 LIC     -0.145000
     18 C3         -1.3170    0.4170   -0.0590 c2        1 LIC      0.201000
     19 C35        -2.4060    1.2490    0.3320 c2        1 LIC     -0.287000
     20 C37        -2.4280    1.6670    1.6710 c2        1 LIC      0.012000
     21 N39        -1.4890    1.3510    2.5750 n2        1 LIC     -0.212000
     22 C41        -0.4490    0.5560    2.1140 c2        1 LIC      0.158000
     23 N42        -0.3580    0.0360    0.8300 n2        1 LIC     -0.278000
     24 N36         0.6660    0.3090    2.9410 nu        1 LIC     -0.257000
     25 C43         0.5530    0.3740    4.3880 c3        1 LIC     -0.026000
     26 C45        -0.2570   -0.7650    5.0070 c3        1 LIC     -0.243000
     27 C47         1.9680    0.3870    5.0370 c3        1 LIC      0.000000
     28 C53         2.6780    1.7050    4.8020 c3        1 LIC     -0.205000
     29 O52         2.7920   -0.6360    4.4820 oh        1 LIC     -0.359000
     30 C51         0.9830   -0.5360    8.1260 c1        1 LIC     -0.051000
     31 H71         2.2150   -0.1980    0.3420 ha        1 LIC      0.186000
     32 H72         3.3180   -0.4430    1.8480 ha        1 LIC      0.186000
     33 H22        -4.4100   -3.1610   -0.5770 ha        1 LIC      0.239000
     34 H24        -1.8990    1.0820   -4.9340 hc        1 LIC      0.140500
     35 H11         4.8960    2.1080   -2.7120 ha        1 LIC      0.218000
     36 H14         3.0700    0.9570   -1.5800 hc        1 LIC      0.174500
     37 H25        -4.9260    0.6660   -4.0000 h1        1 LIC      0.148000
     38 H311       -1.1110    3.8120   -5.7900 ha        1 LIC      0.000000
     39 H312       -1.3830    3.2980   -5.4430 ha        1 LIC      0.000000
     40 H313       -5.9010   -0.9220   -5.4410 ha        1 LIC      0.044000
     41 H23        -2.8470    2.3000   -3.9370 hc        1 LIC      0.140500
     42 H35        -3.1920    1.5460   -0.3710 ha        1 LIC      0.167000
     43 H37        -3.2530    2.3030    2.0480 h4        1 LIC      0.176000
     44 HN36        1.2210   -0.4730    2.6470 hn        1 LIC      0.205000
     45 H43         0.0580    1.3530    4.6620 h1        1 LIC      0.136000
     46 H451       -1.3100   -0.7470    4.6390 hc        1 LIC      0.087333
     47 H452        0.1950   -1.7560    4.7640 hc        1 LIC      0.087333
     48 H453       -0.2640   -0.6440    6.1200 hc        1 LIC      0.087333
     49 H531        2.8660    1.8670    3.7140 hc        1 LIC      0.080333
     50 H532        2.0500    2.5420    5.1890 hc        1 LIC      0.080333
     51 H533        1.8300    0.2130    6.1490 h1        1 LIC      0.144000
     52 HO52        2.5430   -1.4570    4.9250 ho        1 LIC      0.211000
     53 H511        0.5270    0.2310    8.7690 ha        1 LIC      0.029000
     54 H512        3.6580    1.7070    5.3350 hc        1 LIC      0.080333
     55 H513        0.9990   -1.5230    8.6130 ha        1 LIC      0.029000
     56 N5         -0.0340   -1.6060   -2.8110 nt        1 LIC     -0.416000
     57 H13         2.8130    2.5100   -0.6850 hc        1 LIC      0.174500
     58 Cl16        5.5200    0.8850    2.6300 cl        1 LIC      0.164000
     59 HN5         0.8130   -1.8520   -3.2610 hn        1 LIC      0.245000
     60 H52        -0.8800   -2.0090   -3.1290 hn        1 LIC      0.245000
     61 O30        -3.8430   -0.7350   -5.2010 os        1 LIC     -0.052000
     62 H15         6.6890    3.0670    1.1470 ha        1 LIC      0.222000
@<TRIPOS>BOND
     1    1   12 1   
     2    1   14 1   
     3    1   18 1   
     4    2   11 1   
     5    2   31 1   
     6    2   32 1   
     7    3   10 1   
     8    3   11 1   
     9    3   36 1   
    10    3   57 1   
    11    4    8 1   
    12    4    9 1   
    13    4   62 1   
    14    5    7 1   
    15    5   17 1   
    16    5   37 1   
    17    5   61 1   
    18    6   14 1   
    19    6   15 1   
    20    7   17 1   
    21    7   34 1   
    22    7   41 1   
    23    8   11 1   
    24    8   58 1   
    25    9   10 1   
    26   10   35 1   
    27   12   13 1   
    28   12   56 1   
    29   14   17 1   
    30   15   33 1   
    31   16   40 1   
    32   16   61 1   
    33   18   19 1   
    34   18   23 1   
    35   19   20 1   
    36   19   42 1   
    37   20   21 1   
    38   20   43 1   
    39   21   22 1   
    40   22   23 1   
    41   22   24 1   
    42   24   25 1   
    43   24   44 1   
    44   25   26 1   
    45   25   27 1   
    46   25   45 1   
    47   26   46 1   
    48   26   47 1   
    49   26   48 1   
    50   27   28 1   
    51   27   29 1   
    52   27   51 1   
    53   28   49 1   
    54   28   50 1   
    55   28   54 1   
    56   29   52 1   
    57   30   53 1   
    58   30   55 1   
    59   38   39 1   
    60   56   59 1   
    61   56   60 1   
@<TRIPOS>SUBSTRUCTURE
     1 LIC         1 TEMP              0 ****  ****    0 ROOT
