@<TRIPOS>MOLECULE
LIC
   61    57     1     0     0
SMALL
bcc


@<TRIPOS>ATOM
      1 N1          0.5230    0.6000    1.2980 n         1 LIC     -0.251000
      2 C7          4.1360    0.5120    0.0180 c3        1 LIC      0.020000
      3 C13         5.5000    1.8610    1.5490 c1        1 LIC     -0.102000
      4 C15         6.1100    3.7310   -0.4010 c1        1 LIC     -0.127000
      5 C21        -1.5070    0.4670    4.9960 c1        1 LIC      0.087000
      6 C22        -0.3700    1.7220    3.2860 c1        1 LIC     -0.084000
      7 C24        -1.3230   -0.6980    4.2590 c1        1 LIC     -0.157000
      8 CL16        4.3860    2.6640   -2.2150 cl        1 LIC     -0.022000
      9 C12         5.1460    2.7600   -0.6470 c2        1 LIC     -0.052000
     10 C11         6.7640    3.7630    0.8160 c1        1 LIC     -0.124000
     11 C14         6.4590    2.8260    1.7930 c1        1 LIC     -0.124000
     12 C9          4.8420    1.8290    0.3250 c2        1 LIC     -0.093000
     13 N5          2.7000    0.7170    0.0450 n         1 LIC     -0.347000
     14 C1          1.9920    0.6560    1.2880 c2        1 LIC      0.430000
     15 O4          2.6100    0.6680    2.3450 o         1 LIC     -0.382000
     16 C2         -0.1880    0.5580    2.5530 c2        1 LIC      0.004000
     17 C25        -1.0300    1.6770    4.5080 c1        1 LIC     -0.210000
     18 O30        -2.0000    0.3920    6.3100 os        1 LIC     -0.208000
     19 C31        -3.3550    0.7310    6.4290 c3        1 LIC     -0.077000
     20 C23        -0.6640   -0.6520    3.0390 c2        1 LIC     -0.073000
     21 C3         -0.2250    0.5870    0.0290 c2        1 LIC      0.208000
     22 C35        -0.6730    1.7630   -0.5140 c2        1 LIC     -0.325000
     23 C37        -1.3920    1.7490   -1.6890 c1        1 LIC      0.015000
     24 N39        -1.6530    0.5820   -2.3030 n1        1 LIC     -0.242000
     25 C41        -1.2050   -0.5950   -1.7620 c1        1 LIC      0.180000
     26 N42        -0.4880   -0.5830   -0.5890 n1        1 LIC     -0.297000
     27 N36        -1.5810   -1.8610   -2.3700 n3        1 LIC     -0.260000
     28 C43        -2.4520   -1.8810   -3.5050 c3        1 LIC      0.031000
     29 C45        -1.6630   -1.6240   -4.7440 c3        1 LIC     -0.241000
     30 C47        -3.1300   -3.2540   -3.6040 c3        1 LIC      0.072000
     31 C53        -3.9750   -3.4940   -2.3570 c3        1 LIC     -0.240500
     32 O52        -2.1280   -4.2760   -3.7080 oh        1 LIC     -0.334000
     33 C51        -4.0410   -3.2920   -4.8600 c3        1 LIC     -0.240500
     34 H71         4.4040    0.1980   -0.8650 h1        1 LIC      0.114000
     35 H72         4.3850   -0.1590    0.6950 h1        1 LIC      0.114000
     36 H13         5.2840    1.1990    2.2410 ha        1 LIC      0.148000
     37 H15         6.3250    4.3920   -1.0900 ha        1 LIC      0.147000
     38 H22        -0.0340    2.5750    2.9420 ha        1 LIC      0.144000
     39 H24        -1.6590   -1.5510    4.6020 ha        1 LIC      0.155000
     40 H11         7.4450    4.4490    0.9890 ha        1 LIC      0.137500
     41 H14         6.9230    2.8500    2.6550 ha        1 LIC      0.137500
     42 HN5         2.2630    0.9360   -0.7120 hn        1 LIC      0.249000
     43 H25        -1.1590    2.5000    5.0260 ha        1 LIC      0.140000
     44 H311       -3.8240    0.0300    6.9290 h1        1 LIC      0.084333
     45 H312       -3.4380    1.5840    6.9070 h1        1 LIC      0.084333
     46 H313       -3.7500    0.8160    5.5370 h1        1 LIC      0.084333
     47 H23        -0.5350   -1.4710    2.5220 ha        1 LIC      0.166000
     48 H35        -0.4840    2.6110   -0.0680 ha        1 LIC      0.163000
     49 H37        -1.7120    2.5870   -2.0770 ha        1 LIC      0.161000
     50 HN36       -1.2610   -2.6400   -2.0300 hn        1 LIC      0.231000
     51 H43        -3.1360   -1.1860   -3.4040 h1        1 LIC      0.123000
     52 H451       -0.7170   -1.5030   -4.5100 hc        1 LIC      0.087333
     53 H452       -1.9970   -0.8140   -5.1810 hc        1 LIC      0.087333
     54 H453       -1.7530   -2.3850   -5.3530 hc        1 LIC      0.087333
     55 H531       -4.5880   -4.2420   -2.5160 hc        1 LIC      0.086667
     56 H532       -4.4920   -2.6850   -2.1510 hc        1 LIC      0.086667
     57 H533       -3.3870   -3.7090   -1.6000 hc        1 LIC      0.086667
     58 HO52       -2.5240   -5.0830   -3.7290 ho        1 LIC      0.204000
     59 H511       -4.7490   -3.9670   -4.7330 hc        1 LIC      0.086667
     60 H512       -3.5040   -3.5250   -5.6490 hc        1 LIC      0.086667
     61 H513       -4.4520   -2.4070   -4.9940 hc        1 LIC      0.086667
@<TRIPOS>BOND
     1    1   14 1   
     2    1   16 1   
     3    1   21 1   
     4    2   12 1   
     5    2   13 1   
     6    2   34 1   
     7    2   35 1   
     8    3   12 1   
     9    3   36 1   
    10    4    9 1   
    11    4   37 1   
    12    5   17 1   
    13    5   18 1   
    14    6   16 1   
    15    6   38 1   
    16    7   20 1   
    17    7   39 1   
    18    8    9 1   
    19    9   12 1   
    20   10   11 1   
    21   10   40 1   
    22   11   41 1   
    23   13   14 1   
    24   13   42 1   
    25   14   15 1   
    26   16   20 1   
    27   17   43 1   
    28   18   19 1   
    29   19   44 1   
    30   19   45 1   
    31   19   46 1   
    32   20   47 1   
    33   21   22 1   
    34   21   26 1   
    35   22   23 1   
    36   22   48 1   
    37   23   49 1   
    38   24   25 1   
    39   25   27 1   
    40   27   28 1   
    41   27   50 1   
    42   28   29 1   
    43   28   30 1   
    44   28   51 1   
    45   29   52 1   
    46   29   53 1   
    47   29   54 1   
    48   30   31 1   
    49   30   32 1   
    50   30   33 1   
    51   31   55 1   
    52   31   56 1   
    53   31   57 1   
    54   32   58 1   
    55   33   59 1   
    56   33   60 1   
    57   33   61 1   
@<TRIPOS>SUBSTRUCTURE
     1 LIC         1 TEMP              0 ****  ****    0 ROOT
