@<TRIPOS>MOLECULE
LIC
   61    63     1     0     0
SMALL
bcc


@<TRIPOS>ATOM
      1 N1         -0.3110    0.4440    0.7600 n         1 LIC     -0.362500
      2 C7         -2.2410   -2.6550   -0.0930 c3        1 LIC      0.129300
      3 C13        -4.4950   -3.2460   -1.0070 ca        1 LIC     -0.108000
      4 C15        -5.8010   -2.2570    1.2500 ca        1 LIC     -0.127000
      5 C21        -2.5790    3.4010   -1.2380 ca        1 LIC      0.124100
      6 C22        -2.3820    1.7100    0.4770 ca        1 LIC     -0.103500
      7 C24        -1.2780    3.1320   -1.6710 ca        1 LIC     -0.173000
      8 C12        -4.4070   -2.1820    1.1550 ca        1 LIC      0.022400
      9 C11        -6.5360   -2.8280    0.2130 ca        1 LIC     -0.116000
     10 C14        -5.8820   -3.3230   -0.9150 ca        1 LIC     -0.130000
     11 C9         -3.7390   -2.6790    0.0260 ca        1 LIC     -0.111300
     12 C1         -0.6270   -0.9490    0.6070 c         1 LIC      0.764100
     13 O4          0.0370   -1.7960    1.2420 o         1 LIC     -0.596100
     14 C2         -1.0640    1.4260    0.0500 ca        1 LIC     -0.019400
     15 C25        -3.1350    2.6830   -0.1610 ca        1 LIC     -0.173000
     16 C31        -2.8760    5.0980   -2.8790 c3        1 LIC      0.112700
     17 C23        -0.5280    2.1460   -1.0340 ca        1 LIC     -0.103500
     18 C3          1.0730    0.7620    0.9900 ca        1 LIC      0.586200
     19 C35         1.3930    1.6270    2.0710 ca        1 LIC     -0.391600
     20 C37         2.7590    1.8620    2.2950 ca        1 LIC      0.459200
     21 N39         3.7440    1.3330    1.5570 nb        1 LIC     -0.744000
     22 C41         3.3490    0.5210    0.4970 ca        1 LIC      0.876900
     23 N42         2.0290    0.2130    0.1950 nb        1 LIC     -0.763000
     24 N36         4.3210    0.0480   -0.4060 nh        1 LIC     -0.809900
     25 C43         5.6950   -0.1270    0.0410 c3        1 LIC      0.223500
     26 C45         5.8720   -1.2310    1.0840 c3        1 LIC     -0.124100
     27 C47         6.6260   -0.4040   -1.1850 c3        1 LIC      0.143800
     28 C53         6.5320    0.7250   -2.2050 c3        1 LIC     -0.122600
     29 O52         6.1750   -1.6290   -1.7620 oh        1 LIC     -0.603800
     30 C51         8.0690   -0.5530   -0.7150 c3        1 LIC     -0.122600
     31 H71        -1.9350   -3.2420   -1.0100 h1        1 LIC      0.077200
     32 H72        -1.7900   -3.1720    0.8060 h1        1 LIC      0.077200
     33 H15        -6.3160   -1.8680    2.1420 ha        1 LIC      0.149000
     34 H22        -2.8200    1.1570    1.3250 ha        1 LIC      0.153000
     35 H24        -0.8340    3.6850   -2.5110 ha        1 LIC      0.148500
     36 H11        -7.6320   -2.8880    0.2880 ha        1 LIC      0.139000
     37 H14        -6.4620   -3.7740   -1.7340 ha        1 LIC      0.138000
     38 H25        -4.1600    2.9080    0.1660 ha        1 LIC      0.148500
     39 H311       -2.6230    4.4270   -3.7350 h1        1 LIC      0.046367
     40 H312       -3.7110    5.7910   -3.1550 h1        1 LIC      0.046367
     41 H313       -1.9760    5.6750   -2.5530 h1        1 LIC      0.046367
     42 H23         0.4930    1.9380   -1.3910 ha        1 LIC      0.153000
     43 H35         0.6210    2.0720    2.7070 ha        1 LIC      0.164000
     44 H37         3.0880    2.5100    3.1290 h4        1 LIC      0.026100
     45 HN36        4.0080   -0.6990   -0.9990 hn        1 LIC      0.435800
     46 H43         6.0450    0.8530    0.4840 h1        1 LIC      0.081700
     47 H451        5.7730   -2.2370    0.6080 hc        1 LIC      0.049367
     48 H452        6.8850   -1.1480    1.5450 hc        1 LIC      0.049367
     49 H453        5.1120   -1.1380    1.8960 hc        1 LIC      0.049367
     50 H531        6.6850    1.7080   -1.7010 hc        1 LIC      0.046533
     51 H532        7.3130    0.5980   -2.9930 hc        1 LIC      0.046533
     52 H533        5.5320    0.7230   -2.7000 hc        1 LIC      0.046533
     53 HO52        6.7180   -1.7830   -2.5440 ho        1 LIC      0.404000
     54 H511        8.1990   -1.5180   -0.1690 hc        1 LIC      0.046533
     55 H512        8.7590   -0.5520   -1.5930 hc        1 LIC      0.046533
     56 H513        8.3450    0.2910   -0.0410 hc        1 LIC      0.046533
     57 O30        -3.4130    4.3490   -1.7950 os        1 LIC     -0.324900
     58 N5         -1.6800   -1.3340   -0.2340 n         1 LIC     -0.541900
     59 H13        -3.9830   -3.6370   -1.9000 ha        1 LIC      0.141000
     60 CL16       -3.5420   -1.4820    2.4420 cl        1 LIC     -0.084400
     61 HN5        -2.2930   -0.6310   -0.5830 hn        1 LIC      0.310500
@<TRIPOS>BOND
     1    1   12 1   
     2    1   14 1   
     3    1   18 1   
     4    2   11 1   
     5    2   31 1   
     6    2   32 1   
     7    2   58 1   
     8    3   10 ar  
     9    3   11 ar  
    10    3   59 1   
    11    4    8 ar  
    12    4    9 ar  
    13    4   33 1   
    14    5    7 ar  
    15    5   15 ar  
    16    5   57 1   
    17    6   14 ar  
    18    6   15 ar  
    19    6   34 1   
    20    7   17 ar  
    21    7   35 1   
    22    8   11 ar  
    23    8   60 1   
    24    9   10 ar  
    25    9   36 1   
    26   10   37 1   
    27   12   13 2   
    28   12   58 1   
    29   14   17 ar  
    30   15   38 1   
    31   16   39 1   
    32   16   40 1   
    33   16   41 1   
    34   16   57 1   
    35   17   42 1   
    36   18   19 ar  
    37   18   23 ar  
    38   19   20 ar  
    39   19   43 1   
    40   20   21 ar  
    41   20   44 1   
    42   21   22 ar  
    43   22   23 ar  
    44   22   24 1   
    45   24   25 1   
    46   24   45 1   
    47   25   26 1   
    48   25   27 1   
    49   25   46 1   
    50   26   47 1   
    51   26   48 1   
    52   26   49 1   
    53   27   28 1   
    54   27   29 1   
    55   27   30 1   
    56   28   50 1   
    57   28   51 1   
    58   28   52 1   
    59   29   53 1   
    60   30   54 1   
    61   30   55 1   
    62   30   56 1   
    63   58   61 1   
@<TRIPOS>SUBSTRUCTURE
     1 LIC         1 TEMP              0 ****  ****    0 ROOT
