@<TRIPOS>MOLECULE
LIC
   61    60     1     0     0
SMALL
bcc


@<TRIPOS>ATOM
      1 N1         -0.8850   -0.2660   -0.6060 n         1 LIC     -0.241000
      2 C7          4.1300   -0.4210   -1.5170 c1        1 LIC     -0.166000
      3 C13         7.3750   -1.8750   -0.8850 c2        1 LIC     -0.174000
      4 C15         6.8860    0.5630   -3.6050 c2        1 LIC     -0.081000
      5 C21        -3.9080    0.0280   -3.5830 c3        1 LIC     -0.153000
      6 C22        -1.6280   -0.6230   -2.9060 c2        1 LIC     -0.287000
      7 C24        -4.1550    0.4310   -2.1810 c2        1 LIC     -0.056000
      8 C12         5.5680    0.7130   -3.3610 c2        1 LIC      0.015000
      9 C11         7.8190   -0.2750   -2.8920 c2        1 LIC     -0.110000
     10 C14         7.5640   -1.0700   -1.8830 c1        1 LIC     -0.115000
     11 C9          4.8090    0.0920   -2.3610 c1        1 LIC     -0.155000
     12 C1          0.5330   -0.2500   -0.9100 c2        1 LIC      0.428000
     13 O4          1.3060   -0.9580   -0.2310 o         1 LIC     -0.358000
     14 C2         -1.8530   -0.1730   -1.5920 c2        1 LIC      0.198000
     15 C25        -2.6550   -0.6720   -3.8270 c1        1 LIC     -0.169000
     16 C31        -4.9140   -1.7180   -4.9250 c1        1 LIC     -0.041000
     17 C23        -3.1810    0.3380   -1.2520 c2        1 LIC     -0.218000
     18 C3         -1.2370   -0.2450    0.7820 c2        1 LIC      0.180000
     19 C35        -2.2440   -1.1210    1.2680 c2        1 LIC     -0.284000
     20 C37        -2.4880   -1.0770    2.6510 c2        1 LIC      0.007000
     21 N39        -1.8460   -0.2690    3.5020 n2        1 LIC     -0.211000
     22 C41        -0.8930    0.5810    2.9450 c2        1 LIC      0.167000
     23 N42        -0.5590    0.6080    1.5960 n2        1 LIC     -0.236000
     24 N36        -0.2770    1.5550    3.7540 nh        1 LIC     -0.254000
     25 C43        -0.1650    1.3430    5.1910 c3        1 LIC     -0.015000
     26 C45         0.8660    0.2780    5.5650 c3        1 LIC     -0.240000
     27 C47         0.1750    2.6930    5.9080 c3        1 LIC      0.079000
     28 C53        -0.9610    3.6900    5.7250 c3        1 LIC     -0.226000
     29 O52         1.4060    3.2080    5.4030 oh        1 LIC     -0.328000
     30 C51         0.4050    2.4410    7.3950 c3        1 LIC     -0.226000
     31 H71         1.9660    0.5190   -2.1310 hn        1 LIC      0.249500
     32 H72         3.5250   -0.8790   -0.7660 ha        1 LIC      0.254000
     33 H15         7.3390    1.1320   -4.4400 ha        1 LIC      0.144000
     34 H22        -0.6570   -1.0580   -3.1960 ha        1 LIC      0.155000
     35 H24        -3.3640    0.6710   -0.2160 ha        1 LIC      0.152000
     36 H11         8.8620   -0.2180   -3.2640 ha        1 LIC      0.143000
     37 H14         7.4570   -1.5440    0.1610 ha        1 LIC      0.140000
     38 H25        -3.9810    0.9350   -4.2530 h1        1 LIC      0.162000
     39 H311       -6.3700    1.2800   -3.8480 ha        1 LIC      0.001000
     40 H312       -6.9130    0.8840   -3.9350 ha        1 LIC      0.001000
     41 H313       -3.9680   -1.9630   -5.4420 ha        1 LIC      0.113000
     42 H23        -5.1470    0.8500   -1.9450 ha        1 LIC      0.152000
     43 H35        -2.7870   -1.8080    0.6110 ha        1 LIC      0.169000
     44 H37        -3.2440   -1.7440    3.1080 h4        1 LIC      0.172000
     45 HN36        0.5550    1.9470    3.3540 hn        1 LIC      0.219000
     46 H43        -1.1760    1.0240    5.5830 h1        1 LIC      0.127000
     47 H451        0.7410   -0.6370    4.9380 hc        1 LIC      0.089000
     48 H452        1.9010    0.6750    5.4290 hc        1 LIC      0.089000
     49 H453        0.7300   -0.0130    6.6340 hc        1 LIC      0.089000
     50 H531       -1.1270    3.9220    4.6460 hc        1 LIC      0.088333
     51 H532       -0.7170    4.6420    6.2570 hc        1 LIC      0.088333
     52 H533       -1.9040    3.2720    6.1490 hc        1 LIC      0.088333
     53 HO52        1.1990    3.7860    4.6590 ho        1 LIC      0.202000
     54 H511       -0.4130    1.8020    7.8030 hc        1 LIC      0.088333
     55 H512        0.4180    3.4140    7.9420 hc        1 LIC      0.088333
     56 H513        1.3890    1.9380    7.5530 hc        1 LIC      0.088333
     57 O30        -5.0490   -0.8400   -4.0430 os        1 LIC     -0.024000
     58 N5          0.9980    0.5720   -1.9110 n         1 LIC     -0.412000
     59 H13         7.1120   -2.9340   -1.0260 ha        1 LIC      0.140000
     60 CL16        4.6560    1.7780   -4.3570 cl        1 LIC     -0.035000
     61 HN5         0.3890    1.0580   -2.5190 hn        1 LIC      0.249500
@<TRIPOS>BOND
     1    1   12 1   
     2    1   14 1   
     3    1   18 1   
     4    2   11 1   
     5    2   32 1   
     6    3   10 1   
     7    3   37 1   
     8    3   59 1   
     9    4    8 1   
    10    4    9 1   
    11    4   33 1   
    12    5    7 1   
    13    5   15 1   
    14    5   38 1   
    15    5   57 1   
    16    6   14 1   
    17    6   15 1   
    18    6   34 1   
    19    7   17 1   
    20    7   42 1   
    21    8   11 1   
    22    8   60 1   
    23    9   10 1   
    24    9   36 1   
    25   12   13 1   
    26   12   58 1   
    27   14   17 1   
    28   16   41 1   
    29   16   57 1   
    30   17   35 1   
    31   18   19 1   
    32   18   23 1   
    33   19   20 1   
    34   19   43 1   
    35   20   21 1   
    36   20   44 1   
    37   21   22 1   
    38   22   23 1   
    39   22   24 1   
    40   24   25 1   
    41   24   45 1   
    42   25   26 1   
    43   25   27 1   
    44   25   46 1   
    45   26   47 1   
    46   26   48 1   
    47   26   49 1   
    48   27   28 1   
    49   27   29 1   
    50   27   30 1   
    51   28   50 1   
    52   28   51 1   
    53   28   52 1   
    54   29   53 1   
    55   30   54 1   
    56   30   55 1   
    57   30   56 1   
    58   31   58 1   
    59   39   40 1   
    60   58   61 1   
@<TRIPOS>SUBSTRUCTURE
     1 LIC         1 TEMP              0 ****  ****    0 ROOT
