@<TRIPOS>MOLECULE
LIC
   62    59     1     0     0
SMALL
bcc


@<TRIPOS>ATOM
      1 N1         -0.0570    1.2200   -0.2680 n         1 LIC     -0.177000
      2 C7          4.7910    1.8450   -2.4120 c1        1 LIC     -0.170000
      3 C13         7.6480    0.8310   -4.4470 c2        1 LIC     -0.165000
      4 C15         4.2450   -0.3810   -5.1810 c2        1 LIC      0.012000
      5 C21        -2.0210   -1.2430   -3.4760 c2        1 LIC     -0.058000
      6 C22        -0.7160   -1.1110   -0.8170 c2        1 LIC     -0.443000
      7 C24        -2.1350    0.0690   -3.2130 c2        1 LIC     -0.241000
      8 C12         3.6590    0.3350   -4.1970 c2        1 LIC     -0.066000
      9 C11         5.6520   -0.5050   -5.4550 c2        1 LIC     -0.144000
     10 C14         6.6300    0.1830   -4.9160 c1        1 LIC     -0.084000
     11 C9          4.2660    1.1410   -3.2300 c1        1 LIC     -0.160000
     12 C1          1.3320    1.2900   -0.1760 c2        1 LIC      0.347000
     13 O4          1.9950    2.0910    0.4830 o         1 LIC     -0.213000
     14 C2         -0.7080    0.3140   -1.1710 c2        1 LIC     -0.044000
     15 C25         0.3620   -1.8540   -0.7260 c1        1 LIC      0.180000
     16 C31        -3.7520   -1.4780   -5.1300 c1        1 LIC      0.038000
     17 C23        -1.3800    0.8140   -2.2420 c2        1 LIC      0.000000
     18 C3         -0.7810    1.5180    0.9570 c2        1 LIC      0.145000
     19 C35        -1.8940    2.3790    0.8940 c2        1 LIC     -0.269000
     20 C37        -2.5460    2.6190    2.1280 c2        1 LIC      0.025000
     21 N39        -2.1630    2.0960    3.2910 n2        1 LIC     -0.192000
     22 C41        -1.0320    1.2670    3.2670 c2        1 LIC      0.202000
     23 N42        -0.3380    0.9390    2.1030 n2        1 LIC     -0.278000
     24 N36        -0.5160    0.7840    4.4580 nh        1 LIC     -0.262000
     25 C43        -1.2780    0.8010    5.6940 c3        1 LIC      0.060000
     26 C45        -2.4130   -0.2210    5.7440 c3        1 LIC     -0.252000
     27 C47        -0.3380    0.5390    6.9270 c3        1 LIC     -0.023000
     28 C53         0.6130    1.7100    7.1480 c3        1 LIC     -0.228000
     29 O52         0.3880   -0.6630    6.6380 oh        1 LIC     -0.361000
     30 C51        -1.2540    0.4180    8.0850 c1        1 LIC     -0.034000
     31 H71         3.1510    0.7330   -1.0300 hn        1 LIC      0.270667
     32 H72         5.2750    2.4860   -1.7130 ha        1 LIC      0.249000
     33 H22        -1.7250   -1.5370   -0.6130 ha        1 LIC      0.231000
     34 H24        -1.3870    1.9120   -2.4120 ha        1 LIC      0.163000
     35 H11         5.9060   -1.2620   -6.2260 ha        1 LIC      0.165000
     36 H14         8.0150    1.7620   -4.9090 ha        1 LIC      0.158000
     37 H25        -1.3230   -1.9550   -3.0080 h4        1 LIC      0.174000
     38 H311       -5.5090   -2.0150   -3.6420 ha        1 LIC      0.009750
     39 H312       -5.6030   -2.5140   -4.0930 ha        1 LIC      0.009750
     40 H313       -4.1320   -0.4440   -4.9950 ha        1 LIC      0.040000
     41 H23        -2.8570    0.6850   -3.7860 ha        1 LIC      0.158000
     42 H35        -2.2420    2.8440   -0.0340 ha        1 LIC      0.168000
     43 H37        -3.4360    3.2790    2.1680 h4        1 LIC      0.188000
     44 HN36        0.1900    0.0760    4.4030 hn        1 LIC      0.254000
     45 H43        -1.7060    1.8380    5.8410 h1        1 LIC      0.147000
     46 H451       -3.1070   -0.0910    4.8790 hc        1 LIC      0.100333
     47 H452       -2.0110   -1.2620    5.7370 hc        1 LIC      0.100333
     48 H453       -3.0020   -0.0630    6.6850 hc        1 LIC      0.100333
     49 H531        0.0310    2.6410    7.3510 hc        1 LIC      0.099000
     50 H532        1.2810    1.5040    8.0190 hc        1 LIC      0.099000
     51 H533        1.2490    1.8630    6.2430 hc        1 LIC      0.099000
     52 HO52        1.1370   -0.7050    7.2440 ho        1 LIC      0.212000
     53 H511       -0.0620    1.2400    9.8440 ha        1 LIC      0.009750
     54 H512       -0.5330    1.7210    9.7330 ha        1 LIC      0.009750
     55 H513       -1.1560   -0.5130    8.6650 ha        1 LIC      0.057000
     56 N5          2.1820    0.3810   -1.0540 n4        1 LIC     -0.166000
     57 H13         8.2110    0.4890   -3.5640 ha        1 LIC      0.158000
     58 CL16        1.9250    0.3240   -4.0950 cl        1 LIC     -0.057000
     59 HN5         1.8640    0.3730   -2.0510 hn        1 LIC      0.270667
     60 H52         2.1660   -0.5780   -0.6810 hn        1 LIC      0.270667
     61 O30        -2.7610   -1.9290   -4.4570 os        1 LIC     -0.051000
     62 H15         3.5970   -0.9580   -5.8740 ha        1 LIC      0.161000
@<TRIPOS>BOND
     1    1   12 1   
     2    1   14 1   
     3    1   18 1   
     4    2   11 1   
     5    2   32 1   
     6    3   10 1   
     7    3   36 1   
     8    3   57 1   
     9    4    8 1   
    10    4    9 1   
    11    4   62 1   
    12    5    7 1   
    13    5   37 1   
    14    5   61 1   
    15    6   14 1   
    16    6   15 1   
    17    6   33 1   
    18    7   17 1   
    19    7   41 1   
    20    8   11 1   
    21    8   58 1   
    22    9   10 1   
    23    9   35 1   
    24   12   13 1   
    25   12   56 1   
    26   14   17 1   
    27   16   40 1   
    28   16   61 1   
    29   17   34 1   
    30   18   19 1   
    31   18   23 1   
    32   19   20 1   
    33   19   42 1   
    34   20   21 1   
    35   20   43 1   
    36   21   22 1   
    37   22   23 1   
    38   22   24 1   
    39   24   25 1   
    40   24   44 1   
    41   25   26 1   
    42   25   27 1   
    43   25   45 1   
    44   26   46 1   
    45   26   47 1   
    46   26   48 1   
    47   27   28 1   
    48   27   29 1   
    49   27   30 1   
    50   28   49 1   
    51   28   50 1   
    52   28   51 1   
    53   29   52 1   
    54   30   55 1   
    55   31   56 1   
    56   38   39 1   
    57   53   54 1   
    58   56   59 1   
    59   56   60 1   
@<TRIPOS>SUBSTRUCTURE
     1 LIC         1 TEMP              0 ****  ****    0 ROOT
