@<TRIPOS>MOLECULE
LID
   43    46     1     0     0
SMALL
bcc


@<TRIPOS>ATOM
      1 C5          2.3870   -0.3660    0.4360 ca        1 LID      0.857900
      2 C8         -2.0590   -0.3060   -0.1360 cc        1 LID      0.596700
      3 C10        -1.3980   -2.7600    0.2830 c3        1 LID      0.042300
      4 N12        -3.4270   -0.5990   -0.3410 nh        1 LID     -0.642600
      5 C13        -4.3530    0.4760   -0.3590 ca        1 LID      0.122600
      6 C15         4.8250   -0.1360    0.4500 ca        1 LID      0.047600
      7 C17         6.8970    0.0770   -0.8700 ca        1 LID     -0.176000
      8 C20         5.1880    1.0590    1.1320 ca        1 LID      0.152900
      9 C21        -4.2500    1.4930   -1.3320 ca        1 LID     -0.095000
     10 C22        -5.2110    2.4950   -1.4080 ca        1 LID     -0.117000
     11 C24        -6.4200    1.5160    0.4340 ca        1 LID     -0.109000
     12 C16         5.7130   -0.6100   -0.5590 ca        1 LID      0.152900
     13 C18         7.2100    1.2530   -0.1960 ca        1 LID     -0.085000
     14 C19         6.3700    1.7450    0.7940 ca        1 LID     -0.176000
     15 F27         4.4150    1.5550    2.1220 f         1 LID     -0.126400
     16 N14         3.6670   -0.8630    0.8130 nh        1 LID     -0.681300
     17 N6          2.2730    0.9890    0.1200 nb        1 LID     -0.729000
     18 N4          1.3540   -1.2870    0.4820 nb        1 LID     -0.732000
     19 C3          0.1350   -0.7460    0.2320 ca        1 LID      0.456800
     20 N7         -1.1360   -1.3490    0.2540 na        1 LID     -0.277000
     21 C11        -1.6000   -3.4210   -1.0720 c3        1 LID     -0.125100
     22 C2         -0.0910    0.6620   -0.0920 ca        1 LID     -0.169200
     23 C1          1.0570    1.4780   -0.1290 ca        1 LID      0.509200
     24 N9         -1.4530    0.9030   -0.3090 nd        1 LID     -0.566100
     25 C23        -6.2950    2.5110   -0.5310 ca        1 LID     -0.129000
     26 C25        -5.4560    0.5100    0.5280 ca        1 LID     -0.019600
     27 CL26       -5.6420   -0.6860    1.7300 cl        1 LID     -0.102400
     28 H101       -2.3200   -2.9230    0.9150 h1        1 LID      0.067700
     29 H102       -0.5300   -3.2550    0.8090 h1        1 LID      0.067700
     30 H12        -3.7430   -1.3800    0.2070 hn        1 LID      0.422800
     31 H17         7.5600   -0.3220   -1.6510 ha        1 LID      0.154500
     32 H21        -3.4020    1.4990   -2.0360 ha        1 LID      0.163000
     33 H22        -5.1100    3.2830   -2.1710 ha        1 LID      0.141000
     34 H24        -7.2740    1.5230    1.1290 ha        1 LID      0.149000
     35 H18         8.1330    1.7970   -0.4510 ha        1 LID      0.145000
     36 H19         6.6170    2.6720    1.3320 ha        1 LID      0.154500
     37 H14         3.7700   -1.8530    0.6830 hn        1 LID      0.436800
     38 H111       -0.6860   -3.3240   -1.7060 hc        1 LID      0.052700
     39 H112       -1.8060   -4.5060   -0.9080 hc        1 LID      0.052700
     40 H113       -2.4620   -2.9720   -1.6210 hc        1 LID      0.052700
     41 H1          0.9970    2.5550   -0.3680 h4        1 LID      0.043100
     42 H23        -7.0510    3.3070   -0.5980 ha        1 LID      0.140000
     43 F28         5.4220   -1.7560   -1.2220 f         1 LID     -0.126400
@<TRIPOS>BOND
     1    1   16 1   
     2    1   17 ar  
     3    1   18 ar  
     4    2    4 1   
     5    2   20 1   
     6    2   24 2   
     7    3   20 1   
     8    3   21 1   
     9    3   28 1   
    10    3   29 1   
    11    4    5 1   
    12    4   30 1   
    13    5    9 ar  
    14    5   26 ar  
    15    6    8 ar  
    16    6   12 ar  
    17    6   16 1   
    18    7   12 ar  
    19    7   13 ar  
    20    7   31 1   
    21    8   14 ar  
    22    8   15 1   
    23    9   10 ar  
    24    9   32 1   
    25   10   25 ar  
    26   10   33 1   
    27   11   25 ar  
    28   11   26 ar  
    29   11   34 1   
    30   12   43 1   
    31   13   14 ar  
    32   13   35 1   
    33   14   36 1   
    34   16   37 1   
    35   17   23 ar  
    36   18   19 ar  
    37   19   20 1   
    38   19   22 ar  
    39   21   38 1   
    40   21   39 1   
    41   21   40 1   
    42   22   23 ar  
    43   22   24 1   
    44   23   41 1   
    45   25   42 1   
    46   26   27 1   
@<TRIPOS>SUBSTRUCTURE
     1 LID         1 TEMP              0 ****  ****    0 ROOT
