@<TRIPOS>MOLECULE
LID
   43    44     1     0     0
SMALL
bcc


@<TRIPOS>ATOM
      1 C5          0.2290    0.5000   -0.1510 c2        1 LID      0.248000
      2 C8          0.8470    0.1170    4.2080 c2        1 LID      0.121000
      3 C10        -1.6940   -0.0150    3.7550 c3        1 LID     -0.104000
      4 N12         0.6660   -0.2290    5.5740 n7        1 LID     -0.200000
      5 C13         1.8380   -0.4400    6.3510 c2        1 LID      0.027000
      6 C15         0.1180    0.1820   -2.5780 c2        1 LID      0.006000
      7 C17         0.6200    0.5950   -5.0670 c1        1 LID     -0.028000
      8 C20         0.4580   -1.1500   -2.7610 c2        1 LID      0.014000
      9 C21         2.7460    0.5450    6.5730 c2        1 LID     -0.163000
     10 C22         3.9460    0.3760    7.4260 c3        1 LID     -0.241000
     11 C24         2.8660   -1.8510    8.0400 c1        1 LID      0.236000
     12 C16         0.2860    1.1670   -3.7450 c3        1 LID      0.025000
     13 C18         1.0520   -0.7840   -5.1560 c3        1 LID     -0.297000
     14 C19         0.8360   -1.6880   -4.0380 c1        1 LID     -0.045000
     15 F27         0.3780   -2.0350   -1.7380 f         1 LID     -0.067000
     16 N14        -0.3600    0.7290   -1.3850 n7        1 LID     -0.236000
     17 N6          1.5990    0.0820   -0.0960 n2        1 LID     -0.261000
     18 N4         -0.5480    0.7660    0.9740 n2        1 LID     -0.310000
     19 C3          0.1270    0.7190    2.1350 c2        1 LID      0.115000
     20 N7         -0.3360    0.2920    3.3700 n3        1 LID     -0.252000
     21 C11        -2.3400    0.7210    4.8200 c1        1 LID     -0.061000
     22 C2          1.6650    0.8640    2.2510 c3        1 LID     -0.105000
     23 C1          2.2750    0.2630    0.9800 c1        1 LID     -0.045000
     24 N9          1.9970    0.3870    3.5810 n2        1 LID     -0.146000
     25 C23         3.8090    0.2220    8.8620 c1        1 LID     -0.037000
     26 C25         2.0070   -1.7450    7.0210 c2        1 LID     -0.360000
     27 Cl26        1.1320   -3.0970    6.4830 cl        1 LID      0.041000
     28 H101       -2.3590    0.0840    2.8360 h1        1 LID      0.170500
     29 H102       -1.7460   -1.1120    4.0620 h1        1 LID      0.170500
     30 H12        -0.0140   -0.9610    5.6900 hn        1 LID      0.214000
     31 H17         1.2340    1.7690   -3.4990 h1        1 LID      0.165000
     32 H21         2.6380    1.5280    6.0860 ha        1 LID      0.157000
     33 H22         4.6270    1.2740    7.2900 hc        1 LID      0.174500
     34 H24         2.8000    0.1440    9.2980 ha        1 LID      0.059000
     35 H18         2.1580   -0.8050   -5.4250 hc        1 LID      0.209000
     36 H19         0.5520   -1.2380   -6.0740 hc        1 LID      0.209000
     37 H14        -1.1670    1.3170   -1.4510 hn        1 LID      0.268000
     38 H111       -3.1540    2.4780    3.6250 ha        1 LID      0.012000
     39 H112       -3.7280    2.1750    3.8340 ha        1 LID      0.012000
     40 H113       -1.8060    1.5060    5.3680 ha        1 LID      0.081000
     41 H1          1.9930    1.9470    2.1760 h1        1 LID      0.183000
     42 H23         4.5720   -0.5040    7.0610 hc        1 LID      0.174500
     43 F28        -0.7750    2.0600   -3.8160 f         1 LID     -0.133000
@<TRIPOS>BOND
     1    1   16 1   
     2    1   17 1   
     3    1   18 1   
     4    2    4 1   
     5    2   20 1   
     6    2   24 1   
     7    3   20 1   
     8    3   21 1   
     9    3   28 1   
    10    3   29 1   
    11    4    5 1   
    12    4   30 1   
    13    5    9 1   
    14    5   26 1   
    15    6    8 1   
    16    6   12 1   
    17    6   16 1   
    18    7   12 1   
    19    7   13 1   
    20    8   14 1   
    21    8   15 1   
    22    9   10 1   
    23    9   32 1   
    24   10   25 1   
    25   10   33 1   
    26   10   42 1   
    27   11   26 1   
    28   12   31 1   
    29   12   43 1   
    30   13   14 1   
    31   13   35 1   
    32   13   36 1   
    33   16   37 1   
    34   17   23 1   
    35   18   19 1   
    36   19   20 1   
    37   19   22 1   
    38   21   40 1   
    39   22   23 1   
    40   22   24 1   
    41   22   41 1   
    42   25   34 1   
    43   26   27 1   
    44   38   39 1   
@<TRIPOS>SUBSTRUCTURE
     1 LID         1 TEMP              0 ****  ****    0 ROOT
