@<TRIPOS>MOLECULE
LID
   45    48     1     0     0
SMALL
bcc


@<TRIPOS>ATOM
      1 C5          0.3890   -0.7430    0.0520 c2        1 LID      0.117000
      2 C8          0.8090    0.8480    4.0880 c2        1 LID      0.005000
      3 C10        -1.6820    0.3040    3.6880 c3        1 LID     -0.055000
      4 N12         0.6890    0.9880    5.5540 n4        1 LID      0.092000
      5 C13         1.6120    0.1180    6.2910 c2        1 LID     -0.167000
      6 C15         0.2500   -0.5450   -2.4000 c2        1 LID     -0.429000
      7 C17        -0.2950    1.1980   -4.1950 c1        1 LID      0.093000
      8 C20         1.3920   -0.8890   -3.1380 c2        1 LID      0.172000
      9 C21         2.9580    0.3360    6.3820 c2        1 LID     -0.001000
     10 C22         3.8430   -0.4890    7.2790 c3        1 LID     -0.143000
     11 C24         1.8300   -1.4440    7.9570 c1        1 LID     -0.064000
     12 C16        -0.5800    0.6590   -2.8360 c3        1 LID      0.062000
     13 C18         0.7430    0.6290   -5.0460 c3        1 LID     -0.273000
     14 C19         1.2950   -0.5820   -4.5090 c1        1 LID      0.073000
     15 F27         2.3700   -1.6580   -2.6450 f         1 LID     -0.019000
     16 N14        -0.1710   -1.2860   -1.2300 n4        1 LID      0.095000
     17 N6          1.7690   -0.9730    0.3010 n2        1 LID     -0.221000
     18 N4         -0.4230    0.0020    0.8380 n2        1 LID     -0.191000
     19 C3          0.1740    0.5120    1.9540 c2        1 LID      0.086000
     20 N7         -0.3170    0.5230    3.2560 n3        1 LID     -0.159000
     21 C11        -2.4150    1.5520    4.1480 c3        1 LID     -0.248000
     22 C2          1.6850    0.8310    2.0330 c3        1 LID     -0.102000
     23 C1          2.3840   -0.2360    1.1410 c1        1 LID      0.106000
     24 N9          1.9680    0.9960    3.4350 n2        1 LID     -0.048000
     25 C23         3.0300   -1.1020    8.3920 c2        1 LID     -0.048000
     26 C25         1.0700   -1.1150    6.9180 c2        1 LID     -0.096000
     27 CL26       -0.1410   -2.0010    6.1830 cl        1 LID      0.062000
     28 H101       -2.2460   -0.1490    2.8190 h1        1 LID      0.142500
     29 H102       -1.6610   -0.4650    4.5180 h1        1 LID      0.142500
     30 H12         0.8850    1.9760    5.7900 hn        1 LID      0.285500
     31 H17        -0.2950    1.5350   -2.1530 h1        1 LID      0.159000
     32 H21         3.4770    1.1290    5.8140 ha        1 LID      0.182000
     33 H22         4.6150    0.1860    7.7480 hc        1 LID      0.172000
     34 H24         3.4190   -1.1430    9.4170 ha        1 LID      0.209000
     35 H18         1.5310    1.4250   -5.2660 hc        1 LID      0.252000
     36 H19         0.2760    0.4470   -6.0770 hc        1 LID      0.252000
     37 H14         0.1590   -2.2640   -1.3070 hn        1 LID      0.290500
     38 H111       -2.4860    2.3140    3.3340 hc        1 LID      0.112333
     39 H112       -1.9310    2.0240    5.0370 hc        1 LID      0.112333
     40 H113       -3.4570    1.2530    4.4340 hc        1 LID      0.112333
     41 H1          2.0090    1.7770    1.4860 h1        1 LID      0.246000
     42 H23         4.3990   -1.2450    6.6540 hc        1 LID      0.172000
     43 F28        -1.9350    0.4150   -2.6570 f         1 LID     -0.116000
     44 H122       -0.2760    0.7540    5.8510 hn        1 LID      0.285500
     45 H142       -1.2070   -1.2700   -1.1940 hn        1 LID      0.290500
@<TRIPOS>BOND
     1    1   16 1   
     2    1   17 1   
     3    1   18 1   
     4    2    4 1   
     5    2   20 1   
     6    2   24 1   
     7    3   20 1   
     8    3   21 1   
     9    3   28 1   
    10    3   29 1   
    11    4    5 1   
    12    4   30 1   
    13    4   44 1   
    14    5    9 1   
    15    5   26 1   
    16    6    8 1   
    17    6   12 1   
    18    6   16 1   
    19    7   12 1   
    20    7   13 1   
    21    8   14 1   
    22    8   15 1   
    23    9   10 1   
    24    9   32 1   
    25   10   25 1   
    26   10   33 1   
    27   10   42 1   
    28   11   25 1   
    29   11   26 1   
    30   12   31 1   
    31   12   43 1   
    32   13   14 1   
    33   13   35 1   
    34   13   36 1   
    35   16   37 1   
    36   16   45 1   
    37   17   23 1   
    38   18   19 1   
    39   19   20 1   
    40   19   22 1   
    41   21   38 1   
    42   21   39 1   
    43   21   40 1   
    44   22   23 1   
    45   22   24 1   
    46   22   41 1   
    47   25   34 1   
    48   26   27 1   
@<TRIPOS>SUBSTRUCTURE
     1 LID         1 TEMP              0 ****  ****    0 ROOT
