@<TRIPOS>MOLECULE
LID
   43    44     1     0     0
SMALL
bcc


@<TRIPOS>ATOM
      1 C5          0.2270    0.4820   -0.1530 c2        1 LID      0.248000
      2 C8          0.8430    0.1290    4.2090 c2        1 LID      0.121000
      3 C10        -1.6940   -0.0590    3.7500 c3        1 LID     -0.104000
      4 N12         0.6660   -0.2150    5.5770 n3        1 LID     -0.200000
      5 C13         1.8410   -0.4010    6.3560 c2        1 LID      0.027000
      6 C15         0.1300    0.1520   -2.5780 c2        1 LID      0.006000
      7 C17         0.6280    0.5640   -5.0680 c1        1 LID     -0.028000
      8 C20         0.4980   -1.1740   -2.7550 c2        1 LID      0.014000
      9 C21         2.7290    0.6010    6.5760 c2        1 LID     -0.162000
     10 C22         3.9310    0.4570    7.4320 c3        1 LID     -0.241000
     11 C24         2.8940   -1.7880    8.0500 c1        1 LID      0.236000
     12 C16         0.2790    1.1340   -3.7490 c3        1 LID      0.025000
     13 C18         1.0900   -0.8060   -5.1500 c3        1 LID     -0.297000
     14 C19         0.8900   -1.7090   -4.0280 c1        1 LID     -0.045000
     15 F27         0.4330   -2.0550   -1.7280 f         1 LID     -0.067000
     16 N14        -0.3630    0.6930   -1.3890 n3        1 LID     -0.236000
     17 N6          1.6070    0.0940   -0.0930 n2        1 LID     -0.260000
     18 N4         -0.5580    0.7360    0.9690 n2        1 LID     -0.310000
     19 C3          0.1150    0.7080    2.1320 c2        1 LID      0.115000
     20 N7         -0.3410    0.2760    3.3680 n3        1 LID     -0.252000
     21 C11        -2.3580    0.6670    4.8110 c1        1 LID     -0.062000
     22 C2          1.6500    0.8860    2.2510 c3        1 LID     -0.105000
     23 C1          2.2750    0.2930    0.9840 c1        1 LID     -0.045000
     24 N9          1.9880    0.4210    3.5840 n2        1 LID     -0.146000
     25 C23         3.7950    0.3050    8.8670 c1        1 LID     -0.037000
     26 C25         2.0340   -1.7010    7.0290 c2        1 LID     -0.360000
     27 CL26        1.1830   -3.0710    6.4950 cl        1 LID      0.041000
     28 H101       -2.3580    0.0230    2.8300 h1        1 LID      0.170500
     29 H102       -1.7230   -1.1550    4.0610 h1        1 LID      0.170500
     30 H12        -0.0000   -0.9590    5.6940 hn        1 LID      0.214000
     31 H17         1.2130    1.7580   -3.5040 h1        1 LID      0.165000
     32 H21         2.6030    1.5810    6.0870 ha        1 LID      0.157000
     33 H22         4.5950    1.3690    7.2940 hc        1 LID      0.174500
     34 H24         2.7870    0.2090    9.3020 ha        1 LID      0.059000
     35 H18         2.1970   -0.8040   -5.4160 hc        1 LID      0.209000
     36 H19         0.6020   -1.2740   -6.0670 hc        1 LID      0.209000
     37 H14        -1.1830    1.2640   -1.4590 hn        1 LID      0.268000
     38 H111       -3.2060    2.4010    3.6080 ha        1 LID      0.012000
     39 H112       -3.7730    2.0880    3.8170 ha        1 LID      0.012000
     40 H113       -1.8420    1.4650    5.3580 ha        1 LID      0.081000
     41 H1          1.9550    1.9760    2.1730 h1        1 LID      0.183000
     42 H23         4.5740   -0.4110    7.0690 hc        1 LID      0.174500
     43 F28        -0.8000    2.0050   -3.8260 f         1 LID     -0.133000
@<TRIPOS>BOND
     1    1   16 1   
     2    1   17 1   
     3    1   18 1   
     4    2    4 1   
     5    2   20 1   
     6    2   24 1   
     7    3   20 1   
     8    3   21 1   
     9    3   28 1   
    10    3   29 1   
    11    4    5 1   
    12    4   30 1   
    13    5    9 1   
    14    5   26 1   
    15    6    8 1   
    16    6   12 1   
    17    6   16 1   
    18    7   12 1   
    19    7   13 1   
    20    8   14 1   
    21    8   15 1   
    22    9   10 1   
    23    9   32 1   
    24   10   25 1   
    25   10   33 1   
    26   10   42 1   
    27   11   26 1   
    28   12   31 1   
    29   12   43 1   
    30   13   14 1   
    31   13   35 1   
    32   13   36 1   
    33   16   37 1   
    34   17   23 1   
    35   18   19 1   
    36   19   20 1   
    37   19   22 1   
    38   21   40 1   
    39   22   23 1   
    40   22   24 1   
    41   22   41 1   
    42   25   34 1   
    43   26   27 1   
    44   38   39 1   
@<TRIPOS>SUBSTRUCTURE
     1 LID         1 TEMP              0 ****  ****    0 ROOT
