@<TRIPOS>MOLECULE
LIE
   46    49     1     0     0
SMALL
bcc


@<TRIPOS>ATOM
      1 C5         -0.0270   -0.3100    0.9010 c2        1 LIE      0.284000
      2 C6          2.1030   -0.8600    1.5640 c2        1 LIE      0.182000
      3 C7          4.4550   -0.2920    0.8400 c3        1 LIE      0.029000
      4 C10         3.7760   -1.9580    2.7920 c3        1 LIE      0.148000
      5 N12         4.6840   -1.4830    3.7860 n3        1 LIE     -0.251000
      6 C13        -2.1520    0.3440    0.1090 c2        1 LIE     -0.379000
      7 C15        -2.8130    1.6500    0.3260 c3        1 LIE      0.134000
      8 C17        -3.4900   -0.1480   -1.8120 c1        1 LIE      0.131000
      9 C26         4.3920   -0.6970   -0.6340 c3        1 LIE     -0.237500
     10 C36         5.3910    0.2360    5.5370 c3        1 LIE      0.112000
     11 C39         5.0040    1.7180    5.5480 c2        1 LIE     -0.173000
     12 C35         3.7240    2.1320    5.4960 c2        1 LIE     -0.139000
     13 C38         2.6750    1.0920    5.5130 c2        1 LIE     -0.009000
     14 C37         3.0960   -0.0480    4.9830 c1        1 LIE     -0.305000
     15 C34         4.3290   -0.5000    4.6910 c2        1 LIE      0.040000
     16 N11         2.4350   -2.4110    3.3260 n2        1 LIE      0.047000
     17 C3          1.5200   -1.8060    2.6270 c2        1 LIE     -0.132000
     18 C1          0.0490   -1.8630    2.6550 c2        1 LIE      0.096000
     19 N8          3.4410   -0.9600    1.6460 nh        1 LIE     -0.207000
     20 C25         4.4010    1.2310    0.9480 c3        1 LIE     -0.237500
     21 N2          1.3130   -0.1290    0.7200 n2        1 LIE     -0.222000
     22 N4         -0.6840   -1.1630    1.8470 n2        1 LIE     -0.150000
     23 O9         -0.7610    0.4260    0.0210 os        1 LIE     -0.023000
     24 F19        -1.9770    2.6230    0.8250 f         1 LIE     -0.125000
     25 C18        -3.4730    2.1680   -1.0420 c2        1 LIE      0.152000
     26 C14        -3.7600    1.1130   -1.7750 c1        1 LIE     -0.315000
     27 C16        -2.8130   -0.7850   -0.5550 c3        1 LIE      0.221000
     28 F20        -2.0020   -1.8470   -0.8510 f         1 LIE     -0.112000
     29 H7          5.4470   -0.6450    1.2600 h1        1 LIE      0.109000
     30 HN12        5.6570   -1.5630    3.5660 hn        1 LIE      0.261000
     31 H17        -3.7300   -1.1460    0.0130 h1        1 LIE      0.167000
     32 H261        3.4500   -0.3370   -1.1120 hc        1 LIE      0.106833
     33 H262        5.2590   -0.2250   -1.1600 hc        1 LIE      0.106833
     34 H263        4.4640   -1.8040   -0.7570 hc        1 LIE      0.106833
     35 H39         5.3550   -0.1420    6.6040 h1        1 LIE      0.147000
     36 H35         5.8550    2.4060    5.6550 ha        1 LIE      0.169000
     37 H38         3.4300    3.1890    5.5320 ha        1 LIE      0.163000
     38 H37         1.7190    1.2780    6.0140 ha        1 LIE      0.171000
     39 H1         -0.4520   -2.5210    3.3980 h4        1 LIE      0.223000
     40 H251        4.4620    1.5670    2.0100 hc        1 LIE      0.106833
     41 H252        3.4650    1.6350    0.4910 hc        1 LIE      0.106833
     42 H253        5.2760    1.6490    0.3920 hc        1 LIE      0.106833
     43 H18        -3.7050    1.5320    1.0150 h1        1 LIE      0.149000
     44 H14        -3.5870    3.2470   -1.1980 ha        1 LIE      0.200000
     45 H122        4.2460   -2.8600    2.2730 h3        1 LIE      0.188000
     46 F40         6.6720    0.0490    5.0510 f         1 LIE     -0.148000
@<TRIPOS>BOND
     1    1   21 1   
     2    1   22 1   
     3    1   23 1   
     4    2   17 1   
     5    2   19 1   
     6    2   21 1   
     7    3    9 1   
     8    3   19 1   
     9    3   20 1   
    10    3   29 1   
    11    4    5 1   
    12    4   16 1   
    13    4   19 1   
    14    4   45 1   
    15    5   15 1   
    16    5   30 1   
    17    6    7 1   
    18    6   23 1   
    19    6   27 1   
    20    7   24 1   
    21    7   25 1   
    22    7   43 1   
    23    8   26 1   
    24    8   27 1   
    25    9   32 1   
    26    9   33 1   
    27    9   34 1   
    28   10   11 1   
    29   10   15 1   
    30   10   35 1   
    31   10   46 1   
    32   11   12 1   
    33   11   36 1   
    34   12   13 1   
    35   12   37 1   
    36   13   14 1   
    37   13   38 1   
    38   14   15 1   
    39   16   17 1   
    40   17   18 1   
    41   18   22 1   
    42   18   39 1   
    43   20   40 1   
    44   20   41 1   
    45   20   42 1   
    46   25   26 1   
    47   25   44 1   
    48   27   28 1   
    49   27   31 1   
@<TRIPOS>SUBSTRUCTURE
     1 LIE         1 TEMP              0 ****  ****    0 ROOT
