@<TRIPOS>MOLECULE
LIE
   45    38     1     0     0
SMALL
bcc


@<TRIPOS>ATOM
      1 C5         -2.1230   -0.1700   -1.5980 c1        1 LIE      0.146000
      2 C6         -0.0830   -0.1500   -0.4060 c1        1 LIE      0.055000
      3 C7          2.0440   -0.2010   -1.2860 c3        1 LIE      0.028000
      4 C10         1.3800   -0.0610    1.2280 c1        1 LIE      0.126000
      5 N12         2.3480   -0.4840    2.1780 n2        1 LIE     -0.192000
      6 C13        -3.6740   -0.2210   -3.2940 c1        1 LIE     -0.021000
      7 C15        -4.9620   -0.6830   -3.0690 c1        1 LIE      0.134000
      8 C17        -4.5330    1.4380   -4.8030 c1        1 LIE     -0.117500
      9 C26         2.9640    1.0020   -1.2900 c3        1 LIE     -0.233000
     10 F40         1.4060   -2.0310    3.7740 f         1 LIE     -0.115000
     11 C36         2.1170   -1.0090    4.2650 c2        1 LIE      0.049000
     12 C39         2.5650   -1.0440    5.5760 c2        1 LIE     -0.149000
     13 C35         3.2730    0.0300    6.0960 c1        1 LIE     -0.111000
     14 C38         3.5310    1.1380    5.3040 c1        1 LIE     -0.117500
     15 C37         3.0830    1.1730    3.9930 c1        1 LIE     -0.117500
     16 C34         2.3750    0.0990    3.4740 c1        1 LIE     -0.007000
     17 N11         0.1440    0.0470    1.7650 n2        1 LIE     -0.140000
     18 C3         -0.7620   -0.0080    0.7510 c1        1 LIE     -0.171000
     19 C1         -2.1460    0.0550    0.7370 c1        1 LIE      0.044000
     20 N8          1.2460   -0.1830   -0.1120 n2        1 LIE     -0.195000
     21 C25         2.8700   -1.4660   -1.3150 c3        1 LIE     -0.233000
     22 N2         -0.7590   -0.2310   -1.5870 n1        1 LIE     -0.154000
     23 N4         -2.8110   -0.0260   -0.4290 n1        1 LIE     -0.211000
     24 O9         -2.5770   -0.8900   -2.7180 os        1 LIE     -0.103000
     25 F19        -5.1650   -1.7330   -2.2640 f         1 LIE     -0.084000
     26 C18        -6.0350   -0.0840   -3.7110 c1        1 LIE     -0.179000
     27 C14        -5.8210    0.9760   -4.5770 c1        1 LIE     -0.117500
     28 C16        -3.4600    0.8400   -4.1610 c1        1 LIE      0.129000
     29 F20        -2.2130    1.2590   -4.4100 f         1 LIE     -0.084000
     30 H7          1.4660   -0.1710   -2.0740 h1        1 LIE      0.139000
     31 HN12        2.9500   -1.1340    1.9580 hn        1 LIE      0.215000
     32 H17        -4.3820    2.1850   -5.4130 ha        1 LIE      0.153250
     33 H261        3.5140    0.9950   -0.4780 hc        1 LIE      0.090167
     34 H262        3.5460    0.9670   -2.0790 hc        1 LIE      0.090167
     35 H263        2.4290    1.8230   -1.3140 hc        1 LIE      0.090167
     36 H39         2.3830   -1.8240    6.1340 ha        1 LIE      0.151000
     37 H35         3.5890    0.0050    7.0200 ha        1 LIE      0.141000
     38 H38         4.0300    1.8930    5.6700 ha        1 LIE      0.153250
     39 H37         3.2650    1.9530    3.4360 ha        1 LIE      0.153250
     40 H1         -2.6390    0.1570    1.5730 ha        1 LIE      0.182000
     41 H251        2.9350   -1.8340   -0.4090 hc        1 LIE      0.090167
     42 H252        2.4420   -2.1220   -1.9040 hc        1 LIE      0.090167
     43 H253        3.7670   -1.2620   -1.6500 hc        1 LIE      0.090167
     44 H18        -6.9420   -0.4090   -3.5520 ha        1 LIE      0.156000
     45 H14        -6.5770    1.3980   -5.0290 ha        1 LIE      0.153250
@<TRIPOS>BOND
     1    1   23 1   
     2    1   24 1   
     3    2   22 1   
     4    3    9 1   
     5    3   20 1   
     6    3   21 1   
     7    3   30 1   
     8    4   17 1   
     9    4   20 1   
    10    5   16 1   
    11    5   31 1   
    12    6   24 1   
    13    6   28 1   
    14    7   25 1   
    15    7   26 1   
    16    8   27 1   
    17    8   32 1   
    18    9   33 1   
    19    9   34 1   
    20    9   35 1   
    21   10   11 1   
    22   11   12 1   
    23   11   16 1   
    24   12   13 1   
    25   12   36 1   
    26   13   37 1   
    27   14   15 1   
    28   14   38 1   
    29   15   39 1   
    30   17   18 1   
    31   18   19 1   
    32   19   40 1   
    33   21   41 1   
    34   21   42 1   
    35   21   43 1   
    36   26   44 1   
    37   27   45 1   
    38   28   29 1   
@<TRIPOS>SUBSTRUCTURE
     1 LIE         1 TEMP              0 ****  ****    0 ROOT
