@<TRIPOS>MOLECULE
LIE
   45    47     1     0     0
SMALL
bcc


@<TRIPOS>ATOM
      1 C5         -0.3690   -0.2030    0.6280 c2        1 LIE      0.146000
      2 C6          1.7360   -0.0620    1.4590 c2        1 LIE      0.060000
      3 C7          4.1250    0.2090    0.5720 c3        1 LIE      0.041000
      4 C10         3.3820   -0.1120    3.0140 c2        1 LIE      0.130000
      5 N12         4.6900   -0.1220    3.5360 nh        1 LIE     -0.202000
      6 C13        -2.5280   -0.2160   -0.3640 c2        1 LIE     -0.090000
      7 C15        -3.2430    1.0880   -0.6330 c3        1 LIE      0.102000
      8 C17        -5.1720    0.2470   -3.6190 c1        1 LIE      0.221000
      9 C26         4.7400   -1.1480    0.2180 c3        1 LIE     -0.230500
     10 C36         6.1830   -0.1170    5.5660 c3        1 LIE      0.136000
     11 C39         5.8320   -0.3140    7.0370 c2        1 LIE     -0.204000
     12 C35         4.7700    0.2450    7.6520 c2        1 LIE     -0.095000
     13 C38         4.0470    1.2940    6.9190 c2        1 LIE     -0.083000
     14 C37         4.1520    1.1300    5.6080 c1        1 LIE     -0.148000
     15 C34         4.9240    0.3860    4.8120 c2        1 LIE     -0.008000
     16 N11         2.2520   -0.3570    3.7380 n2        1 LIE     -0.107000
     17 C3          1.2130   -0.3300    2.8030 c2        1 LIE     -0.175000
     18 C1         -0.1810   -0.5110    2.9170 c2        1 LIE      0.047000
     19 N8          3.1180    0.1300    1.6100 na        1 LIE     -0.193000
     20 C25         3.6380    0.8790   -0.7130 c3        1 LIE     -0.230500
     21 N2          0.9530    0.0030    0.3440 n2        1 LIE     -0.154000
     22 N4         -0.9780   -0.4520    1.8440 n2        1 LIE     -0.215000
     23 O9         -1.1480   -0.1510   -0.5360 os        1 LIE     -0.115000
     24 F19        -2.6010    2.1560   -0.0250 f         1 LIE     -0.142000
     25 C18        -3.3200    1.2930   -2.1330 c2        1 LIE      0.161000
     26 C14        -4.2660    0.7550   -2.8720 c1        1 LIE     -0.576000
     27 C16        -3.1820   -1.3690   -0.0930 c2        1 LIE      0.059000
     28 F20        -2.5630   -2.5340    0.1480 f         1 LIE     -0.083000
     29 H7          4.9460    0.8700    0.9940 h1        1 LIE      0.088000
     30 HN12        5.4240    0.0590    2.8810 hn        1 LIE      0.230000
     31 H17        -4.2850   -1.4260   -0.0540 h4        1 LIE      0.163000
     32 H261        5.1810   -1.6410    1.1170 hc        1 LIE      0.094833
     33 H262        3.9720   -1.8290   -0.2220 hc        1 LIE      0.094833
     34 H263        5.5470   -0.9870   -0.5360 hc        1 LIE      0.094833
     35 H39         6.4190   -1.1450    5.1460 h1        1 LIE      0.124000
     36 H35         6.5390   -0.9640    7.5720 ha        1 LIE      0.146000
     37 H38         4.5050    0.0390    8.6970 ha        1 LIE      0.146000
     38 H37         3.6270    2.1540    7.4480 ha        1 LIE      0.166000
     39 H1         -0.6660   -0.7090    3.8900 h4        1 LIE      0.184000
     40 H251        3.0030    0.1850   -1.3140 hc        1 LIE      0.094833
     41 H252        4.5350    1.1550   -1.3190 hc        1 LIE      0.094833
     42 H253        3.0540    1.8050   -0.4960 hc        1 LIE      0.094833
     43 H18        -4.2900    1.0240   -0.2060 h1        1 LIE      0.130000
     44 H14        -2.5200    1.9300   -2.5570 ha        1 LIE      0.154000
     45 F40         7.2990    0.6780    5.3970 f         1 LIE     -0.154000
@<TRIPOS>BOND
     1    1   21 1   
     2    1   22 1   
     3    1   23 1   
     4    2   17 1   
     5    2   19 1   
     6    2   21 1   
     7    3    9 1   
     8    3   19 1   
     9    3   20 1   
    10    3   29 1   
    11    4    5 1   
    12    4   16 1   
    13    4   19 1   
    14    5   15 1   
    15    5   30 1   
    16    6    7 1   
    17    6   23 1   
    18    6   27 1   
    19    7   24 1   
    20    7   25 1   
    21    7   43 1   
    22    8   26 1   
    23    9   32 1   
    24    9   33 1   
    25    9   34 1   
    26   10   11 1   
    27   10   15 1   
    28   10   35 1   
    29   10   45 1   
    30   11   12 1   
    31   11   36 1   
    32   12   13 1   
    33   12   37 1   
    34   13   14 1   
    35   13   38 1   
    36   14   15 1   
    37   16   17 1   
    38   17   18 1   
    39   18   22 1   
    40   18   39 1   
    41   20   40 1   
    42   20   41 1   
    43   20   42 1   
    44   25   26 1   
    45   25   44 1   
    46   27   28 1   
    47   27   31 1   
@<TRIPOS>SUBSTRUCTURE
     1 LIE         1 TEMP              0 ****  ****    0 ROOT
