@<TRIPOS>MOLECULE
LIE
   45    48     1     0     0
SMALL
bcc


@<TRIPOS>ATOM
      1 C5          2.1120    0.1850    0.1720 ca        1 LIE      0.849300
      2 C6         -0.1160    0.5370    0.3990 ca        1 LIE      0.445800
      3 C7         -1.8100    2.3050   -0.3130 c3        1 LIE      0.060000
      4 C10        -2.2430    0.1460    1.0480 cc        1 LIE      0.553700
      5 N12        -3.6370    0.4080    1.2120 nh        1 LIE     -0.635600
      6 C13         4.4460   -0.0900   -0.1650 ca        1 LIE      0.022100
      7 C15         4.9730   -0.8030   -1.2650 ca        1 LIE      0.166900
      8 C17         6.3680   -0.7470    1.1780 ca        1 LIE     -0.179000
      9 C26        -1.1240    3.5360    0.2850 c3        1 LIE     -0.113100
     10 C36        -5.8190   -0.6900    0.8880 ca        1 LIE      0.083900
     11 C39        -6.7390   -1.3480    0.0560 ca        1 LIE     -0.136000
     12 C35        -6.3790   -1.6990   -1.2400 ca        1 LIE     -0.128000
     13 C38        -5.1030   -1.3980   -1.7150 ca        1 LIE     -0.116000
     14 C37        -4.1810   -0.7420   -0.9060 ca        1 LIE     -0.134000
     15 C34        -4.5160   -0.3630    0.4090 ca        1 LIE      0.089600
     16 N11        -1.5520   -0.9150    1.5500 nd        1 LIE     -0.536100
     17 C3         -0.2270   -0.7060    1.1700 ca        1 LIE     -0.188200
     18 C1          0.9670   -1.4340    1.3750 ca        1 LIE      0.526200
     19 N8         -1.4070    1.0680    0.3290 na        1 LIE     -0.235000
     20 C25        -1.5760    2.2880   -1.8250 c3        1 LIE     -0.113100
     21 N2          1.0620    1.0060   -0.1180 nb        1 LIE     -0.679000
     22 N4          2.1310   -1.0040    0.8870 nb        1 LIE     -0.740000
     23 O9          3.3070    0.6880   -0.3570 os        1 LIE     -0.317400
     24 F19         4.3050   -0.8370   -2.4380 f         1 LIE     -0.118900
     25 C18         6.2060   -1.4670   -1.1330 ca        1 LIE     -0.179000
     26 C14         6.8830   -1.4330    0.0820 ca        1 LIE     -0.077000
     27 C16         5.1390   -0.0700    1.0640 ca        1 LIE      0.166900
     28 F20         4.6300    0.5950    2.1220 f         1 LIE     -0.118900
     29 H7         -2.9240    2.4130   -0.1370 h1        1 LIE      0.084700
     30 HN12       -3.8890    0.3810    2.1880 hn        1 LIE      0.427800
     31 H17         6.9060   -0.7270    2.1370 ha        1 LIE      0.157000
     32 H261       -1.5630    4.4460   -0.1900 hc        1 LIE      0.053367
     33 H262       -1.2900    3.5930    1.3870 hc        1 LIE      0.053367
     34 H263       -0.0260    3.5240    0.0850 hc        1 LIE      0.053367
     35 H39        -7.7400   -1.5830    0.4480 ha        1 LIE      0.151000
     36 H35        -7.1020   -2.2180   -1.8870 ha        1 LIE      0.141000
     37 H38        -4.8170   -1.6830   -2.7390 ha        1 LIE      0.140000
     38 H37        -3.1780   -0.5180   -1.3020 ha        1 LIE      0.147000
     39 H1          0.9800   -2.3810    1.9450 h4        1 LIE      0.047100
     40 H251       -0.4870    2.2360   -2.0650 hc        1 LIE      0.053367
     41 H252       -2.0930    1.4200   -2.3000 hc        1 LIE      0.053367
     42 H253       -1.9920    3.2300   -2.2560 hc        1 LIE      0.053367
     43 H18         6.6170   -2.0130   -1.9940 ha        1 LIE      0.157000
     44 H14         7.8460   -1.9600    0.1790 ha        1 LIE      0.146000
     45 F40        -6.1840   -0.3660    2.1540 f         1 LIE     -0.142900
@<TRIPOS>BOND
     1    1   21 ar  
     2    1   22 ar  
     3    1   23 1   
     4    2   17 ar  
     5    2   19 1   
     6    2   21 ar  
     7    3    9 1   
     8    3   19 1   
     9    3   20 1   
    10    3   29 1   
    11    4    5 1   
    12    4   16 2   
    13    4   19 1   
    14    5   15 1   
    15    5   30 1   
    16    6    7 ar  
    17    6   23 1   
    18    6   27 ar  
    19    7   24 1   
    20    7   25 ar  
    21    8   26 ar  
    22    8   27 ar  
    23    8   31 1   
    24    9   32 1   
    25    9   33 1   
    26    9   34 1   
    27   10   11 ar  
    28   10   15 ar  
    29   10   45 1   
    30   11   12 ar  
    31   11   35 1   
    32   12   13 ar  
    33   12   36 1   
    34   13   14 ar  
    35   13   37 1   
    36   14   15 ar  
    37   14   38 1   
    38   16   17 1   
    39   17   18 ar  
    40   18   22 ar  
    41   18   39 1   
    42   20   40 1   
    43   20   41 1   
    44   20   42 1   
    45   25   26 ar  
    46   25   43 1   
    47   26   44 1   
    48   27   28 1   
@<TRIPOS>SUBSTRUCTURE
     1 LIE         1 TEMP              0 ****  ****    0 ROOT
