@<TRIPOS>MOLECULE
LIE
   45    47     1     0     0
SMALL
bcc


@<TRIPOS>ATOM
      1 C5         -0.3580   -0.2540    0.6220 c2        1 LIE      0.146000
      2 C6          1.7410   -0.0550    1.4550 c2        1 LIE      0.060000
      3 C7          4.1130    0.3560    0.5760 c3        1 LIE      0.041000
      4 C10         3.3930   -0.0960    3.0040 c2        1 LIE      0.130000
      5 N12         4.7010   -0.0690    3.5230 nu        1 LIE     -0.202000
      6 C13        -2.5170   -0.3200   -0.3670 c2        1 LIE     -0.090000
      7 C15        -3.2880    0.9630   -0.5820 c3        1 LIE      0.102000
      8 C17        -5.1860    0.1660   -3.6000 c1        1 LIE      0.221000
      9 C26         4.7860   -0.9560    0.1670 c3        1 LIE     -0.230500
     10 C36         6.2000   -0.0810    5.5490 c3        1 LIE      0.136000
     11 C39         5.8630   -0.3540    7.0120 c2        1 LIE     -0.204000
     12 C35         4.7790    0.1320    7.6510 c2        1 LIE     -0.095000
     13 C38         4.0080    1.1770    6.9630 c2        1 LIE     -0.083000
     14 C37         4.1150    1.0710    5.6460 c1        1 LIE     -0.148000
     15 C34         4.9170    0.3960    4.8190 c2        1 LIE     -0.008000
     16 N11         2.2770   -0.4190    3.7200 n2        1 LIE     -0.107000
     17 C3          1.2340   -0.4000    2.7880 c2        1 LIE     -0.175000
     18 C1         -0.1490   -0.6470    2.8960 c2        1 LIE      0.047000
     19 N8          3.1140    0.1910    1.6120 na        1 LIE     -0.193000
     20 C25         3.5930    1.0560   -0.6800 c3        1 LIE     -0.230500
     21 N2          0.9530    0.0210    0.3440 n2        1 LIE     -0.154000
     22 N4         -0.9520   -0.5800    1.8270 n2        1 LIE     -0.215000
     23 O9         -1.1420   -0.1900   -0.5380 os        1 LIE     -0.115000
     24 F19        -2.6900    2.0310    0.0690 f         1 LIE     -0.142000
     25 C18        -3.3760    1.2260   -2.0720 c2        1 LIE      0.161000
     26 C14        -4.3010    0.6790   -2.8330 c1        1 LIE     -0.576000
     27 C16        -3.1210   -1.5100   -0.1410 c2        1 LIE      0.059000
     28 F20        -2.4530   -2.6560    0.0510 f         1 LIE     -0.083000
     29 H7          4.9060    1.0360    1.0240 h1        1 LIE      0.088000
     30 HN12        5.4250    0.1700    2.8750 hn        1 LIE      0.230000
     31 H17        -4.2210   -1.6150   -0.1030 h4        1 LIE      0.163000
     32 H261        4.0480   -1.6520   -0.2990 hc        1 LIE      0.094833
     33 H262        5.2510   -1.4660    1.0440 hc        1 LIE      0.094833
     34 H263        5.5830   -0.7300   -0.5810 hc        1 LIE      0.094833
     35 H39         6.4800   -1.0790    5.0870 h1        1 LIE      0.124000
     36 H35         6.6000   -0.9920    7.5190 ha        1 LIE      0.146000
     37 H38         4.5280   -0.1280    8.6880 ha        1 LIE      0.146000
     38 H37         3.5520    1.9950    7.5280 ha        1 LIE      0.166000
     39 H1         -0.6220   -0.9050    3.8610 h4        1 LIE      0.184000
     40 H251        2.9700    1.9460   -0.4250 hc        1 LIE      0.094833
     41 H252        2.9880    0.3600   -1.3080 hc        1 LIE      0.094833
     42 H253        4.4750    1.3950   -1.2750 hc        1 LIE      0.094833
     43 H18        -4.3310    0.8370   -0.1580 h1        1 LIE      0.130000
     44 H14        -2.6040    1.9120   -2.4700 ha        1 LIE      0.154000
     45 F40         7.2790    0.7690    5.4120 f         1 LIE     -0.154000
@<TRIPOS>BOND
     1    1   21 1   
     2    1   22 1   
     3    1   23 1   
     4    2   17 1   
     5    2   19 1   
     6    2   21 1   
     7    3    9 1   
     8    3   19 1   
     9    3   20 1   
    10    3   29 1   
    11    4    5 1   
    12    4   16 1   
    13    4   19 1   
    14    5   15 1   
    15    5   30 1   
    16    6    7 1   
    17    6   23 1   
    18    6   27 1   
    19    7   24 1   
    20    7   25 1   
    21    7   43 1   
    22    8   26 1   
    23    9   32 1   
    24    9   33 1   
    25    9   34 1   
    26   10   11 1   
    27   10   15 1   
    28   10   35 1   
    29   10   45 1   
    30   11   12 1   
    31   11   36 1   
    32   12   13 1   
    33   12   37 1   
    34   13   14 1   
    35   13   38 1   
    36   14   15 1   
    37   16   17 1   
    38   17   18 1   
    39   18   22 1   
    40   18   39 1   
    41   20   40 1   
    42   20   41 1   
    43   20   42 1   
    44   25   26 1   
    45   25   44 1   
    46   27   28 1   
    47   27   31 1   
@<TRIPOS>SUBSTRUCTURE
     1 LIE         1 TEMP              0 ****  ****    0 ROOT
