@<TRIPOS>MOLECULE
LIF
   58    62     1     0     0
SMALL
bcc


@<TRIPOS>ATOM
      1 F1          5.9670    2.2200    1.2830 f         1 LIF     -0.233633
      2 C2          6.7520    1.1390    1.5980 c3        1 LIF      0.691200
      3 F3          6.4790    0.8950    2.9220 f         1 LIF     -0.233633
      4 F4          8.0310    1.6430    1.6080 f         1 LIF     -0.233633
      5 C5          6.5610   -0.0720    0.6890 ca        1 LIF     -0.160300
      6 C6          5.3060   -0.3090    0.1320 ca        1 LIF     -0.069000
      7 C10         7.6400   -0.9210    0.4430 ca        1 LIF     -0.079000
      8 C9          7.4640   -2.0330   -0.3730 ca        1 LIF     -0.145000
      9 C8          6.2060   -2.3000   -0.9370 ca        1 LIF      0.100900
     10 F11         6.0570   -3.3910   -1.7290 f         1 LIF     -0.139900
     11 C7          5.0970   -1.4300   -0.6960 ca        1 LIF      0.028600
     12 N12         3.8690   -1.6730   -1.3370 n         1 LIF     -0.458100
     13 C13         2.6250   -1.4130   -0.7080 c         1 LIF      0.770100
     14 O14         2.5590   -0.7400    0.3420 o         1 LIF     -0.602100
     15 N15         1.4790   -1.9500   -1.3320 n         1 LIF     -0.458100
     16 C16         0.1680   -1.5680   -0.9810 ca        1 LIF      0.061600
     17 C17        -0.8320   -1.5720   -1.9820 ca        1 LIF     -0.161500
     18 C18        -2.1490   -1.2700   -1.6630 ca        1 LIF     -0.096000
     19 C19        -2.5110   -0.9470   -0.3480 ca        1 LIF     -0.059800
     20 C20        -1.5230   -0.9390    0.6440 ca        1 LIF     -0.096000
     21 C21        -0.2000   -1.2480    0.3420 ca        1 LIF     -0.161500
     22 C22        -3.8910   -0.6430   -0.0230 cc        1 LIF     -0.046400
     23 C23        -4.5180    0.5910    0.0350 cd        1 LIF      0.112900
     24 C32        -4.0920    1.9540   -0.1750 ca        1 LIF     -0.084800
     25 C33        -5.0450    2.9700   -0.3780 ca        1 LIF     -0.066500
     26 C34        -4.6470    4.2820   -0.5840 ca        1 LIF     -0.186500
     27 C35        -3.2730    4.5960   -0.5870 ca        1 LIF      0.141100
     28 C36        -2.3150    3.5960   -0.3830 ca        1 LIF     -0.186500
     29 C37        -2.7300    2.2830   -0.1770 ca        1 LIF     -0.066500
     30 O38        -2.9820    5.9260   -0.8040 os        1 LIF     -0.323900
     31 C39        -1.6040    6.2810   -0.7850 c3        1 LIF      0.111700
     32 O24        -5.8930    0.4520    0.3710 os        1 LIF     -0.300400
     33 C25        -6.1130   -0.9150    0.5280 ca        1 LIF      0.617600
     34 N26        -7.3050   -1.4720    0.8590 nb        1 LIF     -0.709000
     35 C30        -4.8950   -1.6360    0.2930 ca        1 LIF     -0.393400
     36 C29        -4.9560   -3.0580    0.4170 ca        1 LIF      0.739200
     37 N31        -3.8510   -3.8300    0.1510 nh        1 LIF     -0.954500
     38 N28        -6.1560   -3.6470    0.7660 nb        1 LIF     -0.782000
     39 C27        -7.2200   -2.8280    0.9520 ca        1 LIF      0.681900
     40 H6          4.4730    0.3840    0.3510 ha        1 LIF      0.191000
     41 H10         8.6250   -0.7110    0.8890 ha        1 LIF      0.161000
     42 H9          8.3010   -2.7160   -0.5810 ha        1 LIF      0.161000
     43 H12         3.9030   -2.4030   -2.0190 hn        1 LIF      0.319500
     44 H15         1.5730   -2.2850   -2.2670 hn        1 LIF      0.313500
     45 H17        -0.5800   -1.8160   -3.0260 ha        1 LIF      0.154500
     46 H18        -2.9160   -1.2770   -2.4530 ha        1 LIF      0.150000
     47 H20        -1.7930   -0.6830    1.6810 ha        1 LIF      0.150000
     48 H21         0.5560   -1.2240    1.1440 ha        1 LIF      0.154500
     49 H33        -6.1180    2.7170   -0.3690 ha        1 LIF      0.150500
     50 H34        -5.3840    5.0820   -0.7440 ha        1 LIF      0.148500
     51 H36        -1.2410    3.8310   -0.3790 ha        1 LIF      0.148500
     52 H37        -1.9760    1.4950   -0.0100 ha        1 LIF      0.150500
     53 H391       -1.1500    6.0490    0.2080 h1        1 LIF      0.046700
     54 H392       -1.0520    5.7550   -1.6010 h1        1 LIF      0.046700
     55 H393       -1.6190    7.3860   -0.9660 h1        1 LIF      0.046700
     56 H311       -3.8610   -4.7970    0.3680 hn        1 LIF      0.440300
     57 H312       -2.9780   -3.3670    0.0700 hn        1 LIF      0.440300
     58 H27        -8.1670   -3.3420    1.2250 h5        1 LIF      0.057100
@<TRIPOS>BOND
     1    1    2 1   
     2    2    3 1   
     3    2    4 1   
     4    2    5 1   
     5    5    6 ar  
     6    5    7 ar  
     7    6   11 ar  
     8    6   40 1   
     9    7    8 ar  
    10    7   41 1   
    11    8    9 ar  
    12    8   42 1   
    13    9   10 1   
    14    9   11 ar  
    15   11   12 1   
    16   12   13 1   
    17   12   43 1   
    18   13   14 2   
    19   13   15 1   
    20   15   16 1   
    21   15   44 1   
    22   16   17 ar  
    23   16   21 ar  
    24   17   18 ar  
    25   17   45 1   
    26   18   19 ar  
    27   18   46 1   
    28   19   20 ar  
    29   19   22 1   
    30   20   21 ar  
    31   20   47 1   
    32   21   48 1   
    33   22   23 2   
    34   22   35 1   
    35   23   24 1   
    36   23   32 1   
    37   24   25 ar  
    38   24   29 ar  
    39   25   26 ar  
    40   25   49 1   
    41   26   27 ar  
    42   26   50 1   
    43   27   28 ar  
    44   27   30 1   
    45   28   29 ar  
    46   28   51 1   
    47   29   52 1   
    48   30   31 1   
    49   31   53 1   
    50   31   54 1   
    51   31   55 1   
    52   32   33 1   
    53   33   34 ar  
    54   33   35 ar  
    55   34   39 ar  
    56   35   36 ar  
    57   36   37 1   
    58   36   38 ar  
    59   37   56 1   
    60   37   57 1   
    61   38   39 ar  
    62   39   58 1   
@<TRIPOS>SUBSTRUCTURE
     1 LIF         1 TEMP              0 ****  ****    0 ROOT
