@<TRIPOS>MOLECULE
LIF
   61    65     1     0     0
SMALL
bcc


@<TRIPOS>ATOM
      1 F1          4.1800    0.5080   -1.0960 f         1 LIF     -0.193967
      2 C2          4.3840   -0.6410   -1.8120 c3        1 LIF      0.699200
      3 F3          5.4360   -1.2740   -1.2040 f         1 LIF     -0.193967
      4 F4          4.8300   -0.2530   -3.0420 f         1 LIF     -0.193967
      5 C5          3.1240   -1.5360   -1.8720 ca        1 LIF     -0.150300
      6 C6          2.2710   -1.5620   -0.7690 ca        1 LIF     -0.009000
      7 C10         2.8620   -2.2990   -3.0120 ca        1 LIF      0.036000
      8 C9          1.7390   -3.1370   -3.0520 ca        1 LIF     -0.104000
      9 C8          0.8790   -3.1960   -1.9520 ca        1 LIF      0.140900
     10 F11        -0.2010   -4.0170   -1.9480 f         1 LIF     -0.142900
     11 C7          1.1330   -2.3880   -0.8010 ca        1 LIF     -0.170400
     12 N12         0.1630   -2.3370    0.2940 n4        1 LIF     -0.486200
     13 C13         0.3610   -3.4380    1.3000 c         1 LIF      0.479100
     14 O14         0.7800   -3.1720    2.4130 o         1 LIF     -0.297100
     15 N15         0.0480   -4.8510    0.9020 n4        1 LIF     -0.485200
     16 C16        -1.0930   -5.3970    1.6470 ca        1 LIF     -0.147400
     17 C17        -2.2950   -5.6930    0.9650 ca        1 LIF     -0.063500
     18 C18        -3.3390   -6.2820    1.6580 ca        1 LIF     -0.149000
     19 C19        -3.2340   -6.6030    3.0340 ca        1 LIF      0.116200
     20 C20        -2.0300   -6.2770    3.6940 ca        1 LIF     -0.149000
     21 C21        -0.9740   -5.6730    3.0240 ca        1 LIF     -0.063500
     22 C22        -4.3390   -7.2130    3.7130 cc        1 LIF     -0.236400
     23 C23        -5.6930   -6.8330    3.5530 cd        1 LIF      0.316900
     24 C32        -6.3990   -5.8170    2.8380 ca        1 LIF     -0.206800
     25 C33        -7.7680   -6.0230    2.5240 ca        1 LIF     -0.019500
     26 C34        -8.5080   -5.0390    1.9040 ca        1 LIF     -0.199000
     27 C35        -7.9020   -3.7930    1.6050 ca        1 LIF      0.234100
     28 C36        -6.5420   -3.5740    1.9180 ca        1 LIF     -0.199000
     29 C37        -5.8070   -4.5790    2.5210 ca        1 LIF     -0.019500
     30 O38        -8.7200   -2.8850    1.0160 os        1 LIF     -0.276900
     31 C39        -8.2120   -1.5660    0.7960 c3        1 LIF      0.102700
     32 O24        -6.5400   -7.6440    4.3230 os        1 LIF     -0.257400
     33 C25        -5.7310   -8.5600    4.9950 ca        1 LIF      0.611600
     34 N26        -6.2050   -9.4990    5.8210 nb        1 LIF     -0.567000
     35 C30        -4.3280   -8.3280    4.6390 ca        1 LIF     -0.243400
     36 C29        -3.4630   -9.2600    5.2310 ca        1 LIF      0.485200
     37 N31        -2.0130   -9.2730    4.9540 n4        1 LIF     -0.821300
     38 N28        -3.8950  -10.2320    6.0940 nb        1 LIF     -0.671000
     39 C27        -5.2210  -10.2980    6.3490 ca        1 LIF      0.701900
     40 H6          2.5030   -0.9130    0.1000 ha        1 LIF      0.200000
     41 H10         3.5390   -2.2400   -3.8920 ha        1 LIF      0.229000
     42 H9          1.5250   -3.7460   -3.9520 ha        1 LIF      0.222000
     43 H12         0.2800   -1.4340    0.8040 hn        1 LIF      0.510800
     44 H15        -0.1370   -4.9370   -0.1160 hn        1 LIF      0.503300
     45 H17        -2.4140   -5.4930   -0.1150 ha        1 LIF      0.172000
     46 H18        -4.2830   -6.5110    1.1260 ha        1 LIF      0.186000
     47 H20        -1.9520   -6.4190    4.7870 ha        1 LIF      0.186000
     48 H21        -0.0620   -5.3990    3.5860 ha        1 LIF      0.172000
     49 H33        -8.2480   -6.9850    2.7830 ha        1 LIF      0.145500
     50 H34        -9.5720   -5.1920    1.6500 ha        1 LIF      0.175500
     51 H36        -6.0800   -2.5980    1.7070 ha        1 LIF      0.175500
     52 H37        -4.7550   -4.3970    2.7920 ha        1 LIF      0.145500
     53 H391       -7.3670   -1.5950    0.0670 h1        1 LIF      0.068367
     54 H392       -7.8990   -1.1010    1.7610 h1        1 LIF      0.068367
     55 H393       -9.0980   -1.0300    0.3620 h1        1 LIF      0.068367
     56 H311       -1.8110   -8.6370    4.1790 hn        1 LIF      0.473800
     57 H312       -1.7160  -10.2310    4.7090 hn        1 LIF      0.473800
     58 H27        -5.5570  -11.0940    7.0620 h5        1 LIF      0.129100
     59 H122       -0.7940   -2.3740   -0.0990 hn        1 LIF      0.510800
     60 H152        0.8890   -5.4150    1.1380 hn        1 LIF      0.503300
     61 H313       -1.5000   -8.9810    5.7980 hn        1 LIF      0.473800
@<TRIPOS>BOND
     1    1    2 1   
     2    2    3 1   
     3    2    4 1   
     4    2    5 1   
     5    5    6 ar  
     6    5    7 ar  
     7    6   11 ar  
     8    6   40 1   
     9    7    8 ar  
    10    7   41 1   
    11    8    9 ar  
    12    8   42 1   
    13    9   10 1   
    14    9   11 ar  
    15   11   12 1   
    16   12   13 1   
    17   12   43 1   
    18   12   59 1   
    19   13   14 2   
    20   13   15 1   
    21   15   16 1   
    22   15   44 1   
    23   15   60 1   
    24   16   17 ar  
    25   16   21 ar  
    26   17   18 ar  
    27   17   45 1   
    28   18   19 ar  
    29   18   46 1   
    30   19   20 ar  
    31   19   22 1   
    32   20   21 ar  
    33   20   47 1   
    34   21   48 1   
    35   22   23 2   
    36   22   35 1   
    37   23   24 1   
    38   23   32 1   
    39   24   25 ar  
    40   24   29 ar  
    41   25   26 ar  
    42   25   49 1   
    43   26   27 ar  
    44   26   50 1   
    45   27   28 ar  
    46   27   30 1   
    47   28   29 ar  
    48   28   51 1   
    49   29   52 1   
    50   30   31 1   
    51   31   53 1   
    52   31   54 1   
    53   31   55 1   
    54   32   33 1   
    55   33   34 ar  
    56   33   35 ar  
    57   34   39 ar  
    58   35   36 ar  
    59   36   37 1   
    60   36   38 ar  
    61   37   56 1   
    62   37   57 1   
    63   37   61 1   
    64   38   39 ar  
    65   39   58 1   
@<TRIPOS>SUBSTRUCTURE
     1 LIF         1 TEMP              0 ****  ****    0 ROOT
