@<TRIPOS>MOLECULE
LIF
   58    62     1     0     0
SMALL
bcc


@<TRIPOS>ATOM
      1 F1          0.9320    0.6080   -0.5230 f         1 LIF     -0.233633
      2 C2          2.2680    0.2930   -0.5500 c3        1 LIF      0.691200
      3 F3          2.6890    0.4890    0.7430 f         1 LIF     -0.233633
      4 F4          2.8440    1.3270   -1.2490 f         1 LIF     -0.233633
      5 C5          2.5840   -1.0930   -1.1040 ca        1 LIF     -0.160300
      6 C6          1.6680   -2.1240   -0.9100 ca        1 LIF     -0.069000
      7 C10         3.7850   -1.3030   -1.7830 ca        1 LIF     -0.079000
      8 C9          4.0800   -2.5680   -2.2760 ca        1 LIF     -0.145000
      9 C8          3.1790   -3.6270   -2.0830 ca        1 LIF      0.100900
     10 F11         3.4890   -4.8540   -2.5720 f         1 LIF     -0.139900
     11 C7          1.9430   -3.4190   -1.3950 ca        1 LIF      0.028600
     12 N12         1.0200   -4.4750   -1.2860 ns        1 LIF     -0.458100
     13 C13         0.2090   -4.6510   -0.1370 c         1 LIF      0.770100
     14 O14         0.1000   -3.7530    0.7240 o         1 LIF     -0.602100
     15 N15        -0.4650   -5.8860   -0.0250 ns        1 LIF     -0.458100
     16 C16        -1.4960   -6.1120    0.9100 ca        1 LIF      0.062600
     17 C17        -2.5340   -7.0140    0.5720 ca        1 LIF     -0.161500
     18 C18        -3.5300   -7.3170    1.4910 ca        1 LIF     -0.096500
     19 C19        -3.5320   -6.7320    2.7650 ca        1 LIF     -0.059800
     20 C20        -2.5070   -5.8370    3.1000 ca        1 LIF     -0.096500
     21 C21        -1.4980   -5.5290    2.1940 ca        1 LIF     -0.161500
     22 C22        -4.5700   -7.0630    3.7200 cc        1 LIF     -0.046400
     23 C23        -5.7690   -6.4130    3.9600 cd        1 LIF      0.112900
     24 C32        -6.4110   -5.2410    3.4150 ca        1 LIF     -0.084800
     25 C33        -7.7870   -5.0260    3.6220 ca        1 LIF     -0.066500
     26 C34        -8.4140   -3.9060    3.1000 ca        1 LIF     -0.186500
     27 C35        -7.6610   -2.9740    2.3580 ca        1 LIF      0.141100
     28 C36        -6.2910   -3.1720    2.1480 ca        1 LIF     -0.186500
     29 C37        -5.6750   -4.3030    2.6790 ca        1 LIF     -0.066500
     30 O38        -8.3780   -1.8970    1.8800 os        1 LIF     -0.323900
     31 C39        -7.6400   -0.9230    1.1500 c3        1 LIF      0.111700
     32 O24        -6.5190   -7.0760    4.9700 os        1 LIF     -0.300400
     33 C25        -5.7490   -8.1690    5.3650 ca        1 LIF      0.617600
     34 N26        -6.1090   -9.0620    6.3200 nb        1 LIF     -0.709000
     35 C30        -4.5260   -8.2010    4.6140 ca        1 LIF     -0.393400
     36 C29        -3.6230   -9.2680    4.9040 ca        1 LIF      0.739200
     37 N31        -2.4550   -9.4090    4.1920 nv        1 LIF     -0.954500
     38 N28        -3.9610  -10.1820    5.8830 nb        1 LIF     -0.782000
     39 C27        -5.1560  -10.0180    6.5020 ca        1 LIF      0.682900
     40 H6          0.7280   -1.9230   -0.3640 ha        1 LIF      0.192000
     41 H10         4.4910   -0.4700   -1.9300 ha        1 LIF      0.161000
     42 H9          5.0210   -2.7560   -2.8150 ha        1 LIF      0.161000
     43 H12         1.2680   -5.2880   -1.8110 hn        1 LIF      0.319500
     44 H15        -0.5100   -6.4650   -0.8360 hn        1 LIF      0.313500
     45 H17        -2.5650   -7.4870   -0.4220 ha        1 LIF      0.154500
     46 H18        -4.3310   -8.0200    1.2130 ha        1 LIF      0.150000
     47 H20        -2.4990   -5.3670    4.0960 ha        1 LIF      0.150000
     48 H21        -0.7110   -4.8130    2.4850 ha        1 LIF      0.154500
     49 H33        -8.3670   -5.7580    4.2070 ha        1 LIF      0.150500
     50 H34        -9.4880   -3.7310    3.2560 ha        1 LIF      0.148500
     51 H36        -5.6940   -2.4500    1.5750 ha        1 LIF      0.148500
     52 H37        -4.5950   -4.4580    2.5190 ha        1 LIF      0.150500
     53 H391       -6.8420   -0.4720    1.7880 h1        1 LIF      0.046700
     54 H392       -7.1980   -1.3740    0.2280 h1        1 LIF      0.046700
     55 H393       -8.4140   -0.1590    0.8840 h1        1 LIF      0.046700
     56 H311       -1.7740  -10.0650    4.4860 hn        1 LIF      0.440300
     57 H312       -2.1720   -8.6470    3.6230 hn        1 LIF      0.440300
     58 H27        -5.3920  -10.7780    7.2780 h5        1 LIF      0.057100
@<TRIPOS>BOND
     1    1    2 1   
     2    2    3 1   
     3    2    4 1   
     4    2    5 1   
     5    5    6 ar  
     6    5    7 ar  
     7    6   11 ar  
     8    6   40 1   
     9    7    8 ar  
    10    7   41 1   
    11    8    9 ar  
    12    8   42 1   
    13    9   10 1   
    14    9   11 ar  
    15   11   12 1   
    16   12   13 1   
    17   12   43 1   
    18   13   14 2   
    19   13   15 1   
    20   15   16 1   
    21   15   44 1   
    22   16   17 ar  
    23   16   21 ar  
    24   17   18 ar  
    25   17   45 1   
    26   18   19 ar  
    27   18   46 1   
    28   19   20 ar  
    29   19   22 1   
    30   20   21 ar  
    31   20   47 1   
    32   21   48 1   
    33   22   23 2   
    34   22   35 1   
    35   23   24 1   
    36   23   32 1   
    37   24   25 ar  
    38   24   29 ar  
    39   25   26 ar  
    40   25   49 1   
    41   26   27 ar  
    42   26   50 1   
    43   27   28 ar  
    44   27   30 1   
    45   28   29 ar  
    46   28   51 1   
    47   29   52 1   
    48   30   31 1   
    49   31   53 1   
    50   31   54 1   
    51   31   55 1   
    52   32   33 1   
    53   33   34 ar  
    54   33   35 ar  
    55   34   39 ar  
    56   35   36 ar  
    57   36   37 1   
    58   36   38 ar  
    59   37   56 1   
    60   37   57 1   
    61   38   39 ar  
    62   39   58 1   
@<TRIPOS>SUBSTRUCTURE
     1 LIF         1 TEMP              0 ****  ****    0 ROOT
