@<TRIPOS>MOLECULE
LIG
   29    32     1     0     0
SMALL
bcc


@<TRIPOS>ATOM
      1 N1          2.0260    0.2820    0.6910 na        1 LIG     -0.030600
      2 N3          2.2610    0.2890   -0.6230 nc        1 LIG     -0.453800
      3 C4          1.0510    0.1490   -1.2060 cd        1 LIG      0.336800
      4 C5         -0.0120    0.0330   -0.1830 cd        1 LIG     -0.236600
      5 C6          0.6580    0.1190    1.0340 cc        1 LIG     -0.035300
      6 C7          0.1570    0.0720    2.3900 ca        1 LIG      0.029000
      7 C8          0.9350    0.4480    3.4960 ca        1 LIG     -0.239300
      8 C10         0.3640    0.3710    4.7790 ca        1 LIG      0.399200
      9 N12        -0.8950   -0.0440    5.0140 nb        1 LIG     -0.660000
     10 C13        -1.6330   -0.3990    3.9450 ca        1 LIG      0.399200
     11 C15        -1.1590   -0.3600    2.6240 ca        1 LIG     -0.239300
     12 C17        -1.3310   -0.1150   -0.8440 c3        1 LIG      0.047200
     13 C20        -0.9780   -0.0760   -2.3150 ca        1 LIG     -0.083300
     14 C21         0.4330    0.0800   -2.5160 ca        1 LIG     -0.111500
     15 C22         0.9650    0.1380   -3.7910 ca        1 LIG     -0.095000
     16 C24         0.0910    0.0400   -4.8850 ca        1 LIG     -0.133000
     17 C26        -1.2780   -0.1110   -4.6930 ca        1 LIG     -0.124000
     18 C28        -1.8250   -0.1710   -3.4020 ca        1 LIG     -0.120000
     19 HN1         2.7830    0.3180    1.3320 hn        1 LIG      0.321700
     20 HC8         1.9650    0.8090    3.3850 ha        1 LIG      0.144000
     21 HC10        0.9490    0.6610    5.6710 h4        1 LIG      0.025600
     22 HC13       -2.6640   -0.7350    4.1630 h4        1 LIG      0.025600
     23 HC15       -1.8040   -0.6600    1.7860 ha        1 LIG      0.144000
     24 H171       -2.0270    0.7220   -0.5760 hc        1 LIG      0.071200
     25 H172       -1.8240   -1.0850   -0.5780 hc        1 LIG      0.071200
     26 HC22        2.0460    0.2580   -3.9480 ha        1 LIG      0.146000
     27 HC24        0.5000    0.0850   -5.9050 ha        1 LIG      0.134000
     28 HC26       -1.9470   -0.1860   -5.5630 ha        1 LIG      0.132000
     29 HC28       -2.9090   -0.2910   -3.2660 ha        1 LIG      0.135000
@<TRIPOS>BOND
     1    1    2 1   
     2    1    5 1   
     3    1   19 1   
     4    2    3 2   
     5    3    4 1   
     6    3   14 1   
     7    4    5 2   
     8    4   12 1   
     9    5    6 1   
    10    6    7 ar  
    11    6   11 ar  
    12    7    8 ar  
    13    7   20 1   
    14    8    9 ar  
    15    8   21 1   
    16    9   10 ar  
    17   10   11 ar  
    18   10   22 1   
    19   11   23 1   
    20   12   13 1   
    21   12   24 1   
    22   12   25 1   
    23   13   14 ar  
    24   13   18 ar  
    25   14   15 ar  
    26   15   16 ar  
    27   15   26 1   
    28   16   17 ar  
    29   16   27 1   
    30   17   18 ar  
    31   17   28 1   
    32   18   29 1   
@<TRIPOS>SUBSTRUCTURE
     1 LIG         1 TEMP              0 ****  ****    0 ROOT
