@<TRIPOS>MOLECULE
LIG
   29    32     1     0     0
SMALL
bcc


@<TRIPOS>ATOM
      1 N1          0.0600   -0.5540    0.1640 na        1 LIG     -0.030600
      2 N3          1.3920   -0.5670    0.0760 nc        1 LIG     -0.453800
      3 C4          1.8380   -0.2610    1.3130 cd        1 LIG      0.336800
      4 C5          0.7040   -0.0270    2.2350 cd        1 LIG     -0.236600
      5 C6         -0.4320   -0.2230    1.4540 cc        1 LIG     -0.035300
      6 C7         -1.8360   -0.1370    1.7940 ca        1 LIG      0.029000
      7 C8         -2.8470   -0.6360    0.9580 ca        1 LIG     -0.239300
      8 C10        -4.1850   -0.5100    1.3710 ca        1 LIG      0.399200
      9 N12        -4.5600    0.0640    2.5300 nb        1 LIG     -0.660000
     10 C13        -3.5810    0.5360    3.3260 ca        1 LIG      0.399200
     11 C15        -2.2150    0.4610    3.0070 ca        1 LIG     -0.239300
     12 C17         1.2140    0.3010    3.5880 c3        1 LIG      0.047200
     13 C20         2.7150    0.2450    3.4040 ca        1 LIG     -0.083300
     14 C21         3.0710   -0.0880    2.0560 ca        1 LIG     -0.111500
     15 C22         4.3980   -0.1900    1.6770 ca        1 LIG     -0.095000
     16 C24         5.3880    0.0400    2.6450 ca        1 LIG     -0.133000
     17 C26         5.0460    0.3640    3.9540 ca        1 LIG     -0.124000
     18 C28         3.7020    0.4690    4.3440 ca        1 LIG     -0.120000
     19 HN1        -0.4930   -0.6990   -0.6470 hn        1 LIG      0.321700
     20 HC8        -2.6210   -1.1280    0.0040 ha        1 LIG      0.144000
     21 HC10       -5.0050   -0.8920    0.7370 h4        1 LIG      0.025600
     22 HC13       -3.9130    1.0010    4.2720 h4        1 LIG      0.025600
     23 HC15       -1.4550    0.8620    3.6930 ha        1 LIG      0.144000
     24 H171        0.8750   -0.4430    4.3530 hc        1 LIG      0.071200
     25 H172        0.8910    1.3220    3.9180 hc        1 LIG      0.071200
     26 HC22        4.6730   -0.4450    0.6440 ha        1 LIG      0.146000
     27 HC24        6.4470   -0.0370    2.3580 ha        1 LIG      0.134000
     28 HC26        5.8370    0.5400    4.6980 ha        1 LIG      0.132000
     29 HC28        3.4470    0.7250    5.3820 ha        1 LIG      0.135000
@<TRIPOS>BOND
     1    1    2 1   
     2    1    5 1   
     3    1   19 1   
     4    2    3 2   
     5    3    4 1   
     6    3   14 1   
     7    4    5 2   
     8    4   12 1   
     9    5    6 1   
    10    6    7 ar  
    11    6   11 ar  
    12    7    8 ar  
    13    7   20 1   
    14    8    9 ar  
    15    8   21 1   
    16    9   10 ar  
    17   10   11 ar  
    18   10   22 1   
    19   11   23 1   
    20   12   13 1   
    21   12   24 1   
    22   12   25 1   
    23   13   14 ar  
    24   13   18 ar  
    25   14   15 ar  
    26   15   16 ar  
    27   15   26 1   
    28   16   17 ar  
    29   16   27 1   
    30   17   18 ar  
    31   17   28 1   
    32   18   29 1   
@<TRIPOS>SUBSTRUCTURE
     1 LIG         1 TEMP              0 ****  ****    0 ROOT
