@<TRIPOS>MOLECULE
LIG
   29    32     1     0     0
SMALL
bcc


@<TRIPOS>ATOM
      1 N1          0.0660   -0.5360    0.1580 na        1 LIG     -0.030600
      2 N3          1.3980   -0.5640    0.0770 nc        1 LIG     -0.453800
      3 C4          1.8400   -0.2700    1.3190 cd        1 LIG      0.336800
      4 C5          0.7040   -0.0270    2.2350 cd        1 LIG     -0.236600
      5 C6         -0.4300   -0.2050    1.4470 cc        1 LIG     -0.035300
      6 C7         -1.8340   -0.1040    1.7800 ca        1 LIG      0.029000
      7 C8         -2.8470   -0.5820    0.9340 ca        1 LIG     -0.239300
      8 C10        -4.1850   -0.4430    1.3410 ca        1 LIG      0.399200
      9 N12        -4.5600    0.1240    2.5030 nb        1 LIG     -0.660000
     10 C13        -3.5790    0.5760    3.3090 ca        1 LIG      0.399200
     11 C15        -2.2120    0.4860    2.9970 ca        1 LIG     -0.239300
     12 C17         1.2110    0.2880    3.5920 c3        1 LIG      0.047200
     13 C20         2.7120    0.2160    3.4160 ca        1 LIG     -0.083300
     14 C21         3.0720   -0.1150    2.0680 ca        1 LIG     -0.111500
     15 C22         4.3990   -0.2300    1.6970 ca        1 LIG     -0.095000
     16 C24         5.3860   -0.0170    2.6700 ca        1 LIG     -0.133000
     17 C26         5.0420    0.3040    3.9790 ca        1 LIG     -0.124000
     18 C28         3.6970    0.4230    4.3630 ca        1 LIG     -0.120000
     19 HN1        -0.4850   -0.6700   -0.6570 hn        1 LIG      0.321700
     20 HC8        -2.6220   -1.0680   -0.0240 ha        1 LIG      0.144000
     21 HC10       -5.0070   -0.8080    0.6990 h4        1 LIG      0.025600
     22 HC13       -3.9100    1.0360    4.2580 h4        1 LIG      0.025600
     23 HC15       -1.4510    0.8700    3.6910 ha        1 LIG      0.144000
     24 H171        0.8980    1.3110    3.9260 hc        1 LIG      0.071200
     25 H172        0.8600   -0.4560    4.3520 hc        1 LIG      0.071200
     26 HC22        4.6770   -0.4830    0.6640 ha        1 LIG      0.146000
     27 HC24        6.4460   -0.1050    2.3890 ha        1 LIG      0.134000
     28 HC26        5.8300    0.4680    4.7280 ha        1 LIG      0.132000
     29 HC28        3.4390    0.6770    5.4010 ha        1 LIG      0.135000
@<TRIPOS>BOND
     1    1    2 1   
     2    1    5 1   
     3    1   19 1   
     4    2    3 2   
     5    3    4 1   
     6    3   14 1   
     7    4    5 2   
     8    4   12 1   
     9    5    6 1   
    10    6    7 ar  
    11    6   11 ar  
    12    7    8 ar  
    13    7   20 1   
    14    8    9 ar  
    15    8   21 1   
    16    9   10 ar  
    17   10   11 ar  
    18   10   22 1   
    19   11   23 1   
    20   12   13 1   
    21   12   24 1   
    22   12   25 1   
    23   13   14 ar  
    24   13   18 ar  
    25   14   15 ar  
    26   15   16 ar  
    27   15   26 1   
    28   16   17 ar  
    29   16   27 1   
    30   17   18 ar  
    31   17   28 1   
    32   18   29 1   
@<TRIPOS>SUBSTRUCTURE
     1 LIG         1 TEMP              0 ****  ****    0 ROOT
