@<TRIPOS>MOLECULE
LIG
   29    25     1     0     0
SMALL
bcc


@<TRIPOS>ATOM
      1 N1         -0.6000    0.0000   -2.0840 n2        1 LIG     -0.175000
      2 N3          0.7860    0.0000   -2.0840 n2        1 LIG     -0.021000
      3 C4          1.2070    0.0000   -0.7930 c2        1 LIG     -0.099000
      4 C5          0.0870    0.0000    0.0210 c1        1 LIG     -0.164000
      5 C6         -1.0230    0.0000   -0.7880 c2        1 LIG     -0.011000
      6 C7         -2.4070    0.0000   -0.8450 c1        1 LIG      0.029000
      7 C8         -3.0900   -1.1810   -0.8430 c1        1 LIG     -0.122500
      8 C10        -4.4750   -1.1800   -0.9010 c1        1 LIG     -0.122500
      9 N12        -5.1540   -0.0010   -0.9600 n1        1 LIG     -0.134000
     10 C13        -4.4730    1.1790   -0.9630 c1        1 LIG     -0.065000
     11 C15        -3.0880    1.1810   -0.9050 c1        1 LIG     -0.182000
     12 C17         0.5420    0.0000    1.4140 c2        1 LIG     -0.046000
     13 C20         1.9980    0.0000    1.4110 c2        1 LIG     -0.076000
     14 C21         2.4230    0.0000    0.0860 c2        1 LIG     -0.004000
     15 C22         3.7880    0.0000   -0.2100 c1        1 LIG     -0.095000
     16 C24         4.7230    0.0000    0.8210 c1        1 LIG     -0.122500
     17 C26         4.2970    0.0000    2.1500 c1        1 LIG     -0.122500
     18 C28         2.9380    0.0000    2.4460 c1        1 LIG     -0.120000
     19 HN1        -1.1360   -0.0010   -2.8220 DU        1 LIG      0.272000
     20 HC8        -2.6040   -2.0260   -0.8010 ha        1 LIG      0.144750
     21 HC10       -4.9640   -2.0250   -0.8990 ha        1 LIG      0.144750
     22 HC13       -4.9610    2.0240   -1.0050 ha        1 LIG      0.162000
     23 HC15       -2.6010    2.0270   -0.9070 ha        1 LIG      0.138000
     24 H171        0.2130   -0.7980    1.8690 ha        1 LIG      0.110500
     25 H172        0.2130    0.7990    1.8690 ha        1 LIG      0.110500
     26 HC22        4.0870    0.0000   -1.1390 ha        1 LIG      0.146000
     27 HC24        5.6770    0.0000    0.6140 ha        1 LIG      0.144750
     28 HC26        4.9540    0.0000    2.8730 ha        1 LIG      0.144750
     29 HC28        2.6410    0.0000    3.3750 ha        1 LIG      0.135000
@<TRIPOS>BOND
     1    1    2 1   
     2    1    5 1   
     3    2    3 1   
     4    3    4 1   
     5    3   14 1   
     6    4    5 1   
     7    5    6 1   
     8    6   11 1   
     9    7    8 1   
    10    7   20 1   
    11    8   21 1   
    12    9   10 1   
    13   10   22 1   
    14   11   23 1   
    15   12   13 1   
    16   12   24 1   
    17   12   25 1   
    18   13   14 1   
    19   13   18 1   
    20   14   15 1   
    21   15   26 1   
    22   16   17 1   
    23   16   27 1   
    24   17   28 1   
    25   18   29 1   
@<TRIPOS>SUBSTRUCTURE
     1 LIG         1 TEMP              0 ****  ****    0 ROOT
