@<TRIPOS>MOLECULE
LIH
   42    45     1     0     0
SMALL
bcc


@<TRIPOS>ATOM
      1 C4A         0.0230    0.1040    0.0210 ca        1 LIH     -0.387600
      2 C4          1.4620    0.3420    0.0900 ca        1 LIH      0.740200
      3 C2          1.4930   -0.4800    2.2890 ca        1 LIH      0.924900
      4 C8A        -0.5990   -0.2400    1.2840 ca        1 LIH      0.723300
      5 C5         -0.7960    0.1770   -1.1430 ca        1 LIH      0.036700
      6 C6         -2.1740    0.1160   -0.9860 ca        1 LIH     -0.276600
      7 C7         -2.7050   -0.0740    0.3280 ca        1 LIH      0.467200
      8 C5A        -0.2240    0.2420   -2.5110 c3        1 LIH     -0.081800
      9 C5'        -3.7950    1.6240   -4.0020 ca        1 LIH      0.165600
     10 C6'        -4.6610    0.6460   -4.4940 ca        1 LIH     -0.209000
     11 C7'        -5.3090    0.8070   -5.7320 ca        1 LIH     -0.083000
     12 C8'        -5.1100    1.9190   -6.5070 ca        1 LIH     -0.209300
     13 C9         -3.1510    0.1950   -2.1190 c3        1 LIH      0.245100
     14 C4'        -2.7610    3.9000   -4.3530 ca        1 LIH     -0.076000
     15 C4X        -3.5860    2.8210   -4.7830 ca        1 LIH     -0.179300
     16 C8X        -4.2400    2.9580   -6.0480 ca        1 LIH      0.423600
     17 C2'        -3.2770    5.0380   -6.4100 ca        1 LIH      0.417200
     18 C3'        -2.6000    5.0030   -5.1530 ca        1 LIH     -0.262300
     19 N3          2.1840    0.0430    1.1900 nb        1 LIH     -0.833000
     20 N1          0.1310   -0.5500    2.4070 nb        1 LIH     -0.766000
     21 N8         -1.9890   -0.2750    1.4120 nb        1 LIH     -0.657000
     22 N1'        -4.0640    4.0740   -6.8480 nb        1 LIH     -0.661000
     23 N10        -3.1910    1.5020   -2.7430 nh        1 LIH     -0.729600
     24 N4          2.1520    0.8860   -0.9850 nh        1 LIH     -0.946500
     25 N2          2.2650   -0.9710    3.3400 nh        1 LIH     -0.928500
     26 H71        -3.8040   -0.0790    0.4740 h4        1 LIH      0.030100
     27 H5A1        0.0070    1.2980   -2.8000 hc        1 LIH      0.058033
     28 H5A2        0.7010   -0.3820   -2.5930 hc        1 LIH      0.058033
     29 H5A3       -0.9440   -0.1600   -3.2690 hc        1 LIH      0.058033
     30 H6'1       -4.8670   -0.2710   -3.9220 ha        1 LIH      0.136000
     31 H7'1       -5.9860    0.0080   -6.0760 ha        1 LIH      0.135000
     32 H8'1       -5.6130    2.0310   -7.4790 ha        1 LIH      0.152000
     33 H91        -2.9090   -0.6190   -2.8690 h1        1 LIH      0.050200
     34 H92        -4.1920   -0.0170   -1.7330 h1        1 LIH      0.050200
     35 H4'1       -2.2620    3.8750   -3.3730 ha        1 LIH      0.131000
     36 H2'1       -3.1580    5.9140   -7.0740 h4        1 LIH      0.022100
     37 H3'1       -1.9760    5.8540   -4.8500 ha        1 LIH      0.143000
     38 H101       -2.3330    2.0060   -2.6500 hn        1 LIH      0.397800
     39 H41         1.6390    1.5000   -1.5720 hn        1 LIH      0.424800
     40 H42         3.1100    1.1180   -0.8480 hn        1 LIH      0.424800
     41 H21         1.8060   -1.1230    4.2080 hn        1 LIH      0.434800
     42 H22         3.2190   -0.6990    3.3730 hn        1 LIH      0.434800
@<TRIPOS>BOND
     1    1    2 ar  
     2    1    4 ar  
     3    1    5 ar  
     4    2   19 ar  
     5    2   24 1   
     6    3   19 ar  
     7    3   20 ar  
     8    3   25 1   
     9    4   20 ar  
    10    4   21 ar  
    11    5    6 ar  
    12    5    8 1   
    13    6    7 ar  
    14    6   13 1   
    15    7   21 ar  
    16    7   26 1   
    17    8   27 1   
    18    8   28 1   
    19    8   29 1   
    20    9   10 ar  
    21    9   15 ar  
    22    9   23 1   
    23   10   11 ar  
    24   10   30 1   
    25   11   12 ar  
    26   11   31 1   
    27   12   16 ar  
    28   12   32 1   
    29   13   23 1   
    30   13   33 1   
    31   13   34 1   
    32   14   15 ar  
    33   14   18 ar  
    34   14   35 1   
    35   15   16 ar  
    36   16   22 ar  
    37   17   18 ar  
    38   17   22 ar  
    39   17   36 1   
    40   18   37 1   
    41   23   38 1   
    42   24   39 1   
    43   24   40 1   
    44   25   41 1   
    45   25   42 1   
@<TRIPOS>SUBSTRUCTURE
     1 LIH         1 TEMP              0 ****  ****    0 ROOT
