@<TRIPOS>MOLECULE
LIH
   42    35     1     0     0
SMALL
bcc


@<TRIPOS>ATOM
      1 C4A         2.7120   -0.7690    1.3950 cg        1 LIH     -0.261000
      2 C4          4.0900   -0.7620    1.3810 c1        1 LIH      0.595100
      3 C2          4.1200   -0.9450    3.7550 c1        1 LIH      0.595100
      4 C8A         2.0460   -0.8640    2.5810 cg        1 LIH      0.455800
      5 C5          2.0050   -0.7410    0.2000 c1        1 LIH      0.074900
      6 C6          0.6420   -0.8070    0.2140 c1        1 LIH     -0.181100
      7 C7         -0.0320   -0.9030    1.4080 c1        1 LIH      0.052500
      8 C5A         2.7150   -1.0690   -1.0950 c3        1 LIH     -0.114000
      9 C5'        -2.3030    0.3770   -1.7560 c1        1 LIH      0.140800
     10 C6'        -2.2000   -0.0310   -3.0870 c1        1 LIH     -0.150500
     11 C7'        -3.1830    0.2740   -3.9670 c1        1 LIH     -0.067000
     12 C8'        -4.2990    0.9980   -3.5440 c1        1 LIH     -0.067000
     13 C9         -0.3860   -0.8920   -0.9500 c3        1 LIH      0.207900
     14 C4'        -3.5040    1.5530   -0.0290 c1        1 LIH     -0.067000
     15 C4X        -3.4250    1.1040   -1.3310 c1        1 LIH     -0.112000
     16 C8X        -4.4080    1.4080   -2.2150 cg        1 LIH      0.108800
     17 C2'        -5.5800    2.6240   -0.5130 c1        1 LIH      0.336300
     18 C3'        -4.5850    2.3140    0.3770 c1        1 LIH     -0.067000
     19 N3          4.7910   -0.8500    2.5570 n1        1 LIH     -0.600300
     20 N1          2.7600   -0.9530    3.7750 n1        1 LIH     -0.600300
     21 N8          0.6650   -0.9310    2.5890 n1        1 LIH     -0.457800
     22 N1'        -5.5020    2.1780   -1.8070 n1        1 LIH     -0.541600
     23 N10        -1.1080    0.3070   -1.0110 n3        1 LIH     -0.704800
     24 N4          5.3230   -0.6770    0.7490 n3        1 LIH     -0.802400
     25 N2          4.6890   -0.8930    5.0510 n3        1 LIH     -0.802400
     26 H71        -0.9530   -0.9480    1.4150 ha        1 LIH      0.117500
     27 H5A1        3.3360   -1.9100   -0.9500 hc        1 LIH      0.058367
     28 H5A2        3.2820   -0.2740   -1.3860 hc        1 LIH      0.058367
     29 H5A3        2.0400   -1.2700   -1.8020 hc        1 LIH      0.058367
     30 H6'1       -1.3990   -0.5500   -3.3930 ha        1 LIH      0.076500
     31 H7'1       -3.1160    0.0090   -4.8290 ha        1 LIH      0.083000
     32 H8'1       -4.9960    1.2120   -4.1700 ha        1 LIH      0.083000
     33 H91        -1.0040   -1.6500   -0.7870 h1        1 LIH      0.049700
     34 H92         0.0990   -1.0330   -1.8210 h1        1 LIH      0.049700
     35 H4'1       -2.8230    1.3410    0.5810 ha        1 LIH      0.083000
     36 H2'1       -6.3800    3.1890   -0.2110 ha        1 LIH      0.101500
     37 H3'1       -4.6390    2.6320    1.3070 ha        1 LIH      0.083000
     38 H101       -0.7290    1.0960   -0.6650 hn        1 LIH      0.399800
     39 H41         5.3700   -0.4600   -0.1990 hn        1 LIH      0.431050
     40 H42         6.1050   -0.7470    1.2470 hn        1 LIH      0.431050
     41 H21         4.1440   -0.7990    5.7870 hn        1 LIH      0.431050
     42 H22         5.6190   -0.8850    5.1520 hn        1 LIH      0.431050
@<TRIPOS>BOND
     1    1    4 1   
     2    1    5 3   
     3    2   19 3   
     4    2   24 1   
     5    3   20 3   
     6    3   25 1   
     7    4   21 3   
     8    5    8 1   
     9    6    7 3   
    10    6   13 1   
    11    7   26 1   
    12    8   27 1   
    13    8   28 1   
    14    8   29 1   
    15    9   10 3   
    16    9   23 1   
    17   10   30 1   
    18   11   12 3   
    19   11   31 1   
    20   12   32 1   
    21   13   23 1   
    22   13   33 1   
    23   13   34 1   
    24   14   18 3   
    25   14   35 1   
    26   15   16 3   
    27   16   22 1   
    28   17   22 3   
    29   17   36 1   
    30   18   37 1   
    31   23   38 1   
    32   24   39 1   
    33   24   40 1   
    34   25   41 1   
    35   25   42 1   
@<TRIPOS>SUBSTRUCTURE
     1 LIH         1 TEMP              0 ****  ****    0 ROOT
