@<TRIPOS>MOLECULE
LIH
   45    48     1     0     0
SMALL
bcc


@<TRIPOS>ATOM
      1 C4A         0.3000    0.1260   -0.0160 ca        1 LIH     -0.271600
      2 C4          1.7050    0.0590    0.3070 ca        1 LIH      0.601200
      3 C2          1.2410   -0.7830    2.4220 ca        1 LIH      0.766900
      4 C8A        -0.5720   -0.4340    1.0080 ca        1 LIH      0.704300
      5 C5         -0.3170    0.6500   -1.2060 ca        1 LIH      0.022700
      6 C6         -1.6730    0.4250   -1.3990 ca        1 LIH     -0.208600
      7 C7         -2.4290   -0.2160   -0.3550 ca        1 LIH      0.481200
      8 C5A         0.4550    1.4550   -2.1830 c3        1 LIH     -0.117800
      9 C5'        -4.2880    1.8230   -3.7840 ca        1 LIH     -0.100400
     10 C6'        -5.4710    1.0890   -3.8300 ca        1 LIH     -0.056000
     11 C7'        -6.2970    1.1700   -4.9630 ca        1 LIH     -0.129000
     12 C8'        -5.9570    1.9710   -6.0330 ca        1 LIH     -0.053300
     13 C9         -2.4090    0.7080   -2.6750 c3        1 LIH      0.135100
     14 C4'        -2.6880    3.4370   -4.8930 ca        1 LIH     -0.164000
     15 C4X        -3.8840    2.6580   -4.8670 ca        1 LIH     -0.122300
     16 C8X        -4.7470    2.7340   -6.0090 ca        1 LIH      0.402600
     17 C2'        -3.3430    4.2480   -7.0730 ca        1 LIH      0.440200
     18 C3'        -2.4160    4.2330   -5.9760 ca        1 LIH     -0.161300
     19 N3          2.1830   -0.3650    1.4850 nb        1 LIH     -0.674000
     20 N1         -0.0860   -0.8560    2.2390 nb        1 LIH     -0.545000
     21 N8         -1.9350   -0.5940    0.8050 nb        1 LIH     -0.554000
     22 N1'        -4.4500    3.5340   -7.0980 nb        1 LIH     -0.594000
     23 N10        -3.4660    1.7620   -2.5640 n4        1 LIH     -0.616400
     24 N4          2.7500    0.4170   -0.6810 n4        1 LIH     -0.842300
     25 N2          1.7750   -1.2190    3.7460 n4        1 LIH     -0.817300
     26 H71        -3.5150   -0.4300   -0.4880 h4        1 LIH      0.085100
     27 H5A1        1.1220    2.1930   -1.6720 hc        1 LIH      0.085700
     28 H5A2       -0.2230    2.0820   -2.8240 hc        1 LIH      0.085700
     29 H5A3        1.0370    0.8050   -2.8870 hc        1 LIH      0.085700
     30 H6'1       -5.7960    0.4480   -2.9930 ha        1 LIH      0.152000
     31 H7'1       -7.2350    0.5860   -4.9820 ha        1 LIH      0.193000
     32 H8'1       -6.6180    2.0370   -6.9200 ha        1 LIH      0.208000
     33 H91        -2.9210   -0.2510   -3.0080 hx        1 LIH      0.140200
     34 H92        -1.7170    1.0100   -3.5150 hx        1 LIH      0.140200
     35 H4'1       -1.9820    3.4150   -4.0520 ha        1 LIH      0.095000
     36 H2'1       -3.1440    4.8860   -7.9610 h4        1 LIH      0.077100
     37 H3'1       -1.5130    4.8620   -6.0310 ha        1 LIH      0.175000
     38 H101       -3.0360    2.6830   -2.4140 hn        1 LIH      0.457300
     39 H41         2.4940    0.0310   -1.6020 hn        1 LIH      0.501133
     40 H42         2.8290    1.4450   -0.7440 hn        1 LIH      0.501133
     41 H21         2.2670   -0.4300    4.1970 hn        1 LIH      0.511467
     42 H22         2.4350   -2.0030    3.6130 hn        1 LIH      0.511467
     43 H102       -4.0820    1.5580   -1.7660 hn        1 LIH      0.457300
     44 H43         3.6770    0.0370   -0.4060 hn        1 LIH      0.501133
     45 H23         0.9970   -1.5300    4.3590 hn        1 LIH      0.511467
@<TRIPOS>BOND
     1    1    2 ar  
     2    1    4 ar  
     3    1    5 ar  
     4    2   19 ar  
     5    2   24 1   
     6    3   19 ar  
     7    3   20 ar  
     8    3   25 1   
     9    4   20 ar  
    10    4   21 ar  
    11    5    6 ar  
    12    5    8 1   
    13    6    7 ar  
    14    6   13 1   
    15    7   21 ar  
    16    7   26 1   
    17    8   27 1   
    18    8   28 1   
    19    8   29 1   
    20    9   10 ar  
    21    9   15 ar  
    22    9   23 1   
    23   10   11 ar  
    24   10   30 1   
    25   11   12 ar  
    26   11   31 1   
    27   12   16 ar  
    28   12   32 1   
    29   13   23 1   
    30   13   33 1   
    31   13   34 1   
    32   14   15 ar  
    33   14   18 ar  
    34   14   35 1   
    35   15   16 ar  
    36   16   22 ar  
    37   17   18 ar  
    38   17   22 ar  
    39   17   36 1   
    40   18   37 1   
    41   23   38 1   
    42   23   43 1   
    43   24   39 1   
    44   24   40 1   
    45   24   44 1   
    46   25   41 1   
    47   25   42 1   
    48   25   45 1   
@<TRIPOS>SUBSTRUCTURE
     1 LIH         1 TEMP              0 ****  ****    0 ROOT
