@<TRIPOS>MOLECULE
LIH
   42    45     1     0     0
SMALL
bcc


@<TRIPOS>ATOM
      1 C4A        -0.0600   -0.3320   -2.9790 ca        1 LIH     -0.394600
      2 C4         -1.0750   -0.9280   -3.8430 ca        1 LIH      0.748200
      3 C2         -0.2890    0.3510   -5.6470 ca        1 LIH      0.926900
      4 C8A         0.6500    0.7910   -3.5580 ca        1 LIH      0.724300
      5 C5          0.2800   -0.7460   -1.6590 ca        1 LIH      0.056700
      6 C6          1.1130    0.0720   -0.9060 ca        1 LIH     -0.291600
      7 C7          1.6540    1.2440   -1.5170 ca        1 LIH      0.460200
      8 C5A        -0.1640   -2.0440   -1.0940 c3        1 LIH     -0.078800
      9 C5'         0.6820   -0.1920    2.8030 ca        1 LIH      0.162600
     10 C6'         1.9270   -0.5780    3.3010 ca        1 LIH     -0.206000
     11 C7'         2.1710   -0.6290    4.6860 ca        1 LIH     -0.085000
     12 C8'         1.2040   -0.2940    5.5970 ca        1 LIH     -0.207300
     13 C9          1.5220   -0.2250    0.5040 c3        1 LIH      0.244100
     14 C4'        -1.6700    0.5550    3.3380 ca        1 LIH     -0.076000
     15 C4X        -0.3600    0.1600    3.7380 ca        1 LIH     -0.177300
     16 C8X        -0.0900    0.1110    5.1430 ca        1 LIH      0.422600
     17 C2'        -2.2410    0.8090    5.6630 ca        1 LIH      0.417200
     18 C3'        -2.6090    0.8800    4.2840 ca        1 LIH     -0.261300
     19 N3         -1.1770   -0.6100   -5.1520 nb        1 LIH     -0.838000
     20 N1          0.5520    1.1210   -4.8890 nb        1 LIH     -0.769000
     21 N8          1.4800    1.5950   -2.7740 nb        1 LIH     -0.660000
     22 N1'        -1.0470    0.4420    6.0870 nb        1 LIH     -0.661000
     23 N10         0.4030   -0.2200    1.4270 nh        1 LIH     -0.729600
     24 N4         -1.9860   -1.8470   -3.3500 nh        1 LIH     -0.952500
     25 N2         -0.2650    0.5280   -7.0300 nh        1 LIH     -0.928500
     26 H71         2.2990    1.9220   -0.9220 h4        1 LIH      0.026100
     27 H5A1       -1.1650   -1.9420   -0.6040 hc        1 LIH      0.060700
     28 H5A2       -0.2020   -2.8390   -1.8800 hc        1 LIH      0.060700
     29 H5A3        0.5480   -2.4050   -0.3080 hc        1 LIH      0.060700
     30 H6'1        2.7480   -0.8600    2.6250 ha        1 LIH      0.136000
     31 H7'1        3.1700   -0.9440    5.0290 ha        1 LIH      0.135000
     32 H8'1        1.4060   -0.3320    6.6780 ha        1 LIH      0.152000
     33 H91         2.0020   -1.2470    0.5510 h1        1 LIH      0.049200
     34 H92         2.3130    0.5210    0.8220 h1        1 LIH      0.049200
     35 H4'1       -1.9490    0.5960    2.2750 ha        1 LIH      0.130000
     36 H2'1       -2.9810    1.0680    6.4430 h4        1 LIH      0.022100
     37 H3'1       -3.6260    1.1880    4.0100 ha        1 LIH      0.143000
     38 H101       -0.3210    0.4100    1.1500 hn        1 LIH      0.397800
     39 H41        -2.7190   -2.1510   -3.9490 hn        1 LIH      0.430800
     40 H42        -2.1930   -1.8060   -2.3820 hn        1 LIH      0.430800
     41 H21        -1.0300    0.1690   -7.5510 hn        1 LIH      0.434800
     42 H22         0.1720    1.3510   -7.3740 hn        1 LIH      0.434800
@<TRIPOS>BOND
     1    1    2 ar  
     2    1    4 ar  
     3    1    5 ar  
     4    2   19 ar  
     5    2   24 1   
     6    3   19 ar  
     7    3   20 ar  
     8    3   25 1   
     9    4   20 ar  
    10    4   21 ar  
    11    5    6 ar  
    12    5    8 1   
    13    6    7 ar  
    14    6   13 1   
    15    7   21 ar  
    16    7   26 1   
    17    8   27 1   
    18    8   28 1   
    19    8   29 1   
    20    9   10 ar  
    21    9   15 ar  
    22    9   23 1   
    23   10   11 ar  
    24   10   30 1   
    25   11   12 ar  
    26   11   31 1   
    27   12   16 ar  
    28   12   32 1   
    29   13   23 1   
    30   13   33 1   
    31   13   34 1   
    32   14   15 ar  
    33   14   18 ar  
    34   14   35 1   
    35   15   16 ar  
    36   16   22 ar  
    37   17   18 ar  
    38   17   22 ar  
    39   17   36 1   
    40   18   37 1   
    41   23   38 1   
    42   24   39 1   
    43   24   40 1   
    44   25   41 1   
    45   25   42 1   
@<TRIPOS>SUBSTRUCTURE
     1 LIH         1 TEMP              0 ****  ****    0 ROOT
