@<TRIPOS>MOLECULE
LIH
   42    45     1     0     0
SMALL
bcc


@<TRIPOS>ATOM
      1 C4A         0.0250    0.0980    0.0160 ca        1 LIH     -0.387600
      2 C4          1.4650    0.3290    0.0810 ca        1 LIH      0.740200
      3 C2          1.5000   -0.4930    2.2790 ca        1 LIH      0.924900
      4 C8A        -0.5940   -0.2450    1.2810 ca        1 LIH      0.723300
      5 C5         -0.7970    0.1740   -1.1450 ca        1 LIH      0.036700
      6 C6         -2.1740    0.1180   -0.9850 ca        1 LIH     -0.276600
      7 C7         -2.7020   -0.0700    0.3300 ca        1 LIH      0.467200
      8 C5A        -0.2290    0.2360   -2.5160 c3        1 LIH     -0.081800
      9 C5'        -3.7980    1.6320   -3.9970 ca        1 LIH      0.165600
     10 C6'        -4.6680    0.6570   -4.4860 ca        1 LIH     -0.209000
     11 C7'        -5.3190    0.8200   -5.7220 ca        1 LIH     -0.083000
     12 C8'        -5.1180    1.9330   -6.4970 ca        1 LIH     -0.209300
     13 C9         -3.1540    0.2010   -2.1150 c3        1 LIH      0.245100
     14 C4'        -2.7570    3.9050   -4.3490 ca        1 LIH     -0.076000
     15 C4X        -3.5870    2.8280   -4.7770 ca        1 LIH     -0.179300
     16 C8X        -4.2440    2.9680   -6.0410 ca        1 LIH      0.423600
     17 C2'        -3.2750    5.0450   -6.4050 ca        1 LIH      0.417200
     18 C3'        -2.5940    5.0080   -5.1490 ca        1 LIH     -0.262300
     19 N3          2.1900    0.0270    1.1790 nb        1 LIH     -0.833000
     20 N1          0.1370   -0.5570    2.4020 nb        1 LIH     -0.766000
     21 N8         -1.9840   -0.2740    1.4130 nb        1 LIH     -0.657000
     22 N1'        -4.0660    4.0830   -6.8410 nb        1 LIH     -0.661000
     23 N10        -3.1910    1.5070   -2.7390 nu        1 LIH     -0.729600
     24 N4          2.1540    0.8710   -0.9970 nv        1 LIH     -0.946500
     25 N2          2.2730   -0.9870    3.3280 nv        1 LIH     -0.928500
     26 H71        -3.8010   -0.0710    0.4800 h4        1 LIH      0.030100
     27 H5A1        0.6940   -0.3910   -2.6000 hc        1 LIH      0.058033
     28 H5A2        0.0060    1.2910   -2.8050 hc        1 LIH      0.058033
     29 H5A3       -0.9520   -0.1630   -3.2710 hc        1 LIH      0.058033
     30 H6'1       -4.8760   -0.2590   -3.9140 ha        1 LIH      0.136000
     31 H7'1       -6.0000    0.0240   -6.0640 ha        1 LIH      0.135000
     32 H8'1       -5.6240    2.0460   -7.4680 ha        1 LIH      0.152000
     33 H91        -2.9180   -0.6140   -2.8650 h1        1 LIH      0.050200
     34 H92        -4.1950   -0.0070   -1.7260 h1        1 LIH      0.050200
     35 H4'1       -2.2560    3.8770   -3.3700 ha        1 LIH      0.131000
     36 H2'1       -3.1550    5.9210   -7.0690 h4        1 LIH      0.022100
     37 H3'1       -1.9670    5.8560   -4.8480 ha        1 LIH      0.143000
     38 H101       -2.3310    2.0080   -2.6480 hn        1 LIH      0.397800
     39 H41         3.1140    1.0990   -0.8620 hn        1 LIH      0.424800
     40 H42         1.6420    1.4870   -1.5810 hn        1 LIH      0.424800
     41 H21         1.8160   -1.1370    4.1970 hn        1 LIH      0.434800
     42 H22         3.2280   -0.7180    3.3590 hn        1 LIH      0.434800
@<TRIPOS>BOND
     1    1    2 ar  
     2    1    4 ar  
     3    1    5 ar  
     4    2   19 ar  
     5    2   24 1   
     6    3   19 ar  
     7    3   20 ar  
     8    3   25 1   
     9    4   20 ar  
    10    4   21 ar  
    11    5    6 ar  
    12    5    8 1   
    13    6    7 ar  
    14    6   13 1   
    15    7   21 ar  
    16    7   26 1   
    17    8   27 1   
    18    8   28 1   
    19    8   29 1   
    20    9   10 ar  
    21    9   15 ar  
    22    9   23 1   
    23   10   11 ar  
    24   10   30 1   
    25   11   12 ar  
    26   11   31 1   
    27   12   16 ar  
    28   12   32 1   
    29   13   23 1   
    30   13   33 1   
    31   13   34 1   
    32   14   15 ar  
    33   14   18 ar  
    34   14   35 1   
    35   15   16 ar  
    36   16   22 ar  
    37   17   18 ar  
    38   17   22 ar  
    39   17   36 1   
    40   18   37 1   
    41   23   38 1   
    42   24   39 1   
    43   24   40 1   
    44   25   41 1   
    45   25   42 1   
@<TRIPOS>SUBSTRUCTURE
     1 LIH         1 TEMP              0 ****  ****    0 ROOT
