@<TRIPOS>MOLECULE
LII
   44    46     1     0     0
SMALL
bcc


@<TRIPOS>ATOM
      1 C4A         0.2460   -0.1870    0.0020 ca        1 LII     -0.374600
      2 C4          1.7020   -0.2350   -0.0830 ca        1 LII      0.731200
      3 C2          1.8490   -0.2930    2.2600 ca        1 LII      0.917900
      4 C8A        -0.2950   -0.3380    1.3370 ca        1 LII      0.715300
      5 C5         -0.6620    0.0030   -1.0800 ca        1 LII      0.028700
      6 C6         -2.0250   -0.1230   -0.8370 ca        1 LII     -0.228100
      7 C7         -2.4590   -0.3740    0.5040 ca        1 LII      0.467200
      8 C5A        -0.2350    0.3920   -2.4470 c3        1 LII     -0.074800
      9 C9         -3.0170   -0.0680   -1.8980 ce        1 LII     -0.110200
     10 C1'        -4.5050    1.7720   -1.0580 ca        1 LII     -0.058800
     11 C2'        -5.8860    2.0190   -0.8410 ca        1 LII      0.101100
     12 C3'        -6.3070    3.0430    0.0090 ca        1 LII     -0.173000
     13 C4'        -5.3660    3.8520    0.6480 ca        1 LII     -0.163000
     14 C5'        -4.0060    3.6250    0.4300 ca        1 LII      0.094100
     15 C6'        -3.5740    2.5870   -0.4160 ca        1 LII     -0.110000
     16 C10        -4.0990    0.7190   -1.9730 cf        1 LII     -0.082200
     17 C2X        -8.1380    1.4070   -1.3230 c3        1 LII      0.113700
     18 C5X        -3.3740    5.3090    1.9870 c3        1 LII      0.113700
     19 N3          2.4860   -0.2620    1.0150 nb        1 LII     -0.832000
     20 N1          0.4990   -0.3580    2.4620 nb        1 LII     -0.764000
     21 N8         -1.6680   -0.4590    1.5520 nb        1 LII     -0.659000
     22 N4          2.3550   -0.2260   -1.3130 nv        1 LII     -0.941500
     23 N16         2.6800   -0.3510    3.3820 nv        1 LII     -0.933500
     24 O2'        -6.7480    1.1790   -1.5240 os        1 LII     -0.328900
     25 O5'        -2.9860    4.3790    0.9840 os        1 LII     -0.323900
     26 H71        -3.5430   -0.4900    0.7050 h4        1 LII      0.034100
     27 H51         0.1200   -0.4990   -3.0240 hc        1 LII      0.056367
     28 H52        -1.0920    0.8340   -3.0190 hc        1 LII      0.056367
     29 H53         0.5660    1.1710   -2.4170 hc        1 LII      0.056367
     30 H91        -2.8380   -0.7980   -2.7100 ha        1 LII      0.126000
     31 H3'1       -7.3760    3.2290    0.1850 ha        1 LII      0.139000
     32 H4'1       -5.7090    4.6560    1.3140 ha        1 LII      0.139000
     33 H6'1       -2.4960    2.4250   -0.5660 ha        1 LII      0.160000
     34 H101       -4.8010    0.5780   -2.8200 ha        1 LII      0.141000
     35 H2A1       -8.4110    1.2600   -0.2500 h1        1 LII      0.044033
     36 H2A2       -8.4250    2.4310   -1.6650 h1        1 LII      0.044033
     37 H2A3       -8.6230    0.6270   -1.9630 h1        1 LII      0.044033
     38 H5'1       -4.0060    6.1190    1.5460 h1        1 LII      0.043367
     39 H5'2       -3.9180    4.7980    2.8180 h1        1 LII      0.043367
     40 H5'3       -2.4000    5.7250    2.3490 h1        1 LII      0.043367
     41 H41         3.3430   -0.3570   -1.3000 hn        1 LII      0.419800
     42 H42         1.8820   -0.6890   -2.0540 hn        1 LII      0.419800
     43 H161        3.6210   -0.0600    3.2650 hn        1 LII      0.431800
     44 H162        2.2580   -0.1770    4.2640 hn        1 LII      0.431800
@<TRIPOS>BOND
     1    1    2 ar  
     2    1    4 ar  
     3    1    5 ar  
     4    2   19 ar  
     5    2   22 1   
     6    3   19 ar  
     7    3   20 ar  
     8    3   23 1   
     9    4   20 ar  
    10    4   21 ar  
    11    5    6 ar  
    12    5    8 1   
    13    6    7 ar  
    14    6    9 1   
    15    7   21 ar  
    16    7   26 1   
    17    8   27 1   
    18    8   28 1   
    19    8   29 1   
    20    9   16 2   
    21    9   30 1   
    22   10   11 ar  
    23   10   15 ar  
    24   10   16 1   
    25   11   12 ar  
    26   11   24 1   
    27   12   13 ar  
    28   12   31 1   
    29   13   14 ar  
    30   13   32 1   
    31   14   15 ar  
    32   14   25 1   
    33   15   33 1   
    34   16   34 1   
    35   17   24 1   
    36   17   35 1   
    37   17   36 1   
    38   17   37 1   
    39   18   25 1   
    40   18   38 1   
    41   18   39 1   
    42   18   40 1   
    43   22   41 1   
    44   22   42 1   
    45   23   43 1   
    46   23   44 1   
@<TRIPOS>SUBSTRUCTURE
     1 LII         1 TEMP              0 ****  ****    0 ROOT
