@<TRIPOS>MOLECULE
LII
   44    46     1     0     0
SMALL
bcc


@<TRIPOS>ATOM
      1 C4A        -2.6580   -0.7880   -0.1090 ca        1 LII     -0.376600
      2 C4         -4.0270   -0.9100    0.3830 ca        1 LII      0.735200
      3 C2         -4.6130    1.0620   -0.7480 ca        1 LII      0.913900
      4 C8A        -2.4550    0.2470   -1.1020 ca        1 LII      0.716300
      5 C5         -1.5410   -1.5750    0.2890 ca        1 LII      0.027700
      6 C6         -0.3480   -1.4430   -0.4130 ca        1 LII     -0.227100
      7 C7         -0.2800   -0.4730   -1.4640 ca        1 LII      0.467200
      8 C5A        -1.5630   -2.4860    1.4610 c3        1 LII     -0.074800
      9 C9          0.8060   -2.2880   -0.1560 ce        1 LII     -0.110200
     10 C1'         2.5810   -0.5560    0.2370 ca        1 LII     -0.059800
     11 C2'         3.8940   -0.2510   -0.2080 ca        1 LII      0.101100
     12 C3'         4.4260    1.0300   -0.0480 ca        1 LII     -0.174000
     13 C4'         3.6710    2.0280    0.5700 ca        1 LII     -0.163000
     14 C5'         2.3840    1.7320    1.0230 ca        1 LII      0.094100
     15 C6'         1.8370    0.4470    0.8540 ca        1 LII     -0.110000
     16 C10         2.0680   -1.9070    0.0860 cf        1 LII     -0.081200
     17 C2X         5.8960   -1.0220   -1.2450 c3        1 LII      0.113700
     18 C5X         1.9850    3.9850    1.6740 c3        1 LII      0.113700
     19 N3         -4.9810   -0.0030    0.0810 nb        1 LII     -0.833000
     20 N1         -3.4230    1.1770   -1.4100 nb        1 LII     -0.764000
     21 N8         -1.2500    0.3510   -1.7980 nb        1 LII     -0.659000
     22 N4         -4.4050   -1.9710    1.1980 nh        1 LII     -0.944500
     23 N16        -5.5450    2.0950   -0.8920 nh        1 LII     -0.924500
     24 O2'         4.5750   -1.3020   -0.7980 os        1 LII     -0.328900
     25 O5'         1.5580    2.6290    1.6780 os        1 LII     -0.322900
     26 H71         0.6600   -0.3750   -2.0440 h4        1 LII      0.034100
     27 H51        -2.0010   -3.4780    1.1880 hc        1 LII      0.056367
     28 H52        -0.5220   -2.6740    1.8320 hc        1 LII      0.056367
     29 H53        -2.1330   -2.0390    2.3130 hc        1 LII      0.056367
     30 H91         0.5810   -3.3710   -0.2000 ha        1 LII      0.126000
     31 H3'1        5.4380    1.2700   -0.4020 ha        1 LII      0.138000
     32 H4'1        4.1010    3.0320    0.6920 ha        1 LII      0.139000
     33 H6'1        0.8170    0.2410    1.2150 ha        1 LII      0.161000
     34 H101        2.8490   -2.6880    0.1820 ha        1 LII      0.141000
     35 H2A1        5.8870   -0.2330   -2.0360 h1        1 LII      0.044033
     36 H2A2        6.5470   -0.7140   -0.3920 h1        1 LII      0.044033
     37 H2A3        6.2390   -2.0000   -1.6700 h1        1 LII      0.044033
     38 H5'1        2.1510    4.3490    0.6310 h1        1 LII      0.043700
     39 H5'2        1.1310    4.5290    2.1520 h1        1 LII      0.043700
     40 H5'3        2.9150    4.1040    2.2820 h1        1 LII      0.043700
     41 H41        -3.9250   -2.8260    1.0510 hn        1 LII      0.422300
     42 H42        -5.3730   -2.0550    1.4180 hn        1 LII      0.422300
     43 H161       -5.4100    2.7110   -1.6600 hn        1 LII      0.428300
     44 H162       -6.4860    1.8850   -0.6520 hn        1 LII      0.428300
@<TRIPOS>BOND
     1    1    2 ar  
     2    1    4 ar  
     3    1    5 ar  
     4    2   19 ar  
     5    2   22 1   
     6    3   19 ar  
     7    3   20 ar  
     8    3   23 1   
     9    4   20 ar  
    10    4   21 ar  
    11    5    6 ar  
    12    5    8 1   
    13    6    7 ar  
    14    6    9 1   
    15    7   21 ar  
    16    7   26 1   
    17    8   27 1   
    18    8   28 1   
    19    8   29 1   
    20    9   16 2   
    21    9   30 1   
    22   10   11 ar  
    23   10   15 ar  
    24   10   16 1   
    25   11   12 ar  
    26   11   24 1   
    27   12   13 ar  
    28   12   31 1   
    29   13   14 ar  
    30   13   32 1   
    31   14   15 ar  
    32   14   25 1   
    33   15   33 1   
    34   16   34 1   
    35   17   24 1   
    36   17   35 1   
    37   17   36 1   
    38   17   37 1   
    39   18   25 1   
    40   18   38 1   
    41   18   39 1   
    42   18   40 1   
    43   22   41 1   
    44   22   42 1   
    45   23   43 1   
    46   23   44 1   
@<TRIPOS>SUBSTRUCTURE
     1 LII         1 TEMP              0 ****  ****    0 ROOT
