@<TRIPOS>MOLECULE
LII
   46    48     1     0     0
SMALL
bcc


@<TRIPOS>ATOM
      1 C4A         0.4280   -0.1720   -0.0260 ca        1 LII     -0.172600
      2 C4          1.8080   -0.5670   -0.1140 ca        1 LII      0.490200
      3 C2          2.0560   -0.4980    2.1770 ca        1 LII      0.668900
      4 C8A        -0.0660   -0.0530    1.3580 ca        1 LII      0.652300
      5 C5         -0.4660    0.0890   -1.0870 ca        1 LII     -0.155300
      6 C6         -1.8330    0.2810   -0.7990 ca        1 LII      0.019900
      7 C7         -2.2210    0.3440    0.6020 ca        1 LII      0.464200
      8 C5A        -0.0240    0.2470   -2.4950 c3        1 LII     -0.083800
      9 C9         -2.8280    0.3120   -1.8110 ce        1 LII     -0.261200
     10 C1'        -4.5990    1.8690   -0.8910 ca        1 LII     -0.165800
     11 C2'        -6.0100    2.0140   -0.7830 ca        1 LII      0.178100
     12 C3'        -6.5660    3.0040    0.0460 ca        1 LII     -0.176000
     13 C4'        -5.7430    3.8650    0.7530 ca        1 LII     -0.088000
     14 C5'        -4.3430    3.7460    0.6400 ca        1 LII      0.096100
     15 C6'        -3.7800    2.7630   -0.1740 ca        1 LII     -0.121000
     16 C10        -4.0620    0.8960   -1.7950 cf        1 LII      0.114800
     17 C2X        -8.1710    1.2630   -1.4750 c3        1 LII      0.107700
     18 C5X        -3.9740    5.6680    2.0020 c3        1 LII      0.107700
     19 N3          2.6270   -0.7170    0.9470 nb        1 LII     -0.664000
     20 N1          0.7550   -0.1970    2.4370 nb        1 LII     -0.560000
     21 N8         -1.4150    0.2050    1.6210 nb        1 LII     -0.582000
     22 N4          2.4200   -0.8830   -1.4210 n4        1 LII     -0.823300
     23 N16         2.9510   -0.6240    3.3620 n4        1 LII     -0.803300
     24 O2'        -6.7470    1.1170   -1.5100 os        1 LII     -0.328900
     25 O5'        -3.4350    4.5450    1.3040 os        1 LII     -0.330900
     26 H71        -3.2940    0.5250    0.8550 h4        1 LII      0.092100
     27 H51         0.1180   -0.7390   -3.0040 hc        1 LII      0.066033
     28 H52        -0.7980    0.8050   -3.0910 hc        1 LII      0.066033
     29 H53         0.9000    0.8740   -2.5680 hc        1 LII      0.066033
     30 H91        -2.5760   -0.2630   -2.7270 ha        1 LII      0.161000
     31 H3'1       -7.6600    3.1060    0.1320 ha        1 LII      0.170000
     32 H4'1       -6.1890    4.6440    1.3930 ha        1 LII      0.169000
     33 H6'1       -2.6860    2.7190   -0.2850 ha        1 LII      0.141000
     34 H101       -4.7550    0.6130   -2.6220 ha        1 LII      0.177000
     35 H2A1       -8.4700    2.2690   -1.8560 h1        1 LII      0.067367
     36 H2A2       -8.5210    0.4530   -2.1650 h1        1 LII      0.067367
     37 H2A3       -8.5510    1.0940   -0.4390 h1        1 LII      0.067367
     38 H5'1       -4.6060    5.3260    2.8580 h1        1 LII      0.059700
     39 H5'2       -4.5570    6.3220    1.3110 h1        1 LII      0.059700
     40 H5'3       -3.0600    6.1980    2.3740 h1        1 LII      0.059700
     41 H41         2.6200   -0.0050   -1.9220 hn        1 LII      0.485467
     42 H42         1.7500   -1.4430   -1.9680 hn        1 LII      0.485467
     43 H161        3.6870    0.0930    3.3110 hn        1 LII      0.491800
     44 H162        2.4020   -0.4900    4.2280 hn        1 LII      0.491800
     45 H43         3.2980   -1.4130   -1.3100 hn        1 LII      0.485467
     46 H163        3.3800   -1.5600    3.3720 hn        1 LII      0.491800
@<TRIPOS>BOND
     1    1    2 ar  
     2    1    4 ar  
     3    1    5 ar  
     4    2   19 ar  
     5    2   22 1   
     6    3   19 ar  
     7    3   20 ar  
     8    3   23 1   
     9    4   20 ar  
    10    4   21 ar  
    11    5    6 ar  
    12    5    8 1   
    13    6    7 ar  
    14    6    9 1   
    15    7   21 ar  
    16    7   26 1   
    17    8   27 1   
    18    8   28 1   
    19    8   29 1   
    20    9   16 2   
    21    9   30 1   
    22   10   11 ar  
    23   10   15 ar  
    24   10   16 1   
    25   11   12 ar  
    26   11   24 1   
    27   12   13 ar  
    28   12   31 1   
    29   13   14 ar  
    30   13   32 1   
    31   14   15 ar  
    32   14   25 1   
    33   15   33 1   
    34   16   34 1   
    35   17   24 1   
    36   17   35 1   
    37   17   36 1   
    38   17   37 1   
    39   18   25 1   
    40   18   38 1   
    41   18   39 1   
    42   18   40 1   
    43   22   41 1   
    44   22   42 1   
    45   22   45 1   
    46   23   43 1   
    47   23   44 1   
    48   23   46 1   
@<TRIPOS>SUBSTRUCTURE
     1 LII         1 TEMP              0 ****  ****    0 ROOT
