@<TRIPOS>MOLECULE
LII
   44    38     1     0     0
SMALL
bcc


@<TRIPOS>ATOM
      1 C4A         2.4290   -1.2430    0.5450 cg        1 LII     -0.245000
      2 C4          3.8010   -0.9570    0.5470 c1        1 LII      0.586100
      3 C2          3.8110   -1.1850    2.8750 c1        1 LII      0.586100
      4 C8A         1.7860   -1.4920    1.7080 cg        1 LII      0.449800
      5 C5          1.7260   -1.2360   -0.6620 c1        1 LII      0.062900
      6 C6          0.4000   -1.4770   -0.6750 cg        1 LII     -0.128800
      7 C7         -0.2850   -1.7400    0.5400 c1        1 LII      0.002500
      8 C5A         2.2600   -1.4340   -2.1480 c3        1 LII     -0.108000
      9 C9         -0.4860   -1.5870   -1.9230 ce        1 LII     -0.074700
     10 C1'        -1.8510    0.2960   -0.9730 ch        1 LII     -0.128800
     11 C2'        -2.9270    0.0580   -0.1100 c1        1 LII      0.080100
     12 C3'        -3.3030    1.0160    0.8010 c1        1 LII     -0.110500
     13 C4'        -2.6220    2.2130    0.8650 c1        1 LII     -0.110500
     14 C5'        -1.5480    2.4530    0.0040 c1        1 LII      0.080100
     15 C6'        -1.1690    1.4910   -0.9110 c1        1 LII      0.002500
     16 C10        -1.5080   -0.7470   -2.0890 cf        1 LII     -0.074700
     17 C2X        -5.0900   -0.9370   -0.4480 c3        1 LII      0.114200
     18 C5X        -1.4960    4.7760   -0.3090 c3        1 LII      0.114200
     19 N3          4.4650   -0.9300    1.6770 n1        1 LII     -0.598300
     20 N1          2.4770   -1.4640    2.8790 n1        1 LII     -0.598300
     21 N8          0.3910   -1.7470    1.7010 n1        1 LII     -0.458800
     22 N4          4.4910   -0.7980   -0.6850 n3        1 LII     -0.796400
     23 N16         4.6170   -0.9380    4.0040 n3        1 LII     -0.796400
     24 O2'        -3.6710   -1.1440   -0.2190 os        1 LII     -0.312400
     25 O5'        -0.8120    3.6120    0.1270 os        1 LII     -0.312400
     26 H71        -1.2900   -1.9230    0.5310 ha        1 LII      0.104000
     27 H51         2.6900   -2.2870   -2.2220 hc        1 LII      0.056033
     28 H52         2.9250   -0.7010   -2.3700 hc        1 LII      0.056033
     29 H53         1.4660   -1.3910   -2.8060 hc        1 LII      0.056033
     30 H91        -0.2580   -2.2830   -2.6640 ha        1 LII      0.136500
     31 H3'1       -4.1130    0.8350    1.4500 ha        1 LII      0.081500
     32 H4'1       -2.8840    2.8790    1.4990 ha        1 LII      0.081500
     33 H6'1       -0.4440    1.6530   -1.4920 ha        1 LII      0.104000
     34 H101       -2.1000   -0.8190   -2.9210 ha        1 LII      0.136500
     35 H2A1       -5.2120   -0.1960   -1.0460 h1        1 LII      0.043867
     36 H2A2       -5.4800   -1.7460   -0.8460 h1        1 LII      0.043867
     37 H2A3       -5.5480   -0.7390    0.4300 h1        1 LII      0.043867
     38 H5'1       -1.5880    4.7570   -1.3180 h1        1 LII      0.043867
     39 H5'2       -0.9790    5.5870   -0.0380 h1        1 LII      0.043867
     40 H5'3       -2.3840    4.8030    0.0990 h1        1 LII      0.043867
     41 H41         4.9470   -1.5650   -1.0910 hn        1 LII      0.425050
     42 H42         4.5940    0.0590   -1.0570 hn        1 LII      0.425050
     43 H161        5.5130   -0.8050    3.9020 hn        1 LII      0.425050
     44 H162        4.2560   -0.9780    4.8370 hn        1 LII      0.425050
@<TRIPOS>BOND
     1    1    4 1   
     2    1    5 3   
     3    2   19 3   
     4    2   22 1   
     5    3   20 3   
     6    3   23 1   
     7    4   21 3   
     8    5    8 1   
     9    6    7 3   
    10    6    9 1   
    11    7   26 1   
    12    8   27 1   
    13    8   28 1   
    14    8   29 1   
    15    9   16 2   
    16    9   30 1   
    17   10   15 3   
    18   10   16 1   
    19   11   12 3   
    20   11   24 1   
    21   12   31 1   
    22   13   14 3   
    23   13   32 1   
    24   14   25 1   
    25   15   33 1   
    26   16   34 1   
    27   17   24 1   
    28   17   35 1   
    29   17   36 1   
    30   17   37 1   
    31   18   25 1   
    32   18   38 1   
    33   18   39 1   
    34   18   40 1   
    35   22   41 1   
    36   22   42 1   
    37   23   43 1   
    38   23   44 1   
@<TRIPOS>SUBSTRUCTURE
     1 LII         1 TEMP              0 ****  ****    0 ROOT
