@<TRIPOS>MOLECULE
LII
   44    46     1     0     0
SMALL
bcc


@<TRIPOS>ATOM
      1 C4A         0.2550   -0.1760   -0.0040 ca        1 LII     -0.376600
      2 C4          1.7080   -0.2730   -0.0890 ca        1 LII      0.735200
      3 C2          1.8530   -0.1970    2.2530 ca        1 LII      0.913900
      4 C8A        -0.2900   -0.2910    1.3330 ca        1 LII      0.716300
      5 C5         -0.6460    0.0150   -1.0900 ca        1 LII      0.027700
      6 C6         -2.0120   -0.0950   -0.8500 ca        1 LII     -0.227100
      7 C7         -2.4510   -0.3320    0.4920 ca        1 LII      0.467200
      8 C5A        -0.2070    0.3930   -2.4570 c3        1 LII     -0.074800
      9 C9         -2.9980   -0.0330   -1.9160 ce        1 LII     -0.110200
     10 C1'        -4.5040    1.7850   -1.0620 ca        1 LII     -0.059800
     11 C2'        -5.8880    2.0130   -0.8410 ca        1 LII      0.101100
     12 C3'        -6.3200    3.0230    0.0190 ca        1 LII     -0.174000
     13 C4'        -5.3880    3.8380    0.6640 ca        1 LII     -0.163000
     14 C5'        -4.0260    3.6310    0.4420 ca        1 LII      0.094100
     15 C6'        -3.5830    2.6060   -0.4140 ca        1 LII     -0.110000
     16 C10        -4.0860    0.7460   -1.9880 cf        1 LII     -0.081200
     17 C2X        -8.1320    1.3800   -1.3300 c3        1 LII      0.113700
     18 C5X        -3.4090    5.2920    2.0290 c3        1 LII      0.113700
     19 N3          2.4910   -0.2740    1.0110 nb        1 LII     -0.833000
     20 N1          0.5050   -0.2880    2.4580 nb        1 LII     -0.764000
     21 N8         -1.6640   -0.4090    1.5430 nb        1 LII     -0.659000
     22 N4          2.3520   -0.3600   -1.3180 nh        1 LII     -0.944500
     23 N16         2.6730    0.0010    3.3680 nh        1 LII     -0.924500
     24 O2'        -6.7400    1.1670   -1.5290 os        1 LII     -0.328900
     25 O5'        -3.0150    4.3950    0.9980 os        1 LII     -0.322900
     26 H71        -3.5360   -0.4420    0.6900 h4        1 LII      0.034100
     27 H51        -1.0460    0.8780   -3.0200 hc        1 LII      0.056367
     28 H52         0.1020   -0.5110   -3.0400 hc        1 LII      0.056367
     29 H53         0.6320    1.1310   -2.4250 hc        1 LII      0.056367
     30 H91        -2.8080   -0.7510   -2.7370 ha        1 LII      0.126000
     31 H3'1       -7.3910    3.1930    0.1990 ha        1 LII      0.138000
     32 H4'1       -5.7400    4.6320    1.3380 ha        1 LII      0.139000
     33 H6'1       -2.5020    2.4590   -0.5680 ha        1 LII      0.161000
     34 H101       -4.7820    0.6100   -2.8390 ha        1 LII      0.141000
     35 H2A1       -8.4280    2.4040   -1.6630 h1        1 LII      0.044033
     36 H2A2       -8.6090    0.6010   -1.9780 h1        1 LII      0.044033
     37 H2A3       -8.4070    1.2220   -0.2590 h1        1 LII      0.044033
     38 H5'1       -3.9390    4.7500    2.8490 h1        1 LII      0.043700
     39 H5'2       -2.4370    5.7110    2.3950 h1        1 LII      0.043700
     40 H5'3       -4.0550    6.1040    1.6140 h1        1 LII      0.043700
     41 H41         1.8500   -0.8160   -2.0420 hn        1 LII      0.422300
     42 H42         3.3340   -0.5260   -1.3080 hn        1 LII      0.422300
     43 H161        2.2720   -0.2000    4.2550 hn        1 LII      0.428300
     44 H162        3.6360   -0.2130    3.2590 hn        1 LII      0.428300
@<TRIPOS>BOND
     1    1    2 ar  
     2    1    4 ar  
     3    1    5 ar  
     4    2   19 ar  
     5    2   22 1   
     6    3   19 ar  
     7    3   20 ar  
     8    3   23 1   
     9    4   20 ar  
    10    4   21 ar  
    11    5    6 ar  
    12    5    8 1   
    13    6    7 ar  
    14    6    9 1   
    15    7   21 ar  
    16    7   26 1   
    17    8   27 1   
    18    8   28 1   
    19    8   29 1   
    20    9   16 2   
    21    9   30 1   
    22   10   11 ar  
    23   10   15 ar  
    24   10   16 1   
    25   11   12 ar  
    26   11   24 1   
    27   12   13 ar  
    28   12   31 1   
    29   13   14 ar  
    30   13   32 1   
    31   14   15 ar  
    32   14   25 1   
    33   15   33 1   
    34   16   34 1   
    35   17   24 1   
    36   17   35 1   
    37   17   36 1   
    38   17   37 1   
    39   18   25 1   
    40   18   38 1   
    41   18   39 1   
    42   18   40 1   
    43   22   41 1   
    44   22   42 1   
    45   23   43 1   
    46   23   44 1   
@<TRIPOS>SUBSTRUCTURE
     1 LII         1 TEMP              0 ****  ****    0 ROOT
