@<TRIPOS>MOLECULE
LIJ
   99   101     1     0     0
SMALL
bcc


@<TRIPOS>ATOM
      1 C4          3.0710    3.2360    5.1130 c3        1 LIJ     -0.098600
      2 C5          4.0170    2.5440    4.1640 c3        1 LIJ     -0.096900
      3 C6          4.5840    1.2870    4.7940 c3        1 LIJ     -0.061900
      4 C7          5.5950    0.5810    3.8880 c3        1 LIJ     -0.288900
      5 C10         4.0100   -2.9250    2.4350 c3        1 LIJ      0.130500
      6 N12         1.7720   -4.0880    2.9210 n4        1 LIJ     -0.669800
      7 C13         1.0070   -5.0380    3.8180 c3        1 LIJ      0.120500
      8 C15        -0.5330   -3.0940    4.2600 ca        1 LIJ     -0.199300
      9 C17        -0.6080   -1.2880    5.8730 ca        1 LIJ     -0.106000
     10 C20        -0.8230   -2.1800    3.2350 ca        1 LIJ     -0.135000
     11 C21         1.0990   -6.5010    3.2890 c3        1 LIJ      0.104100
     12 C22         0.0070   -7.3700    3.9480 c3        1 LIJ      0.091800
     13 C24        -1.1090   -9.5890    4.0870 c3        1 LIJ      0.190100
     14 C26        -1.4830  -11.2360    2.2620 ca        1 LIJ     -0.163000
     15 C28        -1.1090  -13.6180    2.6340 ca        1 LIJ     -0.141000
     16 C1          8.7980   -1.3560    4.8500 c3        1 LIJ     -0.098600
     17 C2          7.7950   -0.6830    3.9480 c3        1 LIJ     -0.096900
     18 C3          6.6450   -0.1100    4.7490 c3        1 LIJ     -0.061900
     19 S8          4.8400   -0.3580    2.7150 s6        1 LIJ      1.277000
     20 O8B         5.6690   -0.7620    1.6460 o         1 LIJ     -0.643300
     21 O8A         3.5460    0.0190    2.3490 o         1 LIJ     -0.643300
     22 C9          4.5340   -1.9620    3.4860 c3        1 LIJ     -0.311600
     23 C11         3.2480   -4.0700    3.1270 c         1 LIJ      0.536100
     24 O11         3.7720   -4.9390    3.8090 o         1 LIJ     -0.401100
     25 C14        -0.4460   -4.5470    3.9560 c3        1 LIJ     -0.051100
     26 C16        -0.4290   -2.6400    5.5810 ca        1 LIJ     -0.135000
     27 C18        -0.8960   -0.3820    4.8500 ca        1 LIJ     -0.079000
     28 C19        -1.0010   -0.8300    3.5310 ca        1 LIJ     -0.106000
     29 O21         0.8640   -6.5190    1.8920 oh        1 LIJ     -0.601800
     30 N23         0.0380   -8.7850    3.5010 n4        1 LIJ     -0.772000
     31 C25        -1.0620  -10.9820    3.5710 ca        1 LIJ     -0.177300
     32 C27        -1.5010  -12.5610    1.7920 ca        1 LIJ      0.155100
     33 O27        -1.9040  -12.7040    0.4900 os        1 LIJ     -0.320900
     34 C29        -0.6950  -13.3410    3.9330 ca        1 LIJ     -0.074000
     35 C30        -0.6590  -12.0280    4.4070 ca        1 LIJ     -0.128000
     36 C31        -2.1020  -14.0410    0.0200 c3        1 LIJ      0.104700
     37 N40         5.1080   -3.4860    1.5740 n4        1 LIJ     -0.670800
     38 C41         4.5690   -4.4530    0.5430 c         1 LIJ      0.660100
     39 O42         3.4970   -5.0290    0.7710 o         1 LIJ     -0.588000
     40 O43         5.3560   -4.5450   -0.4960 os        1 LIJ     -0.375900
     41 C44         4.9440   -5.4600   -1.6510 c3        1 LIJ      0.254700
     42 C45         5.9530   -5.1840   -2.6750 ca        1 LIJ     -0.191300
     43 C46         5.7190   -4.1960   -3.6490 ca        1 LIJ     -0.068000
     44 C47         6.6510   -3.9820   -4.6590 ca        1 LIJ     -0.128500
     45 C48         7.8260   -4.7380   -4.7020 ca        1 LIJ     -0.040000
     46 C49         8.0690   -5.7130   -3.7290 ca        1 LIJ     -0.128500
     47 C50         7.1420   -5.9340   -2.7160 ca        1 LIJ     -0.068000
     48 H41         3.5970    3.5370    6.0520 hc        1 LIJ      0.053533
     49 H42         2.6580    4.1570    4.6330 hc        1 LIJ      0.053533
     50 H43         2.2190    2.5670    5.3830 hc        1 LIJ      0.053533
     51 H51         3.4760    2.2880    3.2140 hc        1 LIJ      0.050200
     52 H52         4.8540    3.2440    3.9010 hc        1 LIJ      0.050200
     53 H61         3.7540    0.5730    5.0450 hc        1 LIJ      0.069950
     54 H62         5.0830    1.5650    5.7630 hc        1 LIJ      0.069950
     55 H7          6.1650    1.4080    3.3430 h1        1 LIJ      0.178700
     56 H10         3.3170   -2.3540    1.7300 hx        1 LIJ      0.152700
     57 HN12        1.3860   -3.1310    3.0740 hn        1 LIJ      0.498800
     58 H13         1.5060   -5.0040    4.8340 hx        1 LIJ      0.125700
     59 H17        -0.5500   -0.9400    6.9180 ha        1 LIJ      0.172000
     60 H20        -0.9750   -2.5330    2.2030 ha        1 LIJ      0.138000
     61 H21         2.1230   -6.9010    3.5420 h1        1 LIJ      0.084700
     62 H221       -1.0130   -6.9650    3.6740 hx        1 LIJ      0.127200
     63 H222        0.1320   -7.3400    5.0690 hx        1 LIJ      0.127200
     64 H241       -2.0670   -9.0780    3.7800 hx        1 LIJ      0.112200
     65 H242       -1.0080   -9.5580    5.2090 hx        1 LIJ      0.112200
     66 H11         9.6430   -1.7680    4.2450 hc        1 LIJ      0.053533
     67 H12         9.2220   -0.6250    5.5830 hc        1 LIJ      0.053533
     68 H13A        8.3270   -2.1910    5.4210 hc        1 LIJ      0.053533
     69 H21A        8.3030    0.1390    3.3730 hc        1 LIJ      0.050200
     70 H22         7.4100   -1.4210    3.1920 hc        1 LIJ      0.050200
     71 H31         7.0650    0.6480    5.4710 hc        1 LIJ      0.069950
     72 H32         6.1590   -0.9030    5.3770 hc        1 LIJ      0.069950
     73 H91         5.4520   -2.3550    3.9950 h1        1 LIJ      0.144200
     74 H92         3.7670   -1.8330    4.2930 h1        1 LIJ      0.144200
     75 H141       -1.0130   -4.7850    3.0150 hc        1 LIJ      0.096200
     76 H142       -0.9110   -5.1240    4.8040 hc        1 LIJ      0.096200
     77 H16        -0.2390   -3.3530    6.3990 ha        1 LIJ      0.138000
     78 H18        -1.0640    0.6830    5.0860 ha        1 LIJ      0.176000
     79 H19        -1.2500   -0.1170    2.7260 ha        1 LIJ      0.172000
     80 HO21        1.6930   -6.7330    1.4370 ho        1 LIJ      0.448000
     81 HN23       -0.0340   -8.8230    2.4730 hn        1 LIJ      0.456800
     82 H29        -0.3970  -14.1700    4.5990 ha        1 LIJ      0.173000
     83 H30        -0.3430  -11.8320    5.4430 ha        1 LIJ      0.145000
     84 H311       -1.1290  -14.5880   -0.0060 h1        1 LIJ      0.068033
     85 H312       -2.8480  -14.5750    0.6560 h1        1 LIJ      0.068033
     86 H313       -2.5000  -13.8860   -1.0160 h1        1 LIJ      0.068033
     87 HN40        5.8080   -3.9700    2.1540 hn        1 LIJ      0.517300
     88 H441        3.9050   -5.1490   -1.9210 h1        1 LIJ      0.084200
     89 H442        4.9860   -6.4910   -1.2210 h1        1 LIJ      0.084200
     90 H46         4.7920   -3.6030   -3.6230 ha        1 LIJ      0.138000
     91 H47         6.4620   -3.2180   -5.4310 ha        1 LIJ      0.170000
     92 H48         8.5620   -4.5680   -5.5070 ha        1 LIJ      0.174000
     93 H49         8.9950   -6.3100   -3.7690 ha        1 LIJ      0.170000
     94 H50         7.3340   -6.7060   -1.9560 ha        1 LIJ      0.138000
     95 H26        -1.8380  -10.4320    1.6010 ha        1 LIJ      0.146000
     96 H122        1.5910   -4.3590    1.9350 hn        1 LIJ      0.498800
     97 H232        0.9210   -9.2320    3.7720 hn        1 LIJ      0.456800
     98 H402        5.5980   -2.6890    1.0870 hn        1 LIJ      0.517300
     99 H28        -1.1400  -14.6610    2.2760 ha        1 LIJ      0.177000
@<TRIPOS>BOND
     1    1    2 1   
     2    1   48 1   
     3    1   49 1   
     4    1   50 1   
     5    2    3 1   
     6    2   51 1   
     7    2   52 1   
     8    3    4 1   
     9    3   53 1   
    10    3   54 1   
    11    4   18 1   
    12    4   19 1   
    13    4   55 1   
    14    5   22 1   
    15    5   23 1   
    16    5   37 1   
    17    5   56 1   
    18    6    7 1   
    19    6   23 1   
    20    6   57 1   
    21    6   96 1   
    22    7   11 1   
    23    7   25 1   
    24    7   58 1   
    25    8   10 ar  
    26    8   25 1   
    27    8   26 ar  
    28    9   26 ar  
    29    9   27 ar  
    30    9   59 1   
    31   10   28 ar  
    32   10   60 1   
    33   11   12 1   
    34   11   29 1   
    35   11   61 1   
    36   12   30 1   
    37   12   62 1   
    38   12   63 1   
    39   13   30 1   
    40   13   31 1   
    41   13   64 1   
    42   13   65 1   
    43   14   31 ar  
    44   14   32 ar  
    45   14   95 1   
    46   15   32 ar  
    47   15   34 ar  
    48   15   99 1   
    49   16   17 1   
    50   16   66 1   
    51   16   67 1   
    52   16   68 1   
    53   17   18 1   
    54   17   69 1   
    55   17   70 1   
    56   18   71 1   
    57   18   72 1   
    58   19   20 2   
    59   19   21 2   
    60   19   22 1   
    61   22   73 1   
    62   22   74 1   
    63   23   24 2   
    64   25   75 1   
    65   25   76 1   
    66   26   77 1   
    67   27   28 ar  
    68   27   78 1   
    69   28   79 1   
    70   29   80 1   
    71   30   81 1   
    72   30   97 1   
    73   31   35 ar  
    74   32   33 1   
    75   33   36 1   
    76   34   35 ar  
    77   34   82 1   
    78   35   83 1   
    79   36   84 1   
    80   36   85 1   
    81   36   86 1   
    82   37   38 1   
    83   37   87 1   
    84   37   98 1   
    85   38   39 2   
    86   38   40 1   
    87   40   41 1   
    88   41   42 1   
    89   41   88 1   
    90   41   89 1   
    91   42   43 ar  
    92   42   47 ar  
    93   43   44 ar  
    94   43   90 1   
    95   44   45 ar  
    96   44   91 1   
    97   45   46 ar  
    98   45   92 1   
    99   46   47 ar  
   100   46   93 1   
   101   47   94 1   
@<TRIPOS>SUBSTRUCTURE
     1 LIJ         1 TEMP              0 ****  ****    0 ROOT
