@<TRIPOS>MOLECULE
LIJ
   99   101     1     0     0
SMALL
bcc


@<TRIPOS>ATOM
      1 C4          3.2110    3.2860    5.2510 c3        1 LIJ     -0.098600
      2 C5          4.1330    2.6090    4.2690 c3        1 LIJ     -0.096900
      3 C6          4.7030    1.3340    4.8580 c3        1 LIJ     -0.061900
      4 C7          5.6910    0.6410    3.9170 c3        1 LIJ     -0.288900
      5 C10         4.0510   -2.8180    2.4160 c3        1 LIJ      0.130500
      6 N12         1.8130   -3.9730    2.9160 ny        1 LIJ     -0.669800
      7 C13         1.0560   -4.9390    3.8040 c3        1 LIJ      0.120500
      8 C15        -0.4580   -2.9940    4.3250 ca        1 LIJ     -0.199300
      9 C17        -0.4860   -1.2290    5.9840 ca        1 LIJ     -0.106000
     10 C20        -0.7590   -2.0520    3.3290 ca        1 LIJ     -0.135000
     11 C21         1.1250   -6.3880    3.2370 c3        1 LIJ      0.104100
     12 C22         0.0370   -7.2650    3.8950 c3        1 LIJ      0.091800
     13 C24        -1.0950   -9.4780    3.9980 c3        1 LIJ      0.190100
     14 C26        -1.5230  -11.0700    2.1370 ca        1 LIJ     -0.163000
     15 C28        -1.1650  -13.4650    2.4370 ca        1 LIJ     -0.141000
     16 C1          8.8970   -1.3390    4.7730 c3        1 LIJ     -0.098600
     17 C2          7.8820   -0.6400    3.9050 c3        1 LIJ     -0.096900
     18 C3          6.7520   -0.0770    4.7420 c3        1 LIJ     -0.061900
     19 S8          4.9070   -0.2640    2.7370 s6        1 LIJ      1.277000
     20 O8B         5.7120   -0.6510    1.6450 o         1 LIJ     -0.643300
     21 O8A         3.6090    0.1300    2.4050 o         1 LIJ     -0.643300
     22 C9          4.6020   -1.8830    3.4780 c3        1 LIJ     -0.311600
     23 C11         3.2920   -3.9720    3.0950 c         1 LIJ      0.536100
     24 O11         3.8210   -4.8610    3.7470 o         1 LIJ     -0.400100
     25 C14        -0.3900   -4.4390    3.9830 c3        1 LIJ     -0.051100
     26 C16        -0.3240   -2.5750    5.6540 ca        1 LIJ     -0.135000
     27 C18        -0.7850   -0.2950    4.9900 ca        1 LIJ     -0.079000
     28 C19        -0.9190   -0.7080    3.6620 ca        1 LIJ     -0.106000
     29 O21         0.8640   -6.3700    1.8440 oh        1 LIJ     -0.601800
     30 N23         0.0470   -8.6680    3.4100 ny        1 LIJ     -0.772000
     31 C25        -1.0730  -10.8560    3.4440 ca        1 LIJ     -0.177300
     32 C27        -1.5630  -12.3820    1.6320 ca        1 LIJ      0.155100
     33 O27        -1.9940  -12.4850    0.3350 os        1 LIJ     -0.320900
     34 C29        -0.7220  -13.2280    3.7350 ca        1 LIJ     -0.074000
     35 C30        -0.6630  -11.9280    4.2430 ca        1 LIJ     -0.128000
     36 C31        -2.2140  -13.8070   -0.1670 c3        1 LIJ      0.104700
     37 N40         5.1280   -3.3670    1.5220 ny        1 LIJ     -0.670800
     38 C41         4.5620   -4.3060    0.4790 c         1 LIJ      0.660100
     39 O42         3.4900   -4.8790    0.7140 o         1 LIJ     -0.588000
     40 O43         5.3300   -4.3820   -0.5760 os        1 LIJ     -0.375900
     41 C44         4.8890   -5.2670   -1.7440 c3        1 LIJ      0.254700
     42 C45         5.8840   -4.9790   -2.7780 ca        1 LIJ     -0.191300
     43 C46         5.6460   -3.9680   -3.7260 ca        1 LIJ     -0.068000
     44 C47         6.5640   -3.7410   -4.7460 ca        1 LIJ     -0.128500
     45 C48         7.7290   -4.5100   -4.8250 ca        1 LIJ     -0.040000
     46 C49         7.9760   -5.5080   -3.8780 ca        1 LIJ     -0.128500
     47 C50         7.0630   -5.7410   -2.8550 ca        1 LIJ     -0.068000
     48 H41         2.3590    2.6170    5.5220 hc        1 LIJ      0.053533
     49 H42         2.7960    4.2210    4.8000 hc        1 LIJ      0.053533
     50 H43         3.7570    3.5610    6.1860 hc        1 LIJ      0.053533
     51 H51         3.5720    2.3790    3.3240 hc        1 LIJ      0.049950
     52 H52         4.9710    3.3100    4.0060 hc        1 LIJ      0.049950
     53 H61         3.8730    0.6210    5.1090 hc        1 LIJ      0.069950
     54 H62         5.2220    1.5860    5.8230 hc        1 LIJ      0.069950
     55 H7          6.2570    1.4770    3.3810 h1        1 LIJ      0.178700
     56 H10         3.3500   -2.2260    1.7360 hx        1 LIJ      0.152700
     57 HN12        1.4370   -3.0170    3.1000 hn        1 LIJ      0.498800
     58 H13         1.5740   -4.9350    4.8110 hx        1 LIJ      0.125700
     59 H17        -0.4050   -0.9080    7.0360 ha        1 LIJ      0.172000
     60 H20        -0.9340   -2.3770    2.2910 ha        1 LIJ      0.138000
     61 H21         2.1500   -6.8040    3.4610 h1        1 LIJ      0.084700
     62 H221        0.1840   -7.2660    5.0130 hx        1 LIJ      0.127200
     63 H222       -0.9840   -6.8440    3.6510 hx        1 LIJ      0.127200
     64 H241       -0.9720   -9.4780    5.1190 hx        1 LIJ      0.112200
     65 H242       -2.0540   -8.9490    3.7250 hx        1 LIJ      0.112200
     66 H11         9.3400   -0.6280    5.5130 hc        1 LIJ      0.053533
     67 H12         9.7270   -1.7440    4.1420 hc        1 LIJ      0.053533
     68 H13A        8.4310   -2.1840    5.3340 hc        1 LIJ      0.053533
     69 H21A        7.4770   -1.3570    3.1410 hc        1 LIJ      0.049950
     70 H22         8.3840    0.1910    3.3400 hc        1 LIJ      0.049950
     71 H31         6.2720   -0.8800    5.3610 hc        1 LIJ      0.069950
     72 H32         7.1910    0.6610    5.4720 hc        1 LIJ      0.069950
     73 H91         3.8510   -1.7670    4.3020 h1        1 LIJ      0.144200
     74 H92         5.5270   -2.2940    3.9600 h1        1 LIJ      0.144200
     75 H141       -0.9770   -4.6480    3.0470 hc        1 LIJ      0.096200
     76 H142       -0.8440   -5.0340    4.8240 hc        1 LIJ      0.096200
     77 H16        -0.1250   -3.3090    6.4500 ha        1 LIJ      0.138000
     78 H18        -0.9390    0.7650    5.2560 ha        1 LIJ      0.176000
     79 H19        -1.1770    0.0270    2.8810 ha        1 LIJ      0.172000
     80 HO21        1.6830   -6.5790    1.3680 ho        1 LIJ      0.448000
     81 HN23        0.9310   -9.1290    3.6520 hn        1 LIJ      0.456800
     82 H29        -0.4190  -14.0770    4.3720 ha        1 LIJ      0.173000
     83 H30        -0.3250  -11.7640    5.2770 ha        1 LIJ      0.145000
     84 H311       -2.6320  -13.6200   -1.1900 h1        1 LIJ      0.068033
     85 H312       -2.9530  -14.3520    0.4700 h1        1 LIJ      0.068033
     86 H313       -1.2480  -14.3630   -0.2270 h1        1 LIJ      0.068033
     87 HN40        5.6150   -2.5640    1.0440 hn        1 LIJ      0.517300
     88 H441        3.8490   -4.9380   -1.9900 h1        1 LIJ      0.084200
     89 H442        4.9250   -6.3070   -1.3360 h1        1 LIJ      0.084200
     90 H46         4.7260   -3.3650   -3.6720 ha        1 LIJ      0.138000
     91 H47         6.3710   -2.9580   -5.4980 ha        1 LIJ      0.170000
     92 H48         8.4540   -4.3300   -5.6380 ha        1 LIJ      0.174000
     93 H49         8.8950   -6.1150   -3.9470 ha        1 LIJ      0.170000
     94 H50         7.2580   -6.5330   -2.1150 ha        1 LIJ      0.138000
     95 H26        -1.8830  -10.2450    1.5060 ha        1 LIJ      0.146000
     96 H122        1.6100   -4.2180    1.9280 hn        1 LIJ      0.498800
     97 H232       -0.0450   -8.6790    2.3840 hn        1 LIJ      0.456800
     98 H402        5.8340   -3.8710    2.0770 hn        1 LIJ      0.517300
     99 H28        -1.2140  -14.4970    2.0520 ha        1 LIJ      0.177000
@<TRIPOS>BOND
     1    1    2 1   
     2    1   48 1   
     3    1   49 1   
     4    1   50 1   
     5    2    3 1   
     6    2   51 1   
     7    2   52 1   
     8    3    4 1   
     9    3   53 1   
    10    3   54 1   
    11    4   18 1   
    12    4   19 1   
    13    4   55 1   
    14    5   22 1   
    15    5   23 1   
    16    5   37 1   
    17    5   56 1   
    18    6    7 1   
    19    6   23 1   
    20    6   57 1   
    21    6   96 1   
    22    7   11 1   
    23    7   25 1   
    24    7   58 1   
    25    8   10 ar  
    26    8   25 1   
    27    8   26 ar  
    28    9   26 ar  
    29    9   27 ar  
    30    9   59 1   
    31   10   28 ar  
    32   10   60 1   
    33   11   12 1   
    34   11   29 1   
    35   11   61 1   
    36   12   30 1   
    37   12   62 1   
    38   12   63 1   
    39   13   30 1   
    40   13   31 1   
    41   13   64 1   
    42   13   65 1   
    43   14   31 ar  
    44   14   32 ar  
    45   14   95 1   
    46   15   32 ar  
    47   15   34 ar  
    48   15   99 1   
    49   16   17 1   
    50   16   66 1   
    51   16   67 1   
    52   16   68 1   
    53   17   18 1   
    54   17   69 1   
    55   17   70 1   
    56   18   71 1   
    57   18   72 1   
    58   19   20 2   
    59   19   21 2   
    60   19   22 1   
    61   22   73 1   
    62   22   74 1   
    63   23   24 2   
    64   25   75 1   
    65   25   76 1   
    66   26   77 1   
    67   27   28 ar  
    68   27   78 1   
    69   28   79 1   
    70   29   80 1   
    71   30   81 1   
    72   30   97 1   
    73   31   35 ar  
    74   32   33 1   
    75   33   36 1   
    76   34   35 ar  
    77   34   82 1   
    78   35   83 1   
    79   36   84 1   
    80   36   85 1   
    81   36   86 1   
    82   37   38 1   
    83   37   87 1   
    84   37   98 1   
    85   38   39 2   
    86   38   40 1   
    87   40   41 1   
    88   41   42 1   
    89   41   88 1   
    90   41   89 1   
    91   42   43 ar  
    92   42   47 ar  
    93   43   44 ar  
    94   43   90 1   
    95   44   45 ar  
    96   44   91 1   
    97   45   46 ar  
    98   45   92 1   
    99   46   47 ar  
   100   46   93 1   
   101   47   94 1   
@<TRIPOS>SUBSTRUCTURE
     1 LIJ         1 TEMP              0 ****  ****    0 ROOT
