@<TRIPOS>MOLECULE
LIJ
   99    99     1     0     0
SMALL
bcc


@<TRIPOS>ATOM
      1 C4       -167.3000  -38.0090   98.3570 c3        1 LIJ     -0.218500
      2 C5       -167.5490  -38.2040   96.8840 c3        1 LIJ     -0.172500
      3 C6       -167.1580  -39.5750   96.3740 c3        1 LIJ     -0.153500
      4 C7       -167.9410  -40.7290   96.9890 c3        1 LIJ     -0.755000
      5 C10      -171.8560  -40.3120   97.4720 c3        1 LIJ      0.078000
      6 N12      -172.3770  -41.2540   95.0740 n4        1 LIJ     -0.129000
      7 C13      -173.4770  -41.6690   94.1400 c3        1 LIJ     -0.106000
      8 C15      -172.4490  -40.6840   92.0890 ca        1 LIJ     -0.161000
      9 C17      -172.9280  -38.7360   90.7290 ca        1 LIJ     -0.113500
     10 C20      -171.1020  -40.3050   92.1470 ca        1 LIJ     -0.125500
     11 C21      -174.2620  -42.8980   94.6690 c3        1 LIJ      0.008000
     12 C22      -175.7140  -42.8010   94.1450 c3        1 LIJ     -0.136000
     13 C24      -177.8770  -43.9610   93.7730 c3        1 LIJ     -0.062000
     14 C26      -178.3140  -46.3420   93.1980 ca        1 LIJ     -0.156000
     15 C28      -180.0680  -47.6010   94.3340 ca        1 LIJ     -0.151000
     16 C1       -166.0060  -43.7160   95.4680 c3        1 LIJ     -0.218500
     17 C2       -166.6900  -42.3730   95.4980 c3        1 LIJ     -0.172500
     18 C3       -167.1290  -42.0240   96.9060 c3        1 LIJ     -0.153500
     19 S8       -169.4580  -40.9750   96.2840 s6        1 LIJ      2.739000
     20 O8B      -170.0630  -42.2300   96.5970 o         1 LIJ     -0.971500
     21 O8A      -169.5820  -40.7240   94.8950 o         1 LIJ     -0.971500
     22 C9       -170.4890  -39.7890   97.0250 c3        1 LIJ     -0.879000
     23 C11      -172.8170  -40.4020   96.2350 c2        1 LIJ      0.177000
     24 O11      -173.9240  -39.8880   96.1650 o         1 LIJ     -0.201000
     25 C14      -172.9100  -41.9410   92.7330 c3        1 LIJ     -0.122000
     26 C16      -173.3580  -39.8940   91.3740 ca        1 LIJ     -0.125500
     27 C18      -171.5840  -38.3610   90.7910 ca        1 LIJ     -0.093000
     28 C19      -170.6750  -39.1460   91.5000 ca        1 LIJ     -0.113500
     29 O21      -173.7380  -44.1090   94.1640 oh        1 LIJ     -0.334000
     30 N23      -176.4900  -44.0500   94.3580 n4        1 LIJ     -0.038000
     31 C25      -178.6140  -45.2350   93.9950 ca        1 LIJ     -0.158000
     32 C27      -179.0450  -47.5310   93.3730 ca        1 LIJ      0.107000
     33 O27      -178.6640  -48.5640   92.5550 os        1 LIJ     -0.202000
     34 C29      -180.3500  -46.4850   95.1160 ca        1 LIJ     -0.076000
     35 C30      -179.6250  -45.3020   94.9590 ca        1 LIJ     -0.133000
     36 C31      -179.4510  -49.7560   92.6160 c3        1 LIJ     -0.084000
     37 N40      -172.4110  -39.5640   98.5420 n3        1 LIJ     -0.345000
     38 C41      -171.1870  -44.3190   97.1990 c1        1 LIJ      0.484000
     39 O42      -172.1240  -43.8470   96.6080 o         1 LIJ     -0.238500
     40 O43      -170.2860  -44.7970   97.7900 o         1 LIJ     -0.238500
     41 C44      1069.2170  225.5290 -560.0190 c2        1 LIJ      0.126000
     42 C45      1068.0300  225.2010 -559.4190 ca        1 LIJ     -0.195000
     43 C46      1067.6290  225.8200 -558.1830 ca        1 LIJ      0.039000
     44 C47      1066.4330  225.4820 -557.5880 ca        1 LIJ     -0.183000
     45 C48      1065.5900  224.5270 -558.1840 ca        1 LIJ      0.092000
     46 C49      1065.9560  223.9050 -559.3910 ca        1 LIJ     -0.183000
     47 C50      1067.1470  224.2270 -560.0050 ca        1 LIJ      0.039000
     48 H41      -168.0180  -38.6000   98.9760 hc        1 LIJ      0.088833
     49 H42      -166.2620  -38.3200   98.6280 hc        1 LIJ      0.088833
     50 H43      -167.4220  -36.9310   98.6250 hc        1 LIJ      0.088833
     51 H51      -166.9410  -37.4480   96.3110 hc        1 LIJ      0.086500
     52 H52      -168.6250  -37.9920   96.6470 hc        1 LIJ      0.086500
     53 H61      -167.2740  -39.6080   95.2560 hc        1 LIJ      0.124250
     54 H62      -166.0650  -39.7350   96.5940 hc        1 LIJ      0.124250
     55 H7       -168.0340  -40.5040   98.0950 h1        1 LIJ      0.187000
     56 H10      -171.7570  -41.3940   97.8210 h1        1 LIJ      0.160000
     57 HN12     -171.8930  -42.0940   95.4430 hn        1 LIJ      0.290000
     58 H13      -174.1890  -40.7880   94.0700 hx        1 LIJ      0.166000
     59 H17      -173.6450  -38.1240   90.1600 ha        1 LIJ      0.157000
     60 H20      -170.3640  -40.9250   92.6840 ha        1 LIJ      0.139500
     61 H21      -174.2650  -42.9160   95.7980 h1        1 LIJ      0.118000
     62 H221     -175.6970  -42.5940   93.0350 hx        1 LIJ      0.157000
     63 H222     -176.2380  -41.9530   94.6710 hx        1 LIJ      0.157000
     64 H241     -178.4020  -43.0920   94.2650 hx        1 LIJ      0.148000
     65 H242     -177.7660  -43.7510   92.6700 hx        1 LIJ      0.148000
     66 H11      -165.1080  -43.7160   96.1320 hc        1 LIJ      0.088833
     67 H12      -165.6730  -43.9510   94.4270 hc        1 LIJ      0.088833
     68 H13A     -166.6970  -44.5240   95.8090 hc        1 LIJ      0.088833
     69 H21A     -167.5800  -42.3840   94.8120 hc        1 LIJ      0.086500
     70 H22      -165.9860  -41.5870   95.1140 hc        1 LIJ      0.086500
     71 H31      -167.7380  -42.8650   97.3380 hc        1 LIJ      0.124250
     72 H32      -166.2190  -41.9120   97.5560 hc        1 LIJ      0.124250
     73 H91      -169.9870  -39.3290   97.9280 h1        1 LIJ      0.192500
     74 H92      -170.6340  -38.9170   96.3270 h1        1 LIJ      0.192500
     75 H141     -173.7310  -42.4120   92.1270 hc        1 LIJ      0.124000
     76 H142     -172.0780  -42.6940   92.7880 hc        1 LIJ      0.124000
     77 H16      -174.4140  -40.1960   91.3020 ha        1 LIJ      0.139500
     78 H18      -171.2420  -37.4510   90.2710 ha        1 LIJ      0.161000
     79 H19      -169.6120  -38.8590   91.5400 ha        1 LIJ      0.157000
     80 HO21     -172.9210  -44.3140   94.6430 ho        1 LIJ      0.256000
     81 HN23     -176.5600  -44.2550   95.3620 hn        1 LIJ      0.257500
     82 H29      -181.1580  -46.5340   95.8650 ha        1 LIJ      0.166000
     83 H30      -179.8720  -44.4260   95.5770 ha        1 LIJ      0.143000
     84 H311     -180.5160  -49.5360   92.3620 h1        1 LIJ      0.103333
     85 H312     -178.9810  -50.4070   91.8340 h1        1 LIJ      0.103333
     86 H313     -179.3670  -50.2250   93.6260 h1        1 LIJ      0.103333
     87 HN40     -173.2670  -39.9260   98.9020 hn        1 LIJ      0.209000
     88 H441     1069.5390  225.0620 -560.9680 ha        1 LIJ      0.170000
     89 H442     1069.9060  226.2740 -559.5830 ha        1 LIJ      0.170000
     90 H46      1068.2970  226.5700 -557.7210 ha        1 LIJ      0.177000
     91 H47      1066.1270  225.9590 -556.6390 ha        1 LIJ      0.191000
     92 H48      1064.6310  224.2620 -557.6990 ha        1 LIJ      0.188000
     93 H49      1065.2800  223.1570 -559.8440 ha        1 LIJ      0.191000
     94 H50      1067.4420  223.7420 -560.9540 ha        1 LIJ      0.177000
     95 H26      -177.5410  -46.3010   92.4160 ha        1 LIJ      0.150000
     96 H122     -171.6810  -40.7120   94.5130 hn        1 LIJ      0.290000
     97 H232     -175.9880  -44.8390   93.9190 hn        1 LIJ      0.257500
     98 H402     -172.4340  -38.5760   98.4020 hn        1 LIJ      0.209000
     99 H28      -180.6510  -48.5260   94.4660 ha        1 LIJ      0.170000
@<TRIPOS>BOND
     1    1    2 1   
     2    1   48 1   
     3    1   49 1   
     4    1   50 1   
     5    2    3 1   
     6    2   51 1   
     7    2   52 1   
     8    3    4 1   
     9    3   53 1   
    10    3   54 1   
    11    4   18 1   
    12    4   19 1   
    13    4   55 1   
    14    5   22 1   
    15    5   23 1   
    16    5   37 1   
    17    5   56 1   
    18    6    7 1   
    19    6   23 1   
    20    6   57 1   
    21    6   96 1   
    22    7   11 1   
    23    7   25 1   
    24    7   58 1   
    25    8   10 1   
    26    8   25 1   
    27    8   26 1   
    28    9   26 1   
    29    9   27 1   
    30    9   59 1   
    31   10   28 1   
    32   10   60 1   
    33   11   12 1   
    34   11   29 1   
    35   11   61 1   
    36   12   30 1   
    37   12   62 1   
    38   12   63 1   
    39   13   30 1   
    40   13   31 1   
    41   13   64 1   
    42   13   65 1   
    43   14   31 1   
    44   14   32 1   
    45   14   95 1   
    46   15   32 1   
    47   15   34 1   
    48   15   99 1   
    49   16   17 1   
    50   16   66 1   
    51   16   67 1   
    52   16   68 1   
    53   17   18 1   
    54   17   69 1   
    55   17   70 1   
    56   18   71 1   
    57   18   72 1   
    58   19   20 1   
    59   19   21 1   
    60   19   22 1   
    61   22   73 1   
    62   22   74 1   
    63   23   24 1   
    64   25   75 1   
    65   25   76 1   
    66   26   77 1   
    67   27   28 1   
    68   27   78 1   
    69   28   79 1   
    70   29   80 1   
    71   30   81 1   
    72   30   97 1   
    73   31   35 1   
    74   32   33 1   
    75   33   36 1   
    76   34   35 1   
    77   34   82 1   
    78   35   83 1   
    79   36   84 1   
    80   36   85 1   
    81   36   86 1   
    82   37   87 1   
    83   37   98 1   
    84   38   39 1   
    85   38   40 1   
    86   41   42 1   
    87   41   88 1   
    88   41   89 1   
    89   42   43 1   
    90   42   47 1   
    91   43   44 1   
    92   43   90 1   
    93   44   45 1   
    94   44   91 1   
    95   45   46 1   
    96   45   92 1   
    97   46   47 1   
    98   46   93 1   
    99   47   94 1   
@<TRIPOS>SUBSTRUCTURE
     1 LIJ         1 TEMP              0 ****  ****    0 ROOT
