@<TRIPOS>MOLECULE
LIJ
   96    98     1     0     0
SMALL
bcc


@<TRIPOS>ATOM
      1 C4         -4.2010    6.9380   -2.0720 c3        1 LIJ     -0.091100
      2 C5         -4.8000    5.5590   -1.9760 c3        1 LIJ     -0.096900
      3 C6         -3.9500    4.5440   -2.7150 c3        1 LIJ     -0.049900
      4 C7         -4.5430    3.1410   -2.6640 c3        1 LIJ     -0.272900
      5 C10        -1.6770    1.2820   -0.4290 c3        1 LIJ      0.089700
      6 N12         0.6140    0.3940   -0.0360 n         1 LIJ     -0.551900
      7 C13         1.9350   -0.0680   -0.3960 c3        1 LIJ      0.078700
      8 C15         3.0620    2.1620   -0.1040 ca        1 LIJ     -0.082300
      9 C17         3.6070    3.8480   -1.7570 ca        1 LIJ     -0.128000
     10 C20         2.6020    3.1670    0.7540 ca        1 LIJ     -0.122500
     11 C21         2.1000   -1.5870   -0.1060 c3        1 LIJ      0.112100
     12 C22         3.2680   -2.1590   -0.9310 c3        1 LIJ      0.124800
     13 C24         4.6740   -4.1250   -1.1890 c3        1 LIJ      0.201100
     14 C26         6.9070   -3.0910   -0.6820 ca        1 LIJ     -0.149000
     15 C28         7.9600   -3.3780    1.5020 ca        1 LIJ     -0.203000
     16 C1         -4.7760    0.4900   -5.4600 c3        1 LIJ     -0.091100
     17 C2         -5.0690    1.1490   -4.1370 c3        1 LIJ     -0.096900
     18 C3         -4.2710    2.4270   -3.9790 c3        1 LIJ     -0.049900
     19 S8         -4.0790    2.2910   -1.2280 s6        1 LIJ      1.305000
     20 O8B        -4.8870    1.1510   -1.0810 o         1 LIJ     -0.647800
     21 O8A        -4.0400    3.1840   -0.1480 o         1 LIJ     -0.647800
     22 C9         -2.4940    1.7840   -1.6220 c3        1 LIJ     -0.330600
     23 C11        -0.3320    0.7200   -0.9720 c         1 LIJ      0.639100
     24 O11        -0.1440    0.5930   -2.1980 o         1 LIJ     -0.617100
     25 C14         3.0370    0.7370    0.3220 c3        1 LIJ     -0.057100
     26 C16         3.5660    2.5120   -1.3630 ca        1 LIJ     -0.122500
     27 C18         3.1470    4.8460   -0.8970 ca        1 LIJ     -0.130000
     28 C19         2.6440    4.5030    0.3580 ca        1 LIJ     -0.128000
     29 O21         2.2590   -1.8550    1.2730 oh        1 LIJ     -0.594800
     30 N23         3.3830   -3.6000   -0.8070 n3        1 LIJ     -0.810200
     31 C25         5.8190   -3.8470   -0.2530 ca        1 LIJ     -0.097300
     32 C27         7.9780   -2.8610    0.2020 ca        1 LIJ      0.124100
     33 O27         9.0040   -2.0980   -0.3230 os        1 LIJ     -0.327900
     34 C29         6.8600   -4.1330    1.9140 ca        1 LIJ     -0.094000
     35 C30         5.7970   -4.3680    1.0480 ca        1 LIJ     -0.162000
     36 C31        10.1150   -1.8650    0.5340 c3        1 LIJ      0.113700
     37 N40        -2.4190    0.3270    0.3550 n         1 LIJ     -0.562900
     38 C41        -2.0820    0.0970    1.6720 c         1 LIJ      0.753100
     39 O42        -1.2140    0.6820    2.3460 o         1 LIJ     -0.605000
     40 O43        -2.8390   -0.8940    2.2520 os        1 LIJ     -0.424900
     41 C44        -2.5640   -1.1170    3.6540 c3        1 LIJ      0.197700
     42 C45        -3.4930   -2.1860    4.1200 ca        1 LIJ     -0.099300
     43 C46        -4.8120   -2.2490    3.6600 ca        1 LIJ     -0.109000
     44 C47        -5.6710   -3.2360    4.1400 ca        1 LIJ     -0.132500
     45 C48        -5.2200   -4.1590    5.0830 ca        1 LIJ     -0.123000
     46 C49        -3.9040   -4.0990    5.5420 ca        1 LIJ     -0.132500
     47 C50        -3.0390   -3.1190    5.0590 ca        1 LIJ     -0.109000
     48 H41        -4.8400    7.6720   -1.5240 hc        1 LIJ      0.035867
     49 H42        -3.1790    6.9560   -1.6210 hc        1 LIJ      0.035867
     50 H43        -4.1210    7.2640   -3.1370 hc        1 LIJ      0.035867
     51 H51        -4.8890    5.2600   -0.8970 hc        1 LIJ      0.055700
     52 H52        -5.8350    5.5680   -2.4120 hc        1 LIJ      0.055700
     53 H61        -3.8390    4.8740   -3.7820 hc        1 LIJ      0.050200
     54 H62        -2.9180    4.5320   -2.2700 hc        1 LIJ      0.050200
     55 H7         -5.6680    3.2560   -2.6060 h1        1 LIJ      0.121700
     56 H10        -1.4300    2.1650    0.2430 h1        1 LIJ      0.110700
     57 HN12        0.4240    0.5150    0.9350 hn        1 LIJ      0.344500
     58 H13         2.0610    0.0750   -1.5140 h1        1 LIJ      0.094700
     59 H17         4.0020    4.1150   -2.7470 ha        1 LIJ      0.132500
     60 H20         2.2020    2.9020    1.7450 ha        1 LIJ      0.134000
     61 H21         1.1470   -2.1310   -0.3760 h1        1 LIJ      0.100700
     62 H221        3.0850   -1.9310   -2.0180 h1        1 LIJ      0.042200
     63 H222        4.2220   -1.6360   -0.6260 h1        1 LIJ      0.042200
     64 H241        4.5550   -5.2450   -1.2710 h1        1 LIJ      0.063200
     65 H242        4.9250   -3.7310   -2.2150 h1        1 LIJ      0.063200
     66 H28         8.7920   -3.2010    2.1960 ha        1 LIJ      0.138000
     67 H11        -3.6920    0.2310   -5.5420 hc        1 LIJ      0.035867
     68 H12        -5.3720   -0.4490   -5.5620 hc        1 LIJ      0.035867
     69 H13A       -5.0390    1.1690   -6.3080 hc        1 LIJ      0.035867
     70 H21A       -4.8320    0.4360   -3.3010 hc        1 LIJ      0.055700
     71 H22        -6.1650    1.3810   -4.0650 hc        1 LIJ      0.055700
     72 H31        -4.5410    3.1160   -4.8260 hc        1 LIJ      0.050200
     73 H32        -3.1740    2.2150   -4.0810 hc        1 LIJ      0.050200
     74 H91        -2.5150    0.9630   -2.3960 h1        1 LIJ      0.140700
     75 H92        -1.8790    2.5960   -2.0990 h1        1 LIJ      0.140700
     76 H141        2.8910    0.6720    1.4340 hc        1 LIJ      0.058200
     77 H142        4.0260    0.2630    0.0810 hc        1 LIJ      0.058200
     78 H16         3.9270    1.7270   -2.0440 ha        1 LIJ      0.134000
     79 H18         3.1810    5.9000   -1.2080 ha        1 LIJ      0.131000
     80 H19         2.2800    5.2870    1.0380 ha        1 LIJ      0.132500
     81 HO21        3.1150   -1.5010    1.5460 ho        1 LIJ      0.398000
     82 HN23        3.1440   -3.8870    0.1270 hn        1 LIJ      0.370800
     83 H29         6.8400   -4.5450    2.9340 ha        1 LIJ      0.134000
     84 H30         4.9390   -4.9710    1.3800 ha        1 LIJ      0.136000
     85 H311       10.8070   -1.2520   -0.0970 h1        1 LIJ      0.045033
     86 H312        9.8000   -1.2940    1.4420 h1        1 LIJ      0.045033
     87 H313       10.5980   -2.8290    0.8260 h1        1 LIJ      0.045033
     88 HN40       -3.0430   -0.3020   -0.1010 hn        1 LIJ      0.353500
     89 H441       -1.4870   -1.4160    3.7600 h1        1 LIJ      0.067200
     90 H442       -2.7410   -0.1560    4.2080 h1        1 LIJ      0.067200
     91 H46        -5.1610   -1.5210    2.9110 ha        1 LIJ      0.141000
     92 H47        -6.7070   -3.2840    3.7740 ha        1 LIJ      0.133000
     93 H48        -5.9000   -4.9350    5.4640 ha        1 LIJ      0.132000
     94 H49        -3.5460   -4.8280    6.2840 ha        1 LIJ      0.133000
     95 H50        -1.9990   -3.0790    5.4170 ha        1 LIJ      0.141000
     96 H26         6.9490   -2.6740   -1.6980 ha        1 LIJ      0.150000
@<TRIPOS>BOND
     1    1    2 1   
     2    1   48 1   
     3    1   49 1   
     4    1   50 1   
     5    2    3 1   
     6    2   51 1   
     7    2   52 1   
     8    3    4 1   
     9    3   53 1   
    10    3   54 1   
    11    4   18 1   
    12    4   19 1   
    13    4   55 1   
    14    5   22 1   
    15    5   23 1   
    16    5   37 1   
    17    5   56 1   
    18    6    7 1   
    19    6   23 1   
    20    6   57 1   
    21    7   11 1   
    22    7   25 1   
    23    7   58 1   
    24    8   10 ar  
    25    8   25 1   
    26    8   26 ar  
    27    9   26 ar  
    28    9   27 ar  
    29    9   59 1   
    30   10   28 ar  
    31   10   60 1   
    32   11   12 1   
    33   11   29 1   
    34   11   61 1   
    35   12   30 1   
    36   12   62 1   
    37   12   63 1   
    38   13   30 1   
    39   13   31 1   
    40   13   64 1   
    41   13   65 1   
    42   14   31 ar  
    43   14   32 ar  
    44   14   96 1   
    45   15   32 ar  
    46   15   34 ar  
    47   15   66 1   
    48   16   17 1   
    49   16   67 1   
    50   16   68 1   
    51   16   69 1   
    52   17   18 1   
    53   17   70 1   
    54   17   71 1   
    55   18   72 1   
    56   18   73 1   
    57   19   20 2   
    58   19   21 2   
    59   19   22 1   
    60   22   74 1   
    61   22   75 1   
    62   23   24 2   
    63   25   76 1   
    64   25   77 1   
    65   26   78 1   
    66   27   28 ar  
    67   27   79 1   
    68   28   80 1   
    69   29   81 1   
    70   30   82 1   
    71   31   35 ar  
    72   32   33 1   
    73   33   36 1   
    74   34   35 ar  
    75   34   83 1   
    76   35   84 1   
    77   36   85 1   
    78   36   86 1   
    79   36   87 1   
    80   37   38 1   
    81   37   88 1   
    82   38   39 2   
    83   38   40 1   
    84   40   41 1   
    85   41   42 1   
    86   41   89 1   
    87   41   90 1   
    88   42   43 ar  
    89   42   47 ar  
    90   43   44 ar  
    91   43   91 1   
    92   44   45 ar  
    93   44   92 1   
    94   45   46 ar  
    95   45   93 1   
    96   46   47 ar  
    97   46   94 1   
    98   47   95 1   
@<TRIPOS>SUBSTRUCTURE
     1 LIJ         1 TEMP              0 ****  ****    0 ROOT
