@<TRIPOS>MOLECULE
LIJ
   96    89     1     0     0
SMALL
bcc


@<TRIPOS>ATOM
      1 C4         -4.5530    0.9000   -8.5990 c3        1 LIJ     -0.211000
      2 C5         -3.6400    1.7310   -7.7120 c3        1 LIJ     -0.161500
      3 C6         -3.7810    1.2700   -6.2360 c3        1 LIJ     -0.138500
      4 C7         -2.9670    2.2100   -5.3320 c3        1 LIJ     -0.772000
      5 C10        -0.4540    1.3930   -1.9470 c3        1 LIJ      0.062000
      6 N12        -1.3850    0.6630    0.3560 n         1 LIJ     -0.348000
      7 C13        -0.7980    0.5260    1.6660 c3        1 LIJ      0.040000
      8 C15        -0.2880    2.2190    3.4450 c1        1 LIJ     -0.066000
      9 C17         1.5490    3.7490    3.6260 c1        1 LIJ     -0.129000
     10 C20        -0.2800    2.0580    4.8350 c1        1 LIJ     -0.131000
     11 C21        -1.0840   -0.8600    2.1940 c3        1 LIJ      0.008000
     12 C22         0.0580   -1.8640    1.7060 c3        1 LIJ     -0.113000
     13 C24         0.4520   -4.1830    1.8060 c3        1 LIJ     -0.043000
     14 C26         2.2440   -5.9060    2.2490 c1        1 LIJ     -0.139000
     15 C28         2.3430   -7.1000    4.3150 c1        1 LIJ     -0.137000
     16 C1         -4.7910    5.4610   -4.1700 c3        1 LIJ     -0.211000
     17 C2         -4.1920    4.4900   -5.1590 c3        1 LIJ     -0.161500
     18 C3         -3.9640    3.0980   -4.4560 c3        1 LIJ     -0.138500
     19 S8         -1.9130    1.2360   -4.2380 s4        1 LIJ      1.992800
     20 O8B        -0.9040    0.5480   -4.9710 o         1 LIJ     -0.536900
     21 O8A        -2.6330    0.1480   -3.6650 o         1 LIJ     -0.536900
     22 C9         -1.1930    2.2750   -2.9660 c2        1 LIJ     -0.869000
     23 C11        -0.9280    1.7360   -0.5530 c2        1 LIJ      0.281000
     24 O11        -1.0630    2.8980   -0.2300 o         1 LIJ     -0.389000
     25 C14        -1.4020    1.5730    2.6090 c2        1 LIJ     -0.141000
     26 C16         0.6220    3.0600    2.8470 c2        1 LIJ     -0.123000
     27 C18         1.5560    3.5900    4.9890 c1        1 LIJ     -0.137000
     28 C19         0.6360    2.7390    5.5970 c1        1 LIJ     -0.137000
     29 O21        -1.1190   -0.8370    3.5470 oh        1 LIJ     -0.337000
     30 N23         0.0850   -3.0210    2.5730 n3        1 LIJ     -0.303000
     31 C25         1.1460   -5.1980    2.7140 c1        1 LIJ     -0.089000
     32 C27         2.8380   -6.8530    3.0490 c1        1 LIJ      0.074000
     33 O27         4.0100   -7.5130    2.6070 os        1 LIJ     -0.208000
     34 C29         1.2470   -6.3920    4.7780 c1        1 LIJ     -0.137000
     35 C30         0.6520   -5.4450    3.9780 c1        1 LIJ     -0.163000
     36 C31         3.8820   -8.8670    2.5170 c3        1 LIJ     -0.076000
     37 N40         0.9540    1.6310   -2.0470 n         1 LIJ     -0.360000
     38 C41         1.8750    0.7430   -1.4190 c2        1 LIJ      0.406000
     39 O42         1.8290   -0.4500   -1.6560 o         1 LIJ     -0.417000
     40 O43         2.8530    1.2620   -0.4640 os        1 LIJ     -0.267000
     41 C44         3.7080    0.2590    0.0980 c3        1 LIJ      0.039000
     42 C45         4.1260    0.6700    1.4620 c2        1 LIJ     -0.123000
     43 C46         3.1840    0.7500    2.4730 c2        1 LIJ     -0.100000
     44 C47         3.5890    0.9860    3.7820 c1        1 LIJ     -0.132000
     45 C48         4.9160    1.1390    4.0730 c1        1 LIJ     -0.137000
     46 C49         5.8670    1.0590    3.0590 c1        1 LIJ     -0.137000
     47 C50         5.4720    0.8250    1.7590 c1        1 LIJ     -0.106000
     48 H41        -5.5060    1.0140   -8.3010 hc        1 LIJ      0.076333
     49 H42        -4.4610    1.2040   -9.5490 hc        1 LIJ      0.076333
     50 H43        -4.2930   -0.0720   -8.5320 hc        1 LIJ      0.076333
     51 H51        -2.6810    1.6140   -8.0120 hc        1 LIJ      0.086000
     52 H52        -3.8900    2.6720   -7.7830 hc        1 LIJ      0.086000
     53 H61        -3.4450    0.3580   -6.1440 hc        1 LIJ      0.102250
     54 H62        -4.7550    1.3010   -5.9630 hc        1 LIJ      0.102250
     55 H7         -2.4040    2.8000   -5.8960 h1        1 LIJ      0.152000
     56 H10        -0.6440    0.4320   -2.1390 h1        1 LIJ      0.143000
     57 HN12       -2.0170    0.0820    0.0840 hn        1 LIJ      0.256000
     58 H13         0.1760    0.6630    1.6060 h1        1 LIJ      0.115000
     59 H17         2.2000    4.3490    3.2000 ha        1 LIJ      0.128000
     60 H20        -0.9600    1.4300    5.2850 ha        1 LIJ      0.134000
     61 H21        -1.9540   -1.1660    1.8510 h1        1 LIJ      0.103000
     62 H221        0.9090   -1.4210    1.7360 h1        1 LIJ      0.092000
     63 H222       -0.1270   -2.1460    0.7970 h1        1 LIJ      0.092000
     64 H241       -0.3490   -4.5850    1.4230 h1        1 LIJ      0.108000
     65 H242        1.0770   -3.9100    1.0670 h1        1 LIJ      0.108000
     66 H26         2.5790   -5.7390    1.3900 ha        1 LIJ      0.173000
     67 H28         2.7800   -7.7940    4.9020 ha        1 LIJ      0.130167
     68 H11        -4.1840    5.5550   -3.3920 hc        1 LIJ      0.076333
     69 H12        -5.6650    5.1230   -3.8660 hc        1 LIJ      0.076333
     70 H13A       -4.9110    6.3500   -4.6080 hc        1 LIJ      0.076333
     71 H21A       -4.8110    4.3750   -5.9270 hc        1 LIJ      0.086000
     72 H22        -3.3290    4.8420   -5.4820 hc        1 LIJ      0.086000
     73 H31        -3.5690    3.2440   -3.5440 hc        1 LIJ      0.102250
     74 H32        -4.8690    2.6080   -4.3640 hc        1 LIJ      0.102250
     75 H91        -0.5770    2.8850   -3.3630 ha        1 LIJ      0.176000
     76 H92        -1.9170    2.7870   -2.5020 ha        1 LIJ      0.176000
     77 H141       -2.0600    1.1330    3.2190 ha        1 LIJ      0.114500
     78 H142       -1.8600    2.2700    2.0750 ha        1 LIJ      0.114500
     79 H16         0.6180    3.1770    1.8510 ha        1 LIJ      0.133000
     80 H18         2.2050    4.0720    5.5310 ha        1 LIJ      0.130167
     81 H19         0.6420    2.6270    6.5660 ha        1 LIJ      0.130167
     82 HO21       -1.6320   -1.4960    3.8380 ho        1 LIJ      0.212000
     83 HN23        0.7100   -2.8860    3.2550 hn        1 LIJ      0.153000
     84 H29         0.8990   -6.5650    5.6680 ha        1 LIJ      0.130167
     85 H30        -0.1520   -4.9260    4.3190 ha        1 LIJ      0.129000
     86 H311        4.3980   -9.1940    1.7490 h1        1 LIJ      0.082000
     87 H312        4.2160   -9.2770    3.3280 h1        1 LIJ      0.082000
     88 H313        2.9310   -9.1010    2.3990 h1        1 LIJ      0.082000
     89 HN40        1.2600    2.3910   -2.4560 hn        1 LIJ      0.255000
     90 H441        4.4870    0.1530   -0.4580 h1        1 LIJ      0.114500
     91 H442        3.2380   -0.5680    0.1470 h1        1 LIJ      0.114500
     92 H46         2.2480    0.6420    2.2710 ha        1 LIJ      0.154000
     93 H47         2.9100    1.0440    4.5110 ha        1 LIJ      0.135000
     94 H48         5.2060    1.3090    5.0230 ha        1 LIJ      0.130167
     95 H49         6.8120    1.1680    3.2710 ha        1 LIJ      0.130167
     96 H50         6.1570    0.7670    1.0300 ha        1 LIJ      0.131000
@<TRIPOS>BOND
     1    1    2 1   
     2    1   48 1   
     3    1   49 1   
     4    1   50 1   
     5    2    3 1   
     6    2   51 1   
     7    2   52 1   
     8    3    4 1   
     9    3   53 1   
    10    3   54 1   
    11    4   18 1   
    12    4   19 1   
    13    4   55 1   
    14    5   22 1   
    15    5   23 1   
    16    5   37 1   
    17    5   56 1   
    18    6    7 1   
    19    6   23 1   
    20    6   57 1   
    21    7   11 1   
    22    7   25 1   
    23    7   58 1   
    24    8   10 1   
    25    8   26 1   
    26    9   26 1   
    27    9   59 1   
    28   10   60 1   
    29   11   12 1   
    30   11   29 1   
    31   11   61 1   
    32   12   30 1   
    33   12   62 1   
    34   12   63 1   
    35   13   30 1   
    36   13   31 1   
    37   13   64 1   
    38   13   65 1   
    39   14   32 1   
    40   14   66 1   
    41   15   34 1   
    42   15   67 1   
    43   16   17 1   
    44   16   68 1   
    45   16   69 1   
    46   16   70 1   
    47   17   18 1   
    48   17   71 1   
    49   17   72 1   
    50   18   73 1   
    51   18   74 1   
    52   19   20 1   
    53   19   21 1   
    54   22   75 1   
    55   22   76 1   
    56   23   24 1   
    57   25   77 1   
    58   25   78 1   
    59   26   79 1   
    60   27   28 1   
    61   27   80 1   
    62   28   81 1   
    63   29   82 1   
    64   30   83 1   
    65   31   35 1   
    66   32   33 1   
    67   33   36 1   
    68   34   84 1   
    69   35   85 1   
    70   36   86 1   
    71   36   87 1   
    72   36   88 1   
    73   37   38 1   
    74   37   89 1   
    75   38   39 1   
    76   38   40 1   
    77   40   41 1   
    78   41   42 1   
    79   41   90 1   
    80   41   91 1   
    81   42   43 1   
    82   42   47 1   
    83   43   44 1   
    84   43   92 1   
    85   44   93 1   
    86   45   46 1   
    87   45   94 1   
    88   46   95 1   
    89   47   96 1   
@<TRIPOS>SUBSTRUCTURE
     1 LIJ         1 TEMP              0 ****  ****    0 ROOT
