@<TRIPOS>MOLECULE
LIK
   33    32     1     0     0
SMALL
bcc


@<TRIPOS>ATOM
      1 O1          0.5350    1.0100    0.0960 o         1 LIK     -0.845300
      2 C21         1.5350    1.4780   -0.5120 c         1 LIK      0.918600
      3 O2          2.0060    2.6370   -0.3090 o         1 LIK     -0.845300
      4 C14         2.1890    0.6010   -1.6050 c3        1 LIK     -0.178200
      5 C12         3.5210    0.0710   -1.2160 c2        1 LIK     -0.041400
      6 CC1         3.7730   -1.2420   -1.1350 c2        1 LIK     -0.294000
      7 C7          4.5660    1.0840   -0.8880 c3        1 LIK     -0.060200
      8 C1          5.1230    1.7610   -2.1310 c3        1 LIK     -0.037200
      9 C2          5.6940    3.1030   -1.8150 c2        1 LIK     -0.068400
     10 CC3         7.0110    3.3230   -1.7640 c2        1 LIK     -0.275000
     11 C3          4.6950    4.1810   -1.5560 c3        1 LIK     -0.083200
     12 C4          4.2860    4.8810   -2.8370 c3        1 LIK     -0.059400
     13 C5          3.1710    5.8710   -2.5720 c3        1 LIK     -0.089400
     14 C6          2.7300    6.5620   -3.8360 c3        1 LIK     -0.087100
     15 H141        1.4900   -0.2410   -1.8440 hc        1 LIK      0.033700
     16 H142        2.2980    1.2370   -2.5220 hc        1 LIK      0.033700
     17 HC11        3.0060   -1.9980   -1.3390 ha        1 LIK      0.091500
     18 HC12        4.7520   -1.6370   -0.8390 ha        1 LIK      0.091500
     19 H71         4.0860    1.8550   -0.2170 hc        1 LIK      0.065700
     20 H72         5.4100    0.6100   -0.3210 hc        1 LIK      0.065700
     21 H11         5.9030    1.1040   -2.5990 hc        1 LIK      0.038700
     22 H12         4.3000    1.8970   -2.8840 hc        1 LIK      0.038700
     23 HC31        7.7480    2.5310   -1.9440 ha        1 LIK      0.096000
     24 HC32        7.4330    4.3080   -1.5320 ha        1 LIK      0.096000
     25 H31         3.7730    3.7340   -1.0700 hc        1 LIK      0.083200
     26 H32         5.1210    4.9350   -0.8430 hc        1 LIK      0.083200
     27 H41         5.1670    5.4100   -3.2850 hc        1 LIK      0.026700
     28 H42         3.9370    4.1200   -3.5840 hc        1 LIK      0.026700
     29 H51         3.5190    6.6340   -1.8270 hc        1 LIK      0.053700
     30 H52         2.3020    5.3290   -2.1080 hc        1 LIK      0.053700
     31 H61         1.9110    7.2900   -3.6160 hc        1 LIK      0.021700
     32 H62         2.3490    5.8180   -4.5770 hc        1 LIK      0.021700
     33 H63         3.5790    7.1170   -4.3030 hc        1 LIK      0.021700
@<TRIPOS>BOND
     1    1    2 1   
     2    2    3 1   
     3    2    4 1   
     4    4    5 1   
     5    4   15 1   
     6    4   16 1   
     7    5    6 2   
     8    5    7 1   
     9    6   17 1   
    10    6   18 1   
    11    7    8 1   
    12    7   19 1   
    13    7   20 1   
    14    8    9 1   
    15    8   21 1   
    16    8   22 1   
    17    9   10 2   
    18    9   11 1   
    19   10   23 1   
    20   10   24 1   
    21   11   12 1   
    22   11   25 1   
    23   11   26 1   
    24   12   13 1   
    25   12   27 1   
    26   12   28 1   
    27   13   14 1   
    28   13   29 1   
    29   13   30 1   
    30   14   31 1   
    31   14   32 1   
    32   14   33 1   
@<TRIPOS>SUBSTRUCTURE
     1 LIK         1 TEMP              0 ****  ****    0 ROOT
