@<TRIPOS>MOLECULE
LIK
   33    32     1     0     0
SMALL
bcc


@<TRIPOS>ATOM
      1 O1          0.5720    0.9980    0.1430 o         1 LIK     -0.845300
      2 C21         1.5630    1.4700   -0.4780 c         1 LIK      0.918600
      3 O2          2.0210    2.6360   -0.2910 o         1 LIK     -0.845300
      4 C14         2.2190    0.5870   -1.5650 c3        1 LIK     -0.178200
      5 C12         3.5590    0.0770   -1.1800 c2        1 LIK     -0.041400
      6 CC1         3.8260   -1.2320   -1.0850 c2        1 LIK     -0.294000
      7 C7          4.5950    1.1050   -0.8700 c3        1 LIK     -0.060200
      8 C1          5.1360    1.7730   -2.1250 c3        1 LIK     -0.037200
      9 C2          5.6930    3.1260   -1.8290 c2        1 LIK     -0.068400
     10 CC3         7.0080    3.3620   -1.7900 c2        1 LIK     -0.275000
     11 C3          4.6830    4.1950   -1.5770 c3        1 LIK     -0.083200
     12 C4          4.2550    4.8730   -2.8640 c3        1 LIK     -0.059400
     13 C5          3.1300    5.8520   -2.6030 c3        1 LIK     -0.089400
     14 C6          2.6700    6.5200   -3.8730 c3        1 LIK     -0.087100
     15 H141        1.5270   -0.2650   -1.7900 hc        1 LIK      0.033700
     16 H142        2.3140    1.2140   -2.4900 hc        1 LIK      0.033700
     17 HC11        3.0670   -1.9990   -1.2740 ha        1 LIK      0.091500
     18 HC12        4.8110   -1.6130   -0.7910 ha        1 LIK      0.091500
     19 H71         4.1120    1.8790   -0.2050 hc        1 LIK      0.065700
     20 H72         5.4480    0.6470   -0.3040 hc        1 LIK      0.065700
     21 H11         5.9210    1.1200   -2.5900 hc        1 LIK      0.038700
     22 H12         4.3070    1.8900   -2.8740 hc        1 LIK      0.038700
     23 HC31        7.7530    2.5760   -1.9650 ha        1 LIK      0.096000
     24 HC32        7.4190    4.3550   -1.5720 ha        1 LIK      0.096000
     25 H31         3.7710    3.7440   -1.0780 hc        1 LIK      0.083200
     26 H32         5.1060    4.9640   -0.8770 hc        1 LIK      0.083200
     27 H41         5.1270    5.4070   -3.3250 hc        1 LIK      0.026700
     28 H42         3.9120    4.0980   -3.5990 hc        1 LIK      0.026700
     29 H51         3.4740    6.6290   -1.8710 hc        1 LIK      0.053700
     30 H52         2.2720    5.3040   -2.1260 hc        1 LIK      0.053700
     31 H61         1.8440    7.2400   -3.6570 hc        1 LIK      0.021700
     32 H62         2.2940    5.7620   -4.6020 hc        1 LIK      0.021700
     33 H63         3.5090    7.0800   -4.3540 hc        1 LIK      0.021700
@<TRIPOS>BOND
     1    1    2 1   
     2    2    3 1   
     3    2    4 1   
     4    4    5 1   
     5    4   15 1   
     6    4   16 1   
     7    5    6 2   
     8    5    7 1   
     9    6   17 1   
    10    6   18 1   
    11    7    8 1   
    12    7   19 1   
    13    7   20 1   
    14    8    9 1   
    15    8   21 1   
    16    8   22 1   
    17    9   10 2   
    18    9   11 1   
    19   10   23 1   
    20   10   24 1   
    21   11   12 1   
    22   11   25 1   
    23   11   26 1   
    24   12   13 1   
    25   12   27 1   
    26   12   28 1   
    27   13   14 1   
    28   13   29 1   
    29   13   30 1   
    30   14   31 1   
    31   14   32 1   
    32   14   33 1   
@<TRIPOS>SUBSTRUCTURE
     1 LIK         1 TEMP              0 ****  ****    0 ROOT
