@<TRIPOS>MOLECULE
LIK
   33    32     1     0     0
SMALL
bcc


@<TRIPOS>ATOM
      1 O1          2.7030    2.2580   -0.5660 o         1 LIK     -0.845300
      2 C21         1.7170    1.5120   -0.3170 c         1 LIK      0.918600
      3 O2          0.6550    1.4920   -1.0090 o         1 LIK     -0.845300
      4 C14         1.7960    0.6080    0.9350 c3        1 LIK     -0.178200
      5 C12         1.9460   -0.8340    0.6120 c2        1 LIK     -0.041400
      6 CC1         3.0060   -1.5490    1.0090 c2        1 LIK     -0.294000
      7 C7          0.8620   -1.4450   -0.2110 c3        1 LIK     -0.060200
      8 C1         -0.4050   -1.6880    0.5940 c3        1 LIK     -0.037200
      9 C2         -1.6120   -1.7360   -0.2830 c2        1 LIK     -0.068400
     10 CC3        -2.2290   -2.8830   -0.5830 c2        1 LIK     -0.275000
     11 C3         -2.0790   -0.4180   -0.8040 c3        1 LIK     -0.083200
     12 C4         -3.0490    0.2480    0.1530 c3        1 LIK     -0.059400
     13 C5         -3.3980    1.6420   -0.3260 c3        1 LIK     -0.089400
     14 C6         -4.3420    2.3340    0.6230 c3        1 LIK     -0.087100
     15 H141        0.8480    0.7590    1.5160 hc        1 LIK      0.033700
     16 H142        2.6530    0.9570    1.5660 hc        1 LIK      0.033700
     17 HC11        3.8280   -1.1070    1.5840 ha        1 LIK      0.091500
     18 HC12        3.1260   -2.6110    0.7650 ha        1 LIK      0.091500
     19 H71         1.2040   -2.4160   -0.6560 hc        1 LIK      0.065700
     20 H72         0.6420   -0.7320   -1.0590 hc        1 LIK      0.065700
     21 H11        -0.5420   -0.8550    1.3370 hc        1 LIK      0.038700
     22 H12        -0.3050   -2.6430    1.1740 hc        1 LIK      0.038700
     23 HC31       -1.8830   -3.8530   -0.2090 ha        1 LIK      0.096000
     24 HC32       -3.1160   -2.9200   -1.2270 ha        1 LIK      0.096000
     25 H31        -2.5780   -0.5550   -1.8000 hc        1 LIK      0.083200
     26 H32        -1.1880    0.2650   -0.9600 hc        1 LIK      0.083200
     27 H41        -2.5840    0.3100    1.1720 hc        1 LIK      0.026700
     28 H42        -3.9810   -0.3680    0.2470 hc        1 LIK      0.026700
     29 H51        -3.8650    1.5810   -1.3440 hc        1 LIK      0.053700
     30 H52        -2.4520    2.2400   -0.4310 hc        1 LIK      0.053700
     31 H61        -4.5890    3.3570    0.2480 hc        1 LIK      0.021700
     32 H62        -5.2930    1.7580    0.7290 hc        1 LIK      0.021700
     33 H63        -3.8790    2.4330    1.6350 hc        1 LIK      0.021700
@<TRIPOS>BOND
     1    1    2 1   
     2    2    3 1   
     3    2    4 1   
     4    4    5 1   
     5    4   15 1   
     6    4   16 1   
     7    5    6 2   
     8    5    7 1   
     9    6   17 1   
    10    6   18 1   
    11    7    8 1   
    12    7   19 1   
    13    7   20 1   
    14    8    9 1   
    15    8   21 1   
    16    8   22 1   
    17    9   10 2   
    18    9   11 1   
    19   10   23 1   
    20   10   24 1   
    21   11   12 1   
    22   11   25 1   
    23   11   26 1   
    24   12   13 1   
    25   12   27 1   
    26   12   28 1   
    27   13   14 1   
    28   13   29 1   
    29   13   30 1   
    30   14   31 1   
    31   14   32 1   
    32   14   33 1   
@<TRIPOS>SUBSTRUCTURE
     1 LIK         1 TEMP              0 ****  ****    0 ROOT
