@<TRIPOS>MOLECULE
LIL
   85    84     1     0     0
SMALL
bcc


@<TRIPOS>ATOM
      1 C1E        -4.0850    1.2450    0.1380 c         1 LIL      0.918600
      2 C2E        -4.2780   -0.2250    0.5630 c3        1 LIL     -0.234400
      3 C3E        -3.0510   -0.8030    1.2500 c3        1 LIL      0.184100
      4 C4E        -2.7920   -0.1220    2.5880 c3        1 LIL     -0.086400
      5 C5E        -1.5790   -0.6850    3.2930 c3        1 LIL     -0.075400
      6 C6E        -1.3460    0.0080    4.6180 c3        1 LIL     -0.078400
      7 C7E        -0.1270   -0.5470    5.3240 c3        1 LIL     -0.078400
      8 C8E         0.1060    0.1480    6.6480 c3        1 LIL     -0.079400
      9 C9E         1.3250   -0.4060    7.3540 c3        1 LIL     -0.078400
     10 C0S         1.5590    0.2900    8.6780 c3        1 LIL     -0.079400
     11 C1S         2.7780   -0.2640    9.3840 c3        1 LIL     -0.078400
     12 C2S         3.0110    0.4320   10.7080 c3        1 LIL     -0.079400
     13 C3S         4.2300   -0.1210   11.4140 c3        1 LIL     -0.079400
     14 C4S         4.4640    0.5740   12.7380 c3        1 LIL     -0.080400
     15 C5S         5.6770    0.0260   13.4450 c3        1 LIL     -0.092100
     16 O1E        -4.2990    2.1480    0.9950 o         1 LIL     -0.850800
     17 O2E        -1.8700   -0.5660    0.4500 os        1 LIL     -0.449900
     18 C1F        -1.8610   -1.1110   -0.8060 c         1 LIL      0.671100
     19 C2F        -1.1850   -0.2250   -1.8030 c3        1 LIL     -0.160400
     20 C3F        -0.8260   -0.9610   -3.0710 c3        1 LIL     -0.069400
     21 C4F        -0.3090   -0.0010   -4.1210 c3        1 LIL     -0.079400
     22 C5F         0.0560   -0.7280   -5.3980 c3        1 LIL     -0.077400
     23 C6F         0.5680    0.2320   -6.4500 c3        1 LIL     -0.079400
     24 C7F         0.9320   -0.4940   -7.7280 c3        1 LIL     -0.078400
     25 C8F         1.4450    0.4660   -8.7800 c3        1 LIL     -0.079400
     26 C9F         1.8090   -0.2600  -10.0570 c3        1 LIL     -0.078400
     27 C0T         2.3210    0.7010  -11.1090 c3        1 LIL     -0.079400
     28 C1T         2.6850   -0.0250  -12.3860 c3        1 LIL     -0.079400
     29 C2T         3.1970    0.9350  -13.4390 c3        1 LIL     -0.080400
     30 C3T         3.5610    0.2170  -14.7130 c3        1 LIL     -0.092100
     31 O1F        -2.3680   -2.2240   -0.9770 o         1 LIL     -0.581000
     32 O3E        -3.7330    1.4730   -1.0570 o         1 LIL     -0.850800
     33 H2E1       -4.5030   -0.8360   -0.3470 hc        1 LIL      0.040700
     34 H2E2       -5.1460   -0.2870    1.2650 hc        1 LIL      0.040700
     35 H3E1       -3.1580   -1.9160    1.3810 h1        1 LIL      0.026700
     36 H4E1       -3.7050   -0.2590    3.2230 hc        1 LIL      0.070700
     37 H4E2       -2.6730    0.9810    2.4030 hc        1 LIL      0.070700
     38 H5E1       -0.6790   -0.5590    2.6340 hc        1 LIL      0.036200
     39 H5E2       -1.7140   -1.7860    3.4620 hc        1 LIL      0.036200
     40 H6E1       -2.2490   -0.1170    5.2720 hc        1 LIL      0.039700
     41 H6E2       -1.2140    1.1080    4.4440 hc        1 LIL      0.039700
     42 H7E1        0.7750   -0.4210    4.6690 hc        1 LIL      0.035700
     43 H7E2       -0.2600   -1.6480    5.4950 hc        1 LIL      0.035700
     44 H8E1       -0.7960    0.0230    7.3030 hc        1 LIL      0.038700
     45 H8E2        0.2390    1.2490    6.4760 hc        1 LIL      0.038700
     46 H9E1        2.2280   -0.2800    6.6990 hc        1 LIL      0.037200
     47 H9E2        1.1930   -1.5060    7.5260 hc        1 LIL      0.037200
     48 H0S1        0.6560    0.1650    9.3330 hc        1 LIL      0.038700
     49 H0S2        1.6910    1.3910    8.5060 hc        1 LIL      0.038700
     50 H1S1        3.6800   -0.1380    8.7290 hc        1 LIL      0.038200
     51 H1S2        2.6450   -1.3650    9.5560 hc        1 LIL      0.038200
     52 H2S1        2.1080    0.3070   11.3630 hc        1 LIL      0.039200
     53 H2S2        3.1430    1.5330   10.5360 hc        1 LIL      0.039200
     54 H3S1        5.1330    0.0040   10.7600 hc        1 LIL      0.038200
     55 H3S2        4.0980   -1.2220   11.5860 hc        1 LIL      0.038200
     56 H4S1        3.5600    0.4490   13.3900 hc        1 LIL      0.038200
     57 H4S2        4.5950    1.6750   12.5640 hc        1 LIL      0.038200
     58 H5S1        5.8310    0.5520   14.4180 hc        1 LIL      0.030367
     59 H5S2        5.5550   -1.0650   13.6490 hc        1 LIL      0.030367
     60 H5S3        6.5930    0.1640   12.8200 hc        1 LIL      0.030367
     61 H2F1       -1.9290    0.6090   -2.0010 hc        1 LIL      0.108200
     62 H2F2       -0.2780    0.2400   -1.3370 hc        1 LIL      0.108200
     63 H3F1       -0.0490   -1.7410   -2.8540 hc        1 LIL      0.043200
     64 H3F2       -1.7320   -1.4990   -3.4570 hc        1 LIL      0.043200
     65 H4F1       -1.0930    0.7730   -4.3370 hc        1 LIL      0.043700
     66 H4F2        0.5910    0.5410   -3.7270 hc        1 LIL      0.043700
     67 H5F1        0.8390   -1.5020   -5.1810 hc        1 LIL      0.036200
     68 H5F2       -0.8450   -1.2700   -5.7900 hc        1 LIL      0.036200
     69 H6F1       -0.2160    1.0040   -6.6660 hc        1 LIL      0.039700
     70 H6F2        1.4680    0.7750   -6.0570 hc        1 LIL      0.039700
     71 H7F1        1.7160   -1.2680   -7.5110 hc        1 LIL      0.037200
     72 H7F2        0.0320   -1.0370   -8.1200 hc        1 LIL      0.037200
     73 H8F1        0.6600    1.2380   -8.9960 hc        1 LIL      0.039200
     74 H8F2        2.3440    1.0100   -8.3860 hc        1 LIL      0.039200
     75 H9F1        2.5920   -1.0330   -9.8400 hc        1 LIL      0.037700
     76 H9F2        0.9090   -0.8030  -10.4500 hc        1 LIL      0.037700
     77 H0T1        1.5370    1.4730  -11.3260 hc        1 LIL      0.039200
     78 H0T2        3.2200    1.2440  -10.7160 hc        1 LIL      0.039200
     79 H1T1        3.4690   -0.7980  -12.1690 hc        1 LIL      0.038200
     80 H1T2        1.7860   -0.5690  -12.7800 hc        1 LIL      0.038200
     81 H2T1        2.4120    1.7070  -13.6530 hc        1 LIL      0.038200
     82 H2T2        4.0950    1.4790  -13.0430 hc        1 LIL      0.038200
     83 H3T1        3.9360    0.9420  -15.4750 hc        1 LIL      0.030367
     84 H3T2        4.3600   -0.5410  -14.5240 hc        1 LIL      0.030367
     85 H3T3        2.6720   -0.3110  -15.1360 hc        1 LIL      0.030367
@<TRIPOS>BOND
     1    1    2 1   
     2    1   16 1   
     3    1   32 1   
     4    2    3 1   
     5    2   33 1   
     6    2   34 1   
     7    3    4 1   
     8    3   17 1   
     9    3   35 1   
    10    4    5 1   
    11    4   36 1   
    12    4   37 1   
    13    5    6 1   
    14    5   38 1   
    15    5   39 1   
    16    6    7 1   
    17    6   40 1   
    18    6   41 1   
    19    7    8 1   
    20    7   42 1   
    21    7   43 1   
    22    8    9 1   
    23    8   44 1   
    24    8   45 1   
    25    9   10 1   
    26    9   46 1   
    27    9   47 1   
    28   10   11 1   
    29   10   48 1   
    30   10   49 1   
    31   11   12 1   
    32   11   50 1   
    33   11   51 1   
    34   12   13 1   
    35   12   52 1   
    36   12   53 1   
    37   13   14 1   
    38   13   54 1   
    39   13   55 1   
    40   14   15 1   
    41   14   56 1   
    42   14   57 1   
    43   15   58 1   
    44   15   59 1   
    45   15   60 1   
    46   17   18 1   
    47   18   19 1   
    48   18   31 2   
    49   19   20 1   
    50   19   61 1   
    51   19   62 1   
    52   20   21 1   
    53   20   63 1   
    54   20   64 1   
    55   21   22 1   
    56   21   65 1   
    57   21   66 1   
    58   22   23 1   
    59   22   67 1   
    60   22   68 1   
    61   23   24 1   
    62   23   69 1   
    63   23   70 1   
    64   24   25 1   
    65   24   71 1   
    66   24   72 1   
    67   25   26 1   
    68   25   73 1   
    69   25   74 1   
    70   26   27 1   
    71   26   75 1   
    72   26   76 1   
    73   27   28 1   
    74   27   77 1   
    75   27   78 1   
    76   28   29 1   
    77   28   79 1   
    78   28   80 1   
    79   29   30 1   
    80   29   81 1   
    81   29   82 1   
    82   30   83 1   
    83   30   84 1   
    84   30   85 1   
@<TRIPOS>SUBSTRUCTURE
     1 LIL         1 TEMP              0 ****  ****    0 ROOT
