@<TRIPOS>MOLECULE
LIL
   85    84     1     0     0
SMALL
bcc


@<TRIPOS>ATOM
      1 C1E        -0.0510    1.2560    1.1230 c         1 LIL      0.918600
      2 C2E         1.3180    0.6270    0.7920 c3        1 LIL     -0.234400
      3 C3E         2.0970    0.2310    2.0350 c3        1 LIL      0.184100
      4 C4E         1.4060   -0.9000    2.7870 c3        1 LIL     -0.086400
      5 C5E         2.1670   -1.3150    4.0250 c3        1 LIL     -0.075400
      6 C6E         1.4600   -2.4400    4.7500 c3        1 LIL     -0.078400
      7 C7E         2.2140   -2.8540    5.9950 c3        1 LIL     -0.078400
      8 C8E         1.5040   -3.9770    6.7220 c3        1 LIL     -0.079400
      9 C9E         2.2580   -4.3910    7.9670 c3        1 LIL     -0.078400
     10 C0S         1.5480   -5.5140    8.6930 c3        1 LIL     -0.079400
     11 C1S         2.3020   -5.9280    9.9390 c3        1 LIL     -0.078400
     12 C2S         1.5910   -7.0510   10.6640 c3        1 LIL     -0.079400
     13 C3S         2.3450   -7.4650   11.9090 c3        1 LIL     -0.079400
     14 C4S         1.6350   -8.5870   12.6360 c3        1 LIL     -0.080400
     15 C5S         2.3820   -9.0040   13.8770 c3        1 LIL     -0.092100
     16 O1E        -1.0290    0.4850    1.3320 o         1 LIL     -0.850800
     17 O2E         2.1610    1.3400    2.9620 os        1 LIL     -0.449900
     18 C1F         2.7710    2.4810    2.5120 c         1 LIL      0.671100
     19 C2F         2.1070    3.7180    3.0260 c3        1 LIL     -0.160400
     20 C3F         2.9780    4.9420    2.8660 c3        1 LIL     -0.069400
     21 C4F         2.2120    6.1960    3.2300 c3        1 LIL     -0.079400
     22 C5F         3.0750    7.4290    3.0740 c3        1 LIL     -0.077400
     23 C6F         2.3100    8.6850    3.4340 c3        1 LIL     -0.079400
     24 C7F         3.1710    9.9200    3.2770 c3        1 LIL     -0.078400
     25 C8F         2.4050   11.1750    3.6370 c3        1 LIL     -0.079400
     26 C9F         3.2660   12.4090    3.4800 c3        1 LIL     -0.078400
     27 C0T         2.5000   13.6640    3.8400 c3        1 LIL     -0.079400
     28 C1T         3.3610   14.8990    3.6830 c3        1 LIL     -0.079400
     29 C2T         2.5950   16.1550    4.0430 c3        1 LIL     -0.080400
     30 C3T         3.4490   17.3870    3.8880 c3        1 LIL     -0.092100
     31 O1F         3.7610    2.3780    1.7810 o         1 LIL     -0.581000
     32 O3E        -0.1280    2.5200    1.1540 o         1 LIL     -0.850800
     33 H2E1        1.1540   -0.2840    0.1650 hc        1 LIL      0.040700
     34 H2E2        1.9220    1.3670    0.2080 hc        1 LIL      0.040700
     35 H3E1        3.1530   -0.0530    1.7680 h1        1 LIL      0.026700
     36 H4E1        1.3100   -1.7680    2.0840 hc        1 LIL      0.070700
     37 H4E2        0.3650   -0.5630    3.0490 hc        1 LIL      0.070700
     38 H5E1        2.2730   -0.4300    4.7060 hc        1 LIL      0.036200
     39 H5E2        3.2040   -1.6410    3.7440 hc        1 LIL      0.036200
     40 H6E1        1.3520   -3.3210    4.0650 hc        1 LIL      0.039700
     41 H6E2        0.4240   -2.1100    5.0280 hc        1 LIL      0.039700
     42 H7E1        3.2500   -3.1820    5.7170 hc        1 LIL      0.035700
     43 H7E2        2.3200   -1.9720    6.6800 hc        1 LIL      0.035700
     44 H8E1        0.4690   -3.6480    7.0000 hc        1 LIL      0.038700
     45 H8E2        1.3970   -4.8590    6.0360 hc        1 LIL      0.038700
     46 H9E1        3.2940   -4.7200    7.6880 hc        1 LIL      0.037200
     47 H9E2        2.3650   -3.5090    8.6520 hc        1 LIL      0.037200
     48 H0S1        0.5120   -5.1840    8.9720 hc        1 LIL      0.038700
     49 H0S2        1.4400   -6.3960    8.0080 hc        1 LIL      0.038700
     50 H1S1        2.4090   -5.0460   10.6230 hc        1 LIL      0.038200
     51 H1S2        3.3370   -6.2570    9.6590 hc        1 LIL      0.038200
     52 H2S1        1.4830   -7.9320    9.9790 hc        1 LIL      0.039200
     53 H2S2        0.5560   -6.7210   10.9440 hc        1 LIL      0.039200
     54 H3S1        3.3800   -7.7950   11.6300 hc        1 LIL      0.038200
     55 H3S2        2.4530   -6.5830   12.5950 hc        1 LIL      0.038200
     56 H4S1        0.5990   -8.2560   12.9130 hc        1 LIL      0.038200
     57 H4S2        1.5260   -9.4670   11.9490 hc        1 LIL      0.038200
     58 H5S1        2.4790   -8.1460   14.5850 hc        1 LIL      0.030367
     59 H5S2        3.4080   -9.3600   13.6180 hc        1 LIL      0.030367
     60 H5S3        1.8420   -9.8310   14.3970 hc        1 LIL      0.030367
     61 H2F1        1.1490    3.8050    2.4230 hc        1 LIL      0.108200
     62 H2F2        1.8160    3.5690    4.0970 hc        1 LIL      0.108200
     63 H3F1        3.8890    4.8500    3.5140 hc        1 LIL      0.043200
     64 H3F2        3.3350    5.0060    1.8040 hc        1 LIL      0.043200
     65 H4F1        1.8490    6.1220    4.2890 hc        1 LIL      0.043700
     66 H4F2        1.3050    6.2820    2.5750 hc        1 LIL      0.043700
     67 H5F1        3.9820    7.3410    3.7280 hc        1 LIL      0.036200
     68 H5F2        3.4380    7.5010    2.0150 hc        1 LIL      0.036200
     69 H6F1        1.9450    8.6120    4.4920 hc        1 LIL      0.039700
     70 H6F2        1.4030    8.7720    2.7780 hc        1 LIL      0.039700
     71 H7F1        4.0780    9.8320    3.9320 hc        1 LIL      0.037200
     72 H7F2        3.5350    9.9920    2.2180 hc        1 LIL      0.037200
     73 H8F1        2.0410   11.1020    4.6950 hc        1 LIL      0.039200
     74 H8F2        1.4990   11.2620    2.9810 hc        1 LIL      0.039200
     75 H9F1        3.6300   12.4820    2.4210 hc        1 LIL      0.037700
     76 H9F2        4.1730   12.3210    4.1350 hc        1 LIL      0.037700
     77 H0T1        2.1350   13.5910    4.8980 hc        1 LIL      0.039200
     78 H0T2        1.5940   13.7520    3.1840 hc        1 LIL      0.039200
     79 H1T1        3.7250   14.9720    2.6250 hc        1 LIL      0.038200
     80 H1T2        4.2670   14.8110    4.3390 hc        1 LIL      0.038200
     81 H2T1        2.2300   16.0790    5.1010 hc        1 LIL      0.038200
     82 H2T2        1.6890   16.2400    3.3860 hc        1 LIL      0.038200
     83 H3T1        3.8020   17.4920    2.8340 hc        1 LIL      0.030367
     84 H3T2        4.3450   17.3320    4.5530 hc        1 LIL      0.030367
     85 H3T3        2.8660   18.3000    4.1580 hc        1 LIL      0.030367
@<TRIPOS>BOND
     1    1    2 1   
     2    1   16 1   
     3    1   32 1   
     4    2    3 1   
     5    2   33 1   
     6    2   34 1   
     7    3    4 1   
     8    3   17 1   
     9    3   35 1   
    10    4    5 1   
    11    4   36 1   
    12    4   37 1   
    13    5    6 1   
    14    5   38 1   
    15    5   39 1   
    16    6    7 1   
    17    6   40 1   
    18    6   41 1   
    19    7    8 1   
    20    7   42 1   
    21    7   43 1   
    22    8    9 1   
    23    8   44 1   
    24    8   45 1   
    25    9   10 1   
    26    9   46 1   
    27    9   47 1   
    28   10   11 1   
    29   10   48 1   
    30   10   49 1   
    31   11   12 1   
    32   11   50 1   
    33   11   51 1   
    34   12   13 1   
    35   12   52 1   
    36   12   53 1   
    37   13   14 1   
    38   13   54 1   
    39   13   55 1   
    40   14   15 1   
    41   14   56 1   
    42   14   57 1   
    43   15   58 1   
    44   15   59 1   
    45   15   60 1   
    46   17   18 1   
    47   18   19 1   
    48   18   31 2   
    49   19   20 1   
    50   19   61 1   
    51   19   62 1   
    52   20   21 1   
    53   20   63 1   
    54   20   64 1   
    55   21   22 1   
    56   21   65 1   
    57   21   66 1   
    58   22   23 1   
    59   22   67 1   
    60   22   68 1   
    61   23   24 1   
    62   23   69 1   
    63   23   70 1   
    64   24   25 1   
    65   24   71 1   
    66   24   72 1   
    67   25   26 1   
    68   25   73 1   
    69   25   74 1   
    70   26   27 1   
    71   26   75 1   
    72   26   76 1   
    73   27   28 1   
    74   27   77 1   
    75   27   78 1   
    76   28   29 1   
    77   28   79 1   
    78   28   80 1   
    79   29   30 1   
    80   29   81 1   
    81   29   82 1   
    82   30   83 1   
    83   30   84 1   
    84   30   85 1   
@<TRIPOS>SUBSTRUCTURE
     1 LIL         1 TEMP              0 ****  ****    0 ROOT
