@<TRIPOS>MOLECULE
LIL
   85    84     1     0     0
SMALL
bcc


@<TRIPOS>ATOM
      1 C1E        -0.0180    1.2480    1.1110 c         1 LIL      0.918600
      2 C2E         1.3530    0.6210    0.7900 c3        1 LIL     -0.234400
      3 C3E         2.1250    0.2280    2.0390 c3        1 LIL      0.184100
      4 C4E         1.4310   -0.9030    2.7870 c3        1 LIL     -0.086400
      5 C5E         2.1850   -1.3160    4.0300 c3        1 LIL     -0.075400
      6 C6E         1.4740   -2.4410    4.7520 c3        1 LIL     -0.078400
      7 C7E         2.2200   -2.8530    6.0030 c3        1 LIL     -0.078400
      8 C8E         1.5080   -3.9770    6.7250 c3        1 LIL     -0.079400
      9 C9E         2.2540   -4.3890    7.9760 c3        1 LIL     -0.078400
     10 C0S         1.5420   -5.5130    8.6970 c3        1 LIL     -0.079400
     11 C1S         2.2870   -5.9250    9.9480 c3        1 LIL     -0.078400
     12 C2S         1.5750   -7.0480   10.6690 c3        1 LIL     -0.079400
     13 C3S         2.3200   -7.4600   11.9200 c3        1 LIL     -0.079400
     14 C4S         1.6080   -8.5850   12.6430 c3        1 LIL     -0.080400
     15 C5S         2.3470   -8.9980   13.8890 c3        1 LIL     -0.092100
     16 O1E        -0.9960    0.4750    1.3140 o         1 LIL     -0.850800
     17 O2E         2.1810    1.3380    2.9650 os        1 LIL     -0.449900
     18 C1F         2.7910    2.4790    2.5180 c         1 LIL      0.671100
     19 C2F         2.1220    3.7160    3.0260 c3        1 LIL     -0.160400
     20 C3F         2.9910    4.9410    2.8710 c3        1 LIL     -0.069400
     21 C4F         2.2200    6.1940    3.2270 c3        1 LIL     -0.079400
     22 C5F         3.0820    7.4290    3.0760 c3        1 LIL     -0.077400
     23 C6F         2.3110    8.6840    3.4280 c3        1 LIL     -0.079400
     24 C7F         3.1710    9.9200    3.2750 c3        1 LIL     -0.078400
     25 C8F         2.4000   11.1740    3.6270 c3        1 LIL     -0.079400
     26 C9F         3.2600   12.4100    3.4750 c3        1 LIL     -0.078400
     27 C0T         2.4880   13.6640    3.8270 c3        1 LIL     -0.079400
     28 C1T         3.3480   14.9010    3.6750 c3        1 LIL     -0.079400
     29 C2T         2.5770   16.1550    4.0270 c3        1 LIL     -0.080400
     30 C3T         3.4290   17.3890    3.8760 c3        1 LIL     -0.092100
     31 O1F         3.7870    2.3780    1.7940 o         1 LIL     -0.581000
     32 O3E        -0.0980    2.5120    1.1400 o         1 LIL     -0.850800
     33 H2E1        1.9600    1.3620    0.2100 hc        1 LIL      0.040700
     34 H2E2        1.1960   -0.2900    0.1630 hc        1 LIL      0.040700
     35 H3E1        3.1840   -0.0540    1.7790 h1        1 LIL      0.026700
     36 H4E1        0.3880   -0.5680    3.0410 hc        1 LIL      0.070700
     37 H4E2        1.3420   -1.7720    2.0840 hc        1 LIL      0.070700
     38 H5E1        3.2230   -1.6410    3.7570 hc        1 LIL      0.036200
     39 H5E2        2.2840   -0.4300    4.7120 hc        1 LIL      0.036200
     40 H6E1        0.4360   -2.1130    5.0220 hc        1 LIL      0.039700
     41 H6E2        1.3730   -3.3240    4.0660 hc        1 LIL      0.039700
     42 H7E1        2.3200   -1.9700    6.6870 hc        1 LIL      0.035200
     43 H7E2        3.2590   -3.1790    5.7310 hc        1 LIL      0.035200
     44 H8E1        1.4070   -4.8600    6.0390 hc        1 LIL      0.038700
     45 H8E2        0.4700   -3.6500    6.9960 hc        1 LIL      0.038700
     46 H9E1        2.3540   -3.5060    8.6610 hc        1 LIL      0.037200
     47 H9E2        3.2930   -4.7150    7.7040 hc        1 LIL      0.037200
     48 H0S1        1.4410   -6.3950    8.0120 hc        1 LIL      0.038700
     49 H0S2        0.5030   -5.1860    8.9690 hc        1 LIL      0.038700
     50 H1S1        3.3260   -6.2510    9.6770 hc        1 LIL      0.038200
     51 H1S2        2.3880   -5.0420   10.6340 hc        1 LIL      0.038200
     52 H2S1        0.5360   -6.7210   10.9410 hc        1 LIL      0.039200
     53 H2S2        1.4740   -7.9310    9.9840 hc        1 LIL      0.039200
     54 H3S1        3.3590   -7.7870   11.6490 hc        1 LIL      0.038200
     55 H3S2        2.4210   -6.5780   12.6060 hc        1 LIL      0.038200
     56 H4S1        1.5070   -9.4650   11.9540 hc        1 LIL      0.038200
     57 H4S2        0.5700   -8.2560   12.9120 hc        1 LIL      0.038200
     58 H5S1        2.4360   -8.1390   14.5980 hc        1 LIL      0.030367
     59 H5S2        3.3770   -9.3520   13.6380 hc        1 LIL      0.030367
     60 H5S3        1.8060   -9.8270   14.4050 hc        1 LIL      0.030367
     61 H2F1        1.8240    3.5680    4.0960 hc        1 LIL      0.108200
     62 H2F2        1.1680    3.8010    2.4160 hc        1 LIL      0.108200
     63 H3F1        3.8970    4.8520    3.5250 hc        1 LIL      0.043200
     64 H3F2        3.3560    5.0040    1.8110 hc        1 LIL      0.043200
     65 H4F1        1.8490    6.1210    4.2830 hc        1 LIL      0.043700
     66 H4F2        1.3180    6.2780    2.5650 hc        1 LIL      0.043700
     67 H5F1        3.4530    7.5000    2.0190 hc        1 LIL      0.036200
     68 H5F2        3.9840    7.3440    3.7370 hc        1 LIL      0.036200
     69 H6F1        1.4100    8.7680    2.7650 hc        1 LIL      0.039700
     70 H6F2        1.9390    8.6120    4.4840 hc        1 LIL      0.039700
     71 H7F1        3.5430    9.9910    2.2190 hc        1 LIL      0.037200
     72 H7F2        4.0730    9.8350    3.9370 hc        1 LIL      0.037200
     73 H8F1        1.4980   11.2580    2.9650 hc        1 LIL      0.039200
     74 H8F2        2.0280   11.1020    4.6830 hc        1 LIL      0.039200
     75 H9F1        4.1620   12.3250    4.1370 hc        1 LIL      0.037700
     76 H9F2        3.6310   12.4820    2.4190 hc        1 LIL      0.037700
     77 H0T1        2.1160   13.5920    4.8830 hc        1 LIL      0.039200
     78 H0T2        1.5870   13.7490    3.1650 hc        1 LIL      0.039200
     79 H1T1        4.2500   14.8160    4.3370 hc        1 LIL      0.038200
     80 H1T2        3.7190   14.9720    2.6180 hc        1 LIL      0.038200
     81 H2T1        2.2050   16.0810    5.0830 hc        1 LIL      0.038200
     82 H2T2        1.6750   16.2370    3.3650 hc        1 LIL      0.038200
     83 H3T1        2.8420   18.3020    4.1410 hc        1 LIL      0.030367
     84 H3T2        4.3210   17.3370    4.5470 hc        1 LIL      0.030367
     85 H3T3        3.7890   17.4940    2.8240 hc        1 LIL      0.030367
@<TRIPOS>BOND
     1    1    2 1   
     2    1   16 1   
     3    1   32 1   
     4    2    3 1   
     5    2   33 1   
     6    2   34 1   
     7    3    4 1   
     8    3   17 1   
     9    3   35 1   
    10    4    5 1   
    11    4   36 1   
    12    4   37 1   
    13    5    6 1   
    14    5   38 1   
    15    5   39 1   
    16    6    7 1   
    17    6   40 1   
    18    6   41 1   
    19    7    8 1   
    20    7   42 1   
    21    7   43 1   
    22    8    9 1   
    23    8   44 1   
    24    8   45 1   
    25    9   10 1   
    26    9   46 1   
    27    9   47 1   
    28   10   11 1   
    29   10   48 1   
    30   10   49 1   
    31   11   12 1   
    32   11   50 1   
    33   11   51 1   
    34   12   13 1   
    35   12   52 1   
    36   12   53 1   
    37   13   14 1   
    38   13   54 1   
    39   13   55 1   
    40   14   15 1   
    41   14   56 1   
    42   14   57 1   
    43   15   58 1   
    44   15   59 1   
    45   15   60 1   
    46   17   18 1   
    47   18   19 1   
    48   18   31 2   
    49   19   20 1   
    50   19   61 1   
    51   19   62 1   
    52   20   21 1   
    53   20   63 1   
    54   20   64 1   
    55   21   22 1   
    56   21   65 1   
    57   21   66 1   
    58   22   23 1   
    59   22   67 1   
    60   22   68 1   
    61   23   24 1   
    62   23   69 1   
    63   23   70 1   
    64   24   25 1   
    65   24   71 1   
    66   24   72 1   
    67   25   26 1   
    68   25   73 1   
    69   25   74 1   
    70   26   27 1   
    71   26   75 1   
    72   26   76 1   
    73   27   28 1   
    74   27   77 1   
    75   27   78 1   
    76   28   29 1   
    77   28   79 1   
    78   28   80 1   
    79   29   30 1   
    80   29   81 1   
    81   29   82 1   
    82   30   83 1   
    83   30   84 1   
    84   30   85 1   
@<TRIPOS>SUBSTRUCTURE
     1 LIL         1 TEMP              0 ****  ****    0 ROOT
