@<TRIPOS>MOLECULE
LIM
   45    44     1     0     0
SMALL
bcc


@<TRIPOS>ATOM
      1 C1J         1.3860   -1.2430   -0.2220 c         1 LIM      0.924600
      2 C2J         1.3730    0.2680    0.1330 c3        1 LIM     -0.312400
      3 C3J         1.7790    0.5490    1.5380 c         1 LIM      0.600100
      4 C4J         3.2180    0.2560    1.8610 c3        1 LIM     -0.204400
      5 C5J         3.5570    0.4750    3.3170 c3        1 LIM     -0.067400
      6 C6J         5.0070    0.1430    3.5960 c3        1 LIM     -0.078400
      7 C7J         5.3480    0.3490    5.0560 c3        1 LIM     -0.078400
      8 C8J         6.7980    0.0180    5.3370 c3        1 LIM     -0.079400
      9 C9J         7.1390    0.2230    6.7970 c3        1 LIM     -0.078400
     10 C0X         8.5890   -0.1080    7.0770 c3        1 LIM     -0.079400
     11 C1X         8.9290    0.0970    8.5370 c3        1 LIM     -0.078400
     12 C2X        10.3790   -0.2330    8.8170 c3        1 LIM     -0.079400
     13 C3X        10.7200   -0.0290   10.2770 c3        1 LIM     -0.079400
     14 C4X        12.1700   -0.3590   10.5580 c3        1 LIM     -0.080400
     15 C5X        12.5140   -0.1570   12.0110 c3        1 LIM     -0.092100
     16 O1J         2.4350   -1.9090    0.0080 o         1 LIM     -0.832300
     17 O2J         0.9950    1.0020    2.3880 o         1 LIM     -0.608100
     18 O3J         0.3510   -1.7090   -0.7680 o         1 LIM     -0.832300
     19 H2J1        2.0910    0.7670   -0.5640 hc        1 LIM      0.051700
     20 H2J2        0.3440    0.6650   -0.0570 hc        1 LIM      0.051700
     21 H4J1        3.4090   -0.8160    1.5570 hc        1 LIM      0.088700
     22 H4J2        3.8650    0.9020    1.2120 hc        1 LIM      0.088700
     23 H5J1        2.8890   -0.1650    3.9510 hc        1 LIM      0.040700
     24 H5J2        3.3470    1.5400    3.5980 hc        1 LIM      0.040700
     25 H6J1        5.2090   -0.9220    3.3080 hc        1 LIM      0.037700
     26 H6J2        5.6710    0.7880    2.9610 hc        1 LIM      0.037700
     27 H7J1        5.1430    1.4140    5.3440 hc        1 LIM      0.036700
     28 H7J2        4.6850   -0.2970    5.6900 hc        1 LIM      0.036700
     29 H8J1        7.4610    0.6650    4.7020 hc        1 LIM      0.038200
     30 H8J2        7.0020   -1.0460    5.0480 hc        1 LIM      0.038200
     31 H9J1        6.9330    1.2880    7.0850 hc        1 LIM      0.037200
     32 H9J2        6.4760   -0.4240    7.4310 hc        1 LIM      0.037200
     33 H0X1        9.2510    0.5390    6.4420 hc        1 LIM      0.038700
     34 H0X2        8.7930   -1.1720    6.7880 hc        1 LIM      0.038700
     35 H1X1        8.2670   -0.5500    9.1710 hc        1 LIM      0.038200
     36 H1X2        8.7230    1.1620    8.8260 hc        1 LIM      0.038200
     37 H2X1       11.0410    0.4130    8.1820 hc        1 LIM      0.038200
     38 H2X2       10.5840   -1.2980    8.5280 hc        1 LIM      0.038200
     39 H3X1       10.0580   -0.6760   10.9120 hc        1 LIM      0.038200
     40 H3X2       10.5140    1.0360   10.5660 hc        1 LIM      0.038200
     41 H4X1       12.3730   -1.4240   10.2670 hc        1 LIM      0.037700
     42 H4X2       12.8300    0.2880    9.9210 hc        1 LIM      0.037700
     43 H5X1       13.5860   -0.4060   12.1950 hc        1 LIM      0.030367
     44 H5X2       12.3410    0.9050   12.3130 hc        1 LIM      0.030367
     45 H5X3       11.8830   -0.8110   12.6600 hc        1 LIM      0.030367
@<TRIPOS>BOND
     1    1    2 1   
     2    1   16 1   
     3    1   18 1   
     4    2    3 1   
     5    2   19 1   
     6    2   20 1   
     7    3    4 1   
     8    3   17 2   
     9    4    5 1   
    10    4   21 1   
    11    4   22 1   
    12    5    6 1   
    13    5   23 1   
    14    5   24 1   
    15    6    7 1   
    16    6   25 1   
    17    6   26 1   
    18    7    8 1   
    19    7   27 1   
    20    7   28 1   
    21    8    9 1   
    22    8   29 1   
    23    8   30 1   
    24    9   10 1   
    25    9   31 1   
    26    9   32 1   
    27   10   11 1   
    28   10   33 1   
    29   10   34 1   
    30   11   12 1   
    31   11   35 1   
    32   11   36 1   
    33   12   13 1   
    34   12   37 1   
    35   12   38 1   
    36   13   14 1   
    37   13   39 1   
    38   13   40 1   
    39   14   15 1   
    40   14   41 1   
    41   14   42 1   
    42   15   43 1   
    43   15   44 1   
    44   15   45 1   
@<TRIPOS>SUBSTRUCTURE
     1 LIM         1 TEMP              0 ****  ****    0 ROOT
