@<TRIPOS>MOLECULE
LIM
   45    44     1     0     0
SMALL
bcc


@<TRIPOS>ATOM
      1 C1J         1.3410   -1.2360   -0.1830 c         1 LIM      0.924600
      2 C2J         1.3550    0.2800    0.1510 c3        1 LIM     -0.312400
      3 C3J         1.7720    0.5740    1.5510 c         1 LIM      0.600100
      4 C4J         3.2060    0.2620    1.8720 c3        1 LIM     -0.204400
      5 C5J         3.5550    0.4950    3.3230 c3        1 LIM     -0.067400
      6 C6J         5.0010    0.1430    3.6010 c3        1 LIM     -0.078400
      7 C7J         5.3510    0.3630    5.0570 c3        1 LIM     -0.078400
      8 C8J         6.7960    0.0120    5.3360 c3        1 LIM     -0.079400
      9 C9J         7.1460    0.2310    6.7930 c3        1 LIM     -0.078400
     10 C0X         8.5920   -0.1210    7.0710 c3        1 LIM     -0.079400
     11 C1X         8.9410    0.0990    8.5280 c3        1 LIM     -0.078400
     12 C2X        10.3870   -0.2530    8.8060 c3        1 LIM     -0.079400
     13 C3X        10.7360   -0.0330   10.2620 c3        1 LIM     -0.079400
     14 C4X        12.1820   -0.3850   10.5420 c3        1 LIM     -0.080400
     15 C5X        12.5350   -0.1680   11.9910 c3        1 LIM     -0.092100
     16 O1J         2.3810   -1.9150    0.0520 o         1 LIM     -0.832300
     17 O2J         0.9980    1.0520    2.3970 o         1 LIM     -0.608100
     18 O3J         0.2960   -1.6920   -0.7180 o         1 LIM     -0.832300
     19 H2J1        2.0790    0.7580   -0.5560 hc        1 LIM      0.051700
     20 H2J2        0.3320    0.6910   -0.0410 hc        1 LIM      0.051700
     21 H4J1        3.3790   -0.8180    1.5820 hc        1 LIM      0.088700
     22 H4J2        3.8610    0.8880    1.2110 hc        1 LIM      0.088700
     23 H5J1        2.8800   -0.1250    3.9690 hc        1 LIM      0.040700
     24 H5J2        3.3650    1.5680    3.5900 hc        1 LIM      0.040700
     25 H6J1        5.1830   -0.9300    3.3270 hc        1 LIM      0.037700
     26 H6J2        5.6720    0.7670    2.9540 hc        1 LIM      0.037700
     27 H7J1        5.1650    1.4350    5.3300 hc        1 LIM      0.036700
     28 H7J2        4.6800   -0.2630    5.7020 hc        1 LIM      0.036700
     29 H8J1        7.4670    0.6370    4.6900 hc        1 LIM      0.038200
     30 H8J2        6.9810   -1.0610    5.0620 hc        1 LIM      0.038200
     31 H9J1        6.9600    1.3030    7.0660 hc        1 LIM      0.037200
     32 H9J2        6.4750   -0.3950    7.4380 hc        1 LIM      0.037200
     33 H0X1        9.2620    0.5050    6.4250 hc        1 LIM      0.038700
     34 H0X2        8.7770   -1.1930    6.7980 hc        1 LIM      0.038700
     35 H1X1        8.2710   -0.5270    9.1740 hc        1 LIM      0.038200
     36 H1X2        8.7550    1.1710    8.8010 hc        1 LIM      0.038200
     37 H2X1       11.0570    0.3730    8.1600 hc        1 LIM      0.038200
     38 H2X2       10.5720   -1.3250    8.5320 hc        1 LIM      0.038200
     39 H3X1       10.0660   -0.6590   10.9080 hc        1 LIM      0.038200
     40 H3X2       10.5510    1.0390   10.5360 hc        1 LIM      0.038200
     41 H4X1       12.3660   -1.4570   10.2660 hc        1 LIM      0.037700
     42 H4X2       12.8510    0.2410    9.8930 hc        1 LIM      0.037700
     43 H5X1       13.6040   -0.4320   12.1750 hc        1 LIM      0.030367
     44 H5X2       12.3820    0.9010   12.2780 hc        1 LIM      0.030367
     45 H5X3       11.8950   -0.8020   12.6510 hc        1 LIM      0.030367
@<TRIPOS>BOND
     1    1    2 1   
     2    1   16 1   
     3    1   18 1   
     4    2    3 1   
     5    2   19 1   
     6    2   20 1   
     7    3    4 1   
     8    3   17 2   
     9    4    5 1   
    10    4   21 1   
    11    4   22 1   
    12    5    6 1   
    13    5   23 1   
    14    5   24 1   
    15    6    7 1   
    16    6   25 1   
    17    6   26 1   
    18    7    8 1   
    19    7   27 1   
    20    7   28 1   
    21    8    9 1   
    22    8   29 1   
    23    8   30 1   
    24    9   10 1   
    25    9   31 1   
    26    9   32 1   
    27   10   11 1   
    28   10   33 1   
    29   10   34 1   
    30   11   12 1   
    31   11   35 1   
    32   11   36 1   
    33   12   13 1   
    34   12   37 1   
    35   12   38 1   
    36   13   14 1   
    37   13   39 1   
    38   13   40 1   
    39   14   15 1   
    40   14   41 1   
    41   14   42 1   
    42   15   43 1   
    43   15   44 1   
    44   15   45 1   
@<TRIPOS>SUBSTRUCTURE
     1 LIM         1 TEMP              0 ****  ****    0 ROOT
