@<TRIPOS>MOLECULE
LIM
   45    44     1     0     0
SMALL
bcc


@<TRIPOS>ATOM
      1 C1J         0.8160    1.3120   -6.3880 c         1 LIM      0.924600
      2 C2J         0.6840   -0.2170   -6.1580 c3        1 LIM     -0.312400
      3 C3J        -0.0440   -0.5670   -4.9070 c         1 LIM      0.600100
      4 C4J         0.6650   -0.2090   -3.6310 c3        1 LIM     -0.204400
      5 C5J        -0.1510   -0.5040   -2.3940 c3        1 LIM     -0.067400
      6 C6J         0.5930   -0.1030   -1.1390 c3        1 LIM     -0.078400
      7 C7J        -0.2270   -0.3850    0.1020 c3        1 LIM     -0.078400
      8 C8J         0.5170    0.0150    1.3580 c3        1 LIM     -0.079400
      9 C9J        -0.3040   -0.2660    2.5980 c3        1 LIM     -0.078400
     10 C0X         0.4410    0.1350    3.8540 c3        1 LIM     -0.079400
     11 C1X        -0.3800   -0.1470    5.0940 c3        1 LIM     -0.078400
     12 C2X         0.3640    0.2540    6.3500 c3        1 LIM     -0.079400
     13 C3X        -0.4570   -0.0280    7.5900 c3        1 LIM     -0.079400
     14 C4X         0.2870    0.3730    8.8460 c3        1 LIM     -0.080400
     15 C5X        -0.5260    0.0950   10.0840 c3        1 LIM     -0.092100
     16 O1J         1.2960    2.0240   -5.4610 o         1 LIM     -0.832300
     17 O2J        -1.1540   -1.1230   -4.9070 o         1 LIM     -0.608100
     18 O3J         0.4730    1.7500   -7.5190 o         1 LIM     -0.832300
     19 H2J1        1.7260   -0.6230   -6.1040 hc        1 LIM      0.051700
     20 H2J2        0.1650   -0.6620   -7.0430 hc        1 LIM      0.051700
     21 H4J1        0.9190    0.8910   -3.6960 hc        1 LIM      0.088700
     22 H4J2        1.6350   -0.7690   -3.5960 hc        1 LIM      0.088700
     23 H5J1       -0.4020   -1.5970   -2.3580 hc        1 LIM      0.040700
     24 H5J2       -1.1250    0.0500   -2.4540 hc        1 LIM      0.040700
     25 H6J1        0.8430    0.9900   -1.1860 hc        1 LIM      0.037700
     26 H6J2        1.5650   -0.6610   -1.0820 hc        1 LIM      0.037700
     27 H7J1       -0.4790   -1.4780    0.1450 hc        1 LIM      0.036700
     28 H7J2       -1.1970    0.1750    0.0440 hc        1 LIM      0.036700
     29 H8J1        0.7680    1.1080    1.3120 hc        1 LIM      0.038200
     30 H8J2        1.4880   -0.5440    1.4140 hc        1 LIM      0.038200
     31 H9J1       -0.5560   -1.3580    2.6430 hc        1 LIM      0.037200
     32 H9J2       -1.2740    0.2940    2.5410 hc        1 LIM      0.037200
     33 H0X1        0.6920    1.2270    3.8090 hc        1 LIM      0.038700
     34 H0X2        1.4110   -0.4250    3.9100 hc        1 LIM      0.038700
     35 H1X1       -0.6320   -1.2390    5.1390 hc        1 LIM      0.038200
     36 H1X2       -1.3510    0.4140    5.0370 hc        1 LIM      0.038200
     37 H2X1        0.6160    1.3460    6.3050 hc        1 LIM      0.038200
     38 H2X2        1.3350   -0.3060    6.4060 hc        1 LIM      0.038200
     39 H3X1       -0.7080   -1.1200    7.6350 hc        1 LIM      0.038200
     40 H3X2       -1.4270    0.5330    7.5340 hc        1 LIM      0.038200
     41 H4X1        0.5390    1.4650    8.7990 hc        1 LIM      0.037700
     42 H4X2        1.2580   -0.1870    8.9000 hc        1 LIM      0.037700
     43 H5X1        0.0400    0.3970   10.9980 hc        1 LIM      0.030367
     44 H5X2       -1.4870    0.6630   10.0600 hc        1 LIM      0.030367
     45 H5X3       -0.7660   -0.9930   10.1620 hc        1 LIM      0.030367
@<TRIPOS>BOND
     1    1    2 1   
     2    1   16 1   
     3    1   18 1   
     4    2    3 1   
     5    2   19 1   
     6    2   20 1   
     7    3    4 1   
     8    3   17 2   
     9    4    5 1   
    10    4   21 1   
    11    4   22 1   
    12    5    6 1   
    13    5   23 1   
    14    5   24 1   
    15    6    7 1   
    16    6   25 1   
    17    6   26 1   
    18    7    8 1   
    19    7   27 1   
    20    7   28 1   
    21    8    9 1   
    22    8   29 1   
    23    8   30 1   
    24    9   10 1   
    25    9   31 1   
    26    9   32 1   
    27   10   11 1   
    28   10   33 1   
    29   10   34 1   
    30   11   12 1   
    31   11   35 1   
    32   11   36 1   
    33   12   13 1   
    34   12   37 1   
    35   12   38 1   
    36   13   14 1   
    37   13   39 1   
    38   13   40 1   
    39   14   15 1   
    40   14   41 1   
    41   14   42 1   
    42   15   43 1   
    43   15   44 1   
    44   15   45 1   
@<TRIPOS>SUBSTRUCTURE
     1 LIM         1 TEMP              0 ****  ****    0 ROOT
