@<TRIPOS>MOLECULE
LIN
   12    11     1     0     0
SMALL
bcc


@<TRIPOS>ATOM
      1 C1I        -0.2540    0.4660   -0.8690 c         1 LIN      0.925600
      2 C2I        -1.0220   -0.5140    0.0570 c3        1 LIN     -0.312400
      3 C3I        -0.3320   -0.7650    1.3530 c         1 LIN      0.598100
      4 C4I        -0.2420    0.4020    2.2850 c3        1 LIN     -0.214100
      5 O1I         0.0880    1.5920   -0.4070 o         1 LIN     -0.833300
      6 O2I         0.1370   -1.8720    1.6650 o         1 LIN     -0.613100
      7 O3I        -0.0550    0.0920   -2.0550 o         1 LIN     -0.833300
      8 H2I1       -1.1730   -1.4750   -0.4940 hc        1 LIN      0.050700
      9 H2I2       -2.0200   -0.0480    0.2590 hc        1 LIN      0.050700
     10 H4I1        0.3880    0.1650    3.1740 hc        1 LIN      0.060700
     11 H4I2        0.1970    1.2690    1.7190 hc        1 LIN      0.060700
     12 H4I3       -1.2660    0.6880    2.6270 hc        1 LIN      0.060700
@<TRIPOS>BOND
     1    1    2 1   
     2    1    5 1   
     3    1    7 1   
     4    2    3 1   
     5    2    8 1   
     6    2    9 1   
     7    3    4 1   
     8    3    6 2   
     9    4   10 1   
    10    4   11 1   
    11    4   12 1   
@<TRIPOS>SUBSTRUCTURE
     1 LIN         1 TEMP              0 ****  ****    0 ROOT
