@<TRIPOS>MOLECULE
LIN
   12    11     1     0     0
SMALL
bcc


@<TRIPOS>ATOM
      1 C1I        -0.0620   -0.0000   -0.1060 c         1 LIN      0.919600
      2 C2I         1.4590   -0.0000    0.1620 c3        1 LIN     -0.298400
      3 C3I         1.9640   -0.0000    1.5620 c         1 LIN      0.580100
      4 C4I         3.4760    0.0000    1.6390 c3        1 LIN     -0.220100
      5 O1I        -0.8880    0.0000    0.8410 o         1 LIN     -0.832800
      6 O2I         1.3120   -0.0000    2.6080 o         1 LIN     -0.523100
      7 O3I        -0.3810    0.0000   -1.3330 o         1 LIN     -0.832800
      8 H2I1        1.8770    0.9050   -0.3530 hc        1 LIN      0.047700
      9 H2I2        1.8770   -0.9050   -0.3530 hc        1 LIN      0.047700
     10 H4I1        3.8240    0.0000    2.6990 hc        1 LIN      0.037700
     11 H4I2        3.8770   -0.9060    1.1260 hc        1 LIN      0.037700
     12 H4I3        3.8770    0.9060    1.1260 hc        1 LIN      0.037700
@<TRIPOS>BOND
     1    1    2 1   
     2    1    5 1   
     3    1    7 1   
     4    2    3 1   
     5    2    8 1   
     6    2    9 1   
     7    3    4 1   
     8    3    6 2   
     9    4   10 1   
    10    4   11 1   
    11    4   12 1   
@<TRIPOS>SUBSTRUCTURE
     1 LIN         1 TEMP              0 ****  ****    0 ROOT
