@<TRIPOS>MOLECULE
LIN
   12    11     1     0     0
SMALL
bcc


@<TRIPOS>ATOM
      1 C1I         0.5970   -0.6610   -0.1770 c         1 LIN      0.925600
      2 C2I         1.5130    0.5790   -0.0000 c3        1 LIN     -0.312400
      3 C3I         2.0160    0.7490    1.3910 c         1 LIN      0.598100
      4 C4I         2.9630   -0.3020    1.8780 c3        1 LIN     -0.214100
      5 O1I         1.0260   -1.7880    0.2020 o         1 LIN     -0.833300
      6 O2I         1.6890    1.7030    2.1160 o         1 LIN     -0.613100
      7 O3I        -0.5150   -0.4730   -0.7370 o         1 LIN     -0.833300
      8 H2I1        0.9420    1.4870   -0.3190 hc        1 LIN      0.050700
      9 H2I2        2.3840    0.4350   -0.6890 hc        1 LIN      0.050700
     10 H4I1        3.1980   -0.1680    2.9590 hc        1 LIN      0.060700
     11 H4I2        2.4900   -1.3070    1.7060 hc        1 LIN      0.060700
     12 H4I3        3.9100   -0.2540    1.2880 hc        1 LIN      0.060700
@<TRIPOS>BOND
     1    1    2 1   
     2    1    5 1   
     3    1    7 1   
     4    2    3 1   
     5    2    8 1   
     6    2    9 1   
     7    3    4 1   
     8    3    6 2   
     9    4   10 1   
    10    4   11 1   
    11    4   12 1   
@<TRIPOS>SUBSTRUCTURE
     1 LIN         1 TEMP              0 ****  ****    0 ROOT
