@<TRIPOS>MOLECULE
LIO
  109   108     1     0     0
SMALL
bcc


@<TRIPOS>ATOM
      1 C1         -3.0330    2.8810    1.1990 c3        1 LIO      0.175400
      2 C2         -3.4890    2.0940   -0.0340 c3        1 LIO      0.135100
      3 C3         -2.3600    1.8770   -1.0400 c3        1 LIO      0.112400
      4 C4          0.5710    5.2480    1.5990 c3        1 LIO      0.197400
      5 C5          1.2260    5.1700    0.2060 c3        1 LIO      0.079800
      6 C6          0.4950    7.4480   -0.4320 c3        1 LIO      0.075433
      7 C7          1.6180    6.0010   -2.0320 c3        1 LIO      0.075433
      8 C8         -0.6550    5.5130   -1.3660 c3        1 LIO      0.075433
      9 C11        -0.0370    1.4570   -0.5610 c         1 LIO      0.664100
     10 C12         0.8860    0.6080    0.2580 c3        1 LIO     -0.135400
     11 C13         2.2160    0.4100   -0.4360 c3        1 LIO     -0.075400
     12 C14         3.1860   -0.3280    0.4610 c3        1 LIO     -0.080400
     13 C15         4.5130   -0.5460   -0.2330 c3        1 LIO     -0.078400
     14 C16         5.4870   -1.2790    0.6650 c3        1 LIO     -0.079400
     15 C17         6.8150   -1.4980   -0.0290 c3        1 LIO     -0.078400
     16 C18         7.7890   -2.2300    0.8700 c3        1 LIO     -0.079400
     17 C19         9.1170   -2.4490    0.1770 c3        1 LIO     -0.078400
     18 C20        10.0910   -3.1800    1.0750 c3        1 LIO     -0.079400
     19 C21        11.4190   -3.4000    0.3830 c3        1 LIO     -0.078400
     20 C22        12.3930   -4.1310    1.2810 c3        1 LIO     -0.079400
     21 C23        13.7210   -4.3500    0.5890 c3        1 LIO     -0.079400
     22 C24        14.6960   -5.0820    1.4860 c3        1 LIO     -0.080400
     23 C25        16.0200   -5.3020    0.8010 c3        1 LIO     -0.092100
     24 C32        -5.2850   -1.1420    0.3410 c3        1 LIO     -0.127400
     25 C33        -6.7320   -1.4350    0.0030 c3        1 LIO     -0.079400
     26 C34        -7.1520   -2.7780    0.5590 c3        1 LIO     -0.078400
     27 C35        -8.6030   -3.0690    0.2410 c3        1 LIO     -0.079400
     28 C36        -9.0250   -4.4150    0.7920 c3        1 LIO     -0.078400
     29 C37       -10.4760   -4.7060    0.4760 c3        1 LIO     -0.079400
     30 C38       -10.8990   -6.0510    1.0260 c3        1 LIO     -0.079400
     31 C39       -12.3510   -6.3430    0.7100 c3        1 LIO     -0.080400
     32 C40       -12.7770   -7.6820    1.2560 c3        1 LIO     -0.092100
     33 N           0.6580    6.0380   -0.8870 n4        1 LIO     -0.576800
     34 O2         -3.9810    0.8440    0.4740 os        1 LIO     -0.426900
     35 O3         -1.3370    1.0800   -0.4250 os        1 LIO     -0.419900
     36 O11         0.2510    2.4080   -1.3000 o         1 LIO     -0.610000
     37 O31        -5.0920    0.5460   -1.4480 o         1 LIO     -0.555000
     38 O1P        -1.8300    6.4330    1.3240 o         1 LIO     -0.814500
     39 O2P        -2.5060    4.7280    3.2650 o         1 LIO     -0.814500
     40 O3P        -2.7560    4.1910    0.7840 os        1 LIO     -0.580200
     41 O4P        -0.5180    4.4050    1.6840 os        1 LIO     -0.577200
     42 P          -2.0220    5.0970    1.9360 p5        1 LIO      1.438800
     43 H11        -3.8390    2.9020    1.9800 h1        1 LIO      0.056700
     44 H12        -2.1030    2.4250    1.6360 h1        1 LIO      0.056700
     45 H21        -4.3170    2.6420   -0.5650 h1        1 LIO      0.087700
     46 H31        -1.9630    2.8770   -1.3570 h1        1 LIO      0.074700
     47 H32        -2.7240    1.2880   -1.9230 h1        1 LIO      0.074700
     48 H41         0.2990    6.3050    1.8710 h1        1 LIO      0.053200
     49 H42         1.3650    4.8700    2.3110 h1        1 LIO      0.053200
     50 H51         2.3070    5.4630    0.3180 hx        1 LIO      0.091200
     51 H52         1.1520    4.1010   -0.1540 hx        1 LIO      0.091200
     52 H61         1.4240    7.7720    0.1020 hx        1 LIO      0.100811
     53 H62         0.3210    8.1020   -1.3260 hx        1 LIO      0.100811
     54 H63        -0.4000    7.5240    0.2590 hx        1 LIO      0.100811
     55 H71         1.7800    4.9340   -2.3400 hx        1 LIO      0.100811
     56 H72         1.1910    6.5780   -2.8940 hx        1 LIO      0.100811
     57 H73         2.5920    6.4610   -1.7210 hx        1 LIO      0.100811
     58 H81        -1.3930    5.5310   -0.5050 hx        1 LIO      0.100811
     59 H82        -1.0290    6.1700   -2.1920 hx        1 LIO      0.100811
     60 H83        -0.5230    4.4580   -1.7260 hx        1 LIO      0.100811
     61 H121        0.4000   -0.3810    0.4690 hc        1 LIO      0.088700
     62 H122        1.0280    1.1340    1.2420 hc        1 LIO      0.088700
     63 H131        2.6420    1.4080   -0.7220 hc        1 LIO      0.049700
     64 H132        2.0630   -0.1670   -1.3860 hc        1 LIO      0.049700
     65 H141        2.7480   -1.3190    0.7550 hc        1 LIO      0.044700
     66 H142        3.3460    0.2560    1.4060 hc        1 LIO      0.044700
     67 H151        4.9490    0.4430   -0.5320 hc        1 LIO      0.039700
     68 H152        4.3540   -1.1350   -1.1750 hc        1 LIO      0.039700
     69 H161        5.0510   -2.2680    0.9640 hc        1 LIO      0.041700
     70 H162        5.6470   -0.6900    1.6070 hc        1 LIO      0.041700
     71 H171        7.2500   -0.5090   -0.3290 hc        1 LIO      0.038700
     72 H172        6.6550   -2.0880   -0.9690 hc        1 LIO      0.038700
     73 H181        7.3530   -3.2190    1.1700 hc        1 LIO      0.040200
     74 H182        7.9490   -1.6400    1.8110 hc        1 LIO      0.040200
     75 H191        9.5520   -1.4600   -0.1240 hc        1 LIO      0.039200
     76 H192        8.9570   -3.0390   -0.7640 hc        1 LIO      0.039200
     77 H201        9.6550   -4.1700    1.3760 hc        1 LIO      0.040200
     78 H202       10.2500   -2.5900    2.0160 hc        1 LIO      0.040200
     79 H211       11.8540   -2.4100    0.0820 hc        1 LIO      0.039200
     80 H212       11.2590   -3.9900   -0.5580 hc        1 LIO      0.039200
     81 H221       11.9570   -5.1200    1.5820 hc        1 LIO      0.039700
     82 H222       12.5520   -3.5410    2.2220 hc        1 LIO      0.039700
     83 H231       14.1570   -3.3610    0.2880 hc        1 LIO      0.039200
     84 H232       13.5620   -4.9410   -0.3520 hc        1 LIO      0.039200
     85 H241       14.2580   -6.0700    1.7870 hc        1 LIO      0.038700
     86 H242       14.8530   -4.4910    2.4280 hc        1 LIO      0.038700
     87 H251       16.7230   -5.8430    1.4800 hc        1 LIO      0.032700
     88 H252       15.8870   -5.9110   -0.1260 hc        1 LIO      0.032700
     89 H253       16.4840   -4.3270    0.5160 hc        1 LIO      0.032700
     90 H321       -4.6220   -1.9720   -0.0250 hc        1 LIO      0.079200
     91 H322       -5.1480   -1.0570    1.4510 hc        1 LIO      0.079200
     92 H331       -7.3870   -0.6280    0.4250 hc        1 LIO      0.057700
     93 H332       -6.8660   -1.4210   -1.1120 hc        1 LIO      0.057700
     94 H341       -6.5030   -3.5850    0.1270 hc        1 LIO      0.040700
     95 H342       -7.0000   -2.7900    1.6710 hc        1 LIO      0.040700
     96 H351       -9.2520   -2.2640    0.6760 hc        1 LIO      0.042700
     97 H352       -8.7550   -3.0520   -0.8700 hc        1 LIO      0.042700
     98 H361       -8.3760   -5.2200    0.3570 hc        1 LIO      0.039700
     99 H362       -8.8720   -4.4310    1.9030 hc        1 LIO      0.039700
    100 H371      -11.1250   -3.9000    0.9110 hc        1 LIO      0.040200
    101 H372      -10.6300   -4.6890   -0.6360 hc        1 LIO      0.040200
    102 H381      -10.2510   -6.8560    0.5910 hc        1 LIO      0.039200
    103 H382      -10.7460   -6.0680    2.1370 hc        1 LIO      0.039200
    104 H391      -12.9980   -5.5360    1.1450 hc        1 LIO      0.038700
    105 H392      -12.5020   -6.3240   -0.4020 hc        1 LIO      0.038700
    106 H401      -12.1600   -8.5020    0.8150 hc        1 LIO      0.032367
    107 H402      -12.6560   -7.7120    2.3650 hc        1 LIO      0.032367
    108 H403      -13.8490   -7.8770    1.0120 hc        1 LIO      0.032367
    109 C31        -4.8240    0.1200   -0.3210 c         1 LIO      0.638100
@<TRIPOS>BOND
     1    1    2 1   
     2    1   40 1   
     3    1   43 1   
     4    1   44 1   
     5    2    3 1   
     6    2   34 1   
     7    2   45 1   
     8    3   35 1   
     9    3   46 1   
    10    3   47 1   
    11    4    5 1   
    12    4   41 1   
    13    4   48 1   
    14    4   49 1   
    15    5   33 1   
    16    5   50 1   
    17    5   51 1   
    18    6   33 1   
    19    6   52 1   
    20    6   53 1   
    21    6   54 1   
    22    7   33 1   
    23    7   55 1   
    24    7   56 1   
    25    7   57 1   
    26    8   33 1   
    27    8   58 1   
    28    8   59 1   
    29    8   60 1   
    30    9   10 1   
    31    9   35 1   
    32    9   36 2   
    33   10   11 1   
    34   10   61 1   
    35   10   62 1   
    36   11   12 1   
    37   11   63 1   
    38   11   64 1   
    39   12   13 1   
    40   12   65 1   
    41   12   66 1   
    42   13   14 1   
    43   13   67 1   
    44   13   68 1   
    45   14   15 1   
    46   14   69 1   
    47   14   70 1   
    48   15   16 1   
    49   15   71 1   
    50   15   72 1   
    51   16   17 1   
    52   16   73 1   
    53   16   74 1   
    54   17   18 1   
    55   17   75 1   
    56   17   76 1   
    57   18   19 1   
    58   18   77 1   
    59   18   78 1   
    60   19   20 1   
    61   19   79 1   
    62   19   80 1   
    63   20   21 1   
    64   20   81 1   
    65   20   82 1   
    66   21   22 1   
    67   21   83 1   
    68   21   84 1   
    69   22   23 1   
    70   22   85 1   
    71   22   86 1   
    72   23   87 1   
    73   23   88 1   
    74   23   89 1   
    75   24   25 1   
    76   24   90 1   
    77   24   91 1   
    78   24  109 1   
    79   25   26 1   
    80   25   92 1   
    81   25   93 1   
    82   26   27 1   
    83   26   94 1   
    84   26   95 1   
    85   27   28 1   
    86   27   96 1   
    87   27   97 1   
    88   28   29 1   
    89   28   98 1   
    90   28   99 1   
    91   29   30 1   
    92   29  100 1   
    93   29  101 1   
    94   30   31 1   
    95   30  102 1   
    96   30  103 1   
    97   31   32 1   
    98   31  104 1   
    99   31  105 1   
   100   32  106 1   
   101   32  107 1   
   102   32  108 1   
   103   34  109 1   
   104   37  109 2   
   105   38   42 1   
   106   39   42 1   
   107   40   42 1   
   108   41   42 1   
@<TRIPOS>SUBSTRUCTURE
     1 LIO         1 TEMP              0 ****  ****    0 ROOT
