@<TRIPOS>MOLECULE
LIO
  109   108     1     0     0
SMALL
bcc


@<TRIPOS>ATOM
      1 C1         -2.1170   -2.2350   -0.3790 c3        1 LIO      0.175400
      2 C2         -0.7650   -1.5370   -0.5630 c3        1 LIO      0.135100
      3 C3         -0.1730   -1.0520    0.7580 c3        1 LIO      0.112400
      4 C4         -4.6970   -2.0540    3.0940 c3        1 LIO      0.197400
      5 C5         -3.9780   -1.0760    4.0440 c3        1 LIO      0.079800
      6 C6         -5.5130    0.7960    3.5250 c3        1 LIO      0.075433
      7 C7         -3.5690    1.1310    4.9470 c3        1 LIO      0.075433
      8 C8         -3.2700    0.7840    2.5720 c3        1 LIO      0.075433
      9 C11        -0.3030   -2.1400    2.9020 c         1 LIO      0.664100
     10 C12        -0.1050   -3.4530    3.5970 c3        1 LIO     -0.135400
     11 C13         0.2510   -3.2580    5.0550 c3        1 LIO     -0.075400
     12 C14         0.3100   -4.5880    5.7760 c3        1 LIO     -0.080400
     13 C15         0.6810   -4.4030    7.2310 c3        1 LIO     -0.078400
     14 C16         0.7330   -5.7310    7.9570 c3        1 LIO     -0.079400
     15 C17         1.1040   -5.5470    9.4120 c3        1 LIO     -0.078400
     16 C18         1.1540   -6.8750   10.1380 c3        1 LIO     -0.079400
     17 C19         1.5250   -6.6910   11.5940 c3        1 LIO     -0.078400
     18 C20         1.5750   -8.0190   12.3190 c3        1 LIO     -0.079400
     19 C21         1.9450   -7.8360   13.7750 c3        1 LIO     -0.078400
     20 C22         1.9940   -9.1640   14.5010 c3        1 LIO     -0.079400
     21 C23         2.3650   -8.9810   15.9570 c3        1 LIO     -0.079400
     22 C24         2.4140  -10.3080   16.6840 c3        1 LIO     -0.080400
     23 C25         2.7830  -10.1310   18.1340 c3        1 LIO     -0.092100
     24 C32         1.9700   -3.1780   -2.4780 c3        1 LIO     -0.127400
     25 C33         2.5200   -2.7620   -3.8250 c3        1 LIO     -0.079400
     26 C34         3.4160   -3.8400   -4.3960 c3        1 LIO     -0.078400
     27 C35         3.9540   -3.4390   -5.7530 c3        1 LIO     -0.079400
     28 C36         4.8540   -4.5120   -6.3240 c3        1 LIO     -0.078400
     29 C37         5.3910   -4.1120   -7.6820 c3        1 LIO     -0.079400
     30 C38         6.2920   -5.1850   -8.2550 c3        1 LIO     -0.079400
     31 C39         6.8300   -4.7870   -9.6130 c3        1 LIO     -0.080400
     32 C40         7.7270   -5.8520  -10.1870 c3        1 LIO     -0.092100
     33 N          -4.0950    0.3990    3.7560 n4        1 LIO     -0.576800
     34 O2          0.0840   -2.5130   -1.1880 os        1 LIO     -0.426900
     35 O3          0.0800   -2.1870    1.5990 os        1 LIO     -0.419900
     36 O11        -0.7550   -1.0870    3.3700 o         1 LIO     -0.610000
     37 O31         1.4390   -0.8550   -1.8430 o         1 LIO     -0.555000
     38 O1P        -5.3230   -0.7180    0.8430 o         1 LIO     -0.814500
     39 O2P        -4.8060   -3.0810   -0.2880 o         1 LIO     -0.814500
     40 O3P        -3.0450   -1.2610    0.0130 os        1 LIO     -0.580200
     41 O4P        -3.9140   -2.3450    1.9960 os        1 LIO     -0.577200
     42 P          -4.4830   -1.8860    0.4900 p5        1 LIO      1.438800
     43 H11        -2.4570   -2.7060   -1.3400 h1        1 LIO      0.056700
     44 H12        -2.0470   -3.0250    0.4170 h1        1 LIO      0.056700
     45 H21        -0.8750   -0.6410   -1.2370 h1        1 LIO      0.087700
     46 H31        -0.8970   -0.3420    1.2380 h1        1 LIO      0.074700
     47 H32         0.8220   -0.5620    0.5890 h1        1 LIO      0.074700
     48 H41        -4.8220   -3.0010    3.6990 h1        1 LIO      0.053200
     49 H42        -5.7090   -1.6680    2.7920 h1        1 LIO      0.053200
     50 H51        -4.3940   -1.2330    5.0790 hx        1 LIO      0.091200
     51 H52        -2.8750   -1.3250    4.0310 hx        1 LIO      0.091200
     52 H61        -5.5900    1.9130    3.5700 hx        1 LIO      0.100811
     53 H62        -5.8450    0.4450    2.4990 hx        1 LIO      0.100811
     54 H63        -6.1570    0.3370    4.3170 hx        1 LIO      0.100811
     55 H71        -2.5180    0.7920    5.1510 hx        1 LIO      0.100811
     56 H72        -3.5720    2.2330    4.7380 hx        1 LIO      0.100811
     57 H73        -4.2180    0.9190    5.8360 hx        1 LIO      0.100811
     58 H81        -2.2000    0.5010    2.7590 hx        1 LIO      0.100811
     59 H82        -3.6560    0.2320    1.6610 hx        1 LIO      0.100811
     60 H83        -3.3650    1.8880    2.4090 hx        1 LIO      0.100811
     61 H121        0.6940   -4.0390    3.0700 hc        1 LIO      0.088200
     62 H122       -1.0680   -4.0240    3.4970 hc        1 LIO      0.088200
     63 H131       -0.5100   -2.5910    5.5400 hc        1 LIO      0.049700
     64 H132        1.2430   -2.7390    5.1350 hc        1 LIO      0.049700
     65 H141       -0.6860   -5.1010    5.7030 hc        1 LIO      0.044700
     66 H142        1.0620   -5.2540    5.2770 hc        1 LIO      0.044700
     67 H151        1.6790   -3.8960    7.3040 hc        1 LIO      0.039700
     68 H152       -0.0670   -3.7310    7.7290 hc        1 LIO      0.039700
     69 H161       -0.2650   -6.2380    7.8840 hc        1 LIO      0.041700
     70 H162        1.4820   -6.4020    7.4590 hc        1 LIO      0.041700
     71 H171        0.3560   -4.8750    9.9100 hc        1 LIO      0.038700
     72 H172        2.1030   -5.0410    9.4850 hc        1 LIO      0.038700
     73 H181        1.9030   -7.5470    9.6410 hc        1 LIO      0.040200
     74 H182        0.1560   -7.3810   10.0650 hc        1 LIO      0.040200
     75 H191        0.7770   -6.0190   12.0910 hc        1 LIO      0.039200
     76 H192        2.5240   -6.1860   11.6670 hc        1 LIO      0.039200
     77 H201        0.5760   -8.5250   12.2460 hc        1 LIO      0.040200
     78 H202        2.3230   -8.6910   11.8220 hc        1 LIO      0.040200
     79 H211        2.9440   -7.3300   13.8490 hc        1 LIO      0.039200
     80 H212        1.1970   -7.1630   14.2720 hc        1 LIO      0.039200
     81 H221        2.7430   -9.8360   14.0040 hc        1 LIO      0.039700
     82 H222        0.9960   -9.6700   14.4270 hc        1 LIO      0.039700
     83 H231        3.3630   -8.4750   16.0310 hc        1 LIO      0.039200
     84 H232        1.6170   -8.3090   16.4540 hc        1 LIO      0.039200
     85 H241        3.1620  -10.9790   16.1840 hc        1 LIO      0.038700
     86 H242        1.4150  -10.8130   16.6070 hc        1 LIO      0.038700
     87 H251        2.8140  -11.1210   18.6500 hc        1 LIO      0.032700
     88 H252        3.7870   -9.6510   18.2300 hc        1 LIO      0.032700
     89 H253        2.0350   -9.4850   18.6550 hc        1 LIO      0.032700
     90 H321        2.8080   -3.4390   -1.7760 hc        1 LIO      0.078700
     91 H322        1.3140   -4.0830   -2.5810 hc        1 LIO      0.078700
     92 H331        3.0930   -1.8030   -3.7150 hc        1 LIO      0.057700
     93 H332        1.6720   -2.5610   -4.5320 hc        1 LIO      0.057700
     94 H341        4.2710   -4.0310   -3.6940 hc        1 LIO      0.040700
     95 H342        2.8410   -4.7990   -4.4870 hc        1 LIO      0.040700
     96 H351        4.5250   -2.4770   -5.6610 hc        1 LIO      0.042700
     97 H352        3.0990   -3.2510   -6.4550 hc        1 LIO      0.042700
     98 H361        4.2840   -5.4740   -6.4150 hc        1 LIO      0.039700
     99 H362        5.7090   -4.7000   -5.6220 hc        1 LIO      0.039700
    100 H371        4.5370   -3.9250   -8.3840 hc        1 LIO      0.040200
    101 H372        5.9620   -3.1510   -7.5920 hc        1 LIO      0.040200
    102 H381        5.7220   -6.1470   -8.3450 hc        1 LIO      0.039200
    103 H382        7.1470   -5.3730   -7.5530 hc        1 LIO      0.039200
    104 H391        5.9730   -4.5980  -10.3120 hc        1 LIO      0.038700
    105 H392        7.3990   -3.8240   -9.5210 hc        1 LIO      0.038700
    106 H401        7.1710   -6.8130  -10.3090 hc        1 LIO      0.032367
    107 H402        8.6000   -6.0370   -9.5150 hc        1 LIO      0.032367
    108 H403        8.1120   -5.5380  -11.1870 hc        1 LIO      0.032367
    109 C31         1.1930   -2.0630   -1.8480 c         1 LIO      0.638100
@<TRIPOS>BOND
     1    1    2 1   
     2    1   40 1   
     3    1   43 1   
     4    1   44 1   
     5    2    3 1   
     6    2   34 1   
     7    2   45 1   
     8    3   35 1   
     9    3   46 1   
    10    3   47 1   
    11    4    5 1   
    12    4   41 1   
    13    4   48 1   
    14    4   49 1   
    15    5   33 1   
    16    5   50 1   
    17    5   51 1   
    18    6   33 1   
    19    6   52 1   
    20    6   53 1   
    21    6   54 1   
    22    7   33 1   
    23    7   55 1   
    24    7   56 1   
    25    7   57 1   
    26    8   33 1   
    27    8   58 1   
    28    8   59 1   
    29    8   60 1   
    30    9   10 1   
    31    9   35 1   
    32    9   36 2   
    33   10   11 1   
    34   10   61 1   
    35   10   62 1   
    36   11   12 1   
    37   11   63 1   
    38   11   64 1   
    39   12   13 1   
    40   12   65 1   
    41   12   66 1   
    42   13   14 1   
    43   13   67 1   
    44   13   68 1   
    45   14   15 1   
    46   14   69 1   
    47   14   70 1   
    48   15   16 1   
    49   15   71 1   
    50   15   72 1   
    51   16   17 1   
    52   16   73 1   
    53   16   74 1   
    54   17   18 1   
    55   17   75 1   
    56   17   76 1   
    57   18   19 1   
    58   18   77 1   
    59   18   78 1   
    60   19   20 1   
    61   19   79 1   
    62   19   80 1   
    63   20   21 1   
    64   20   81 1   
    65   20   82 1   
    66   21   22 1   
    67   21   83 1   
    68   21   84 1   
    69   22   23 1   
    70   22   85 1   
    71   22   86 1   
    72   23   87 1   
    73   23   88 1   
    74   23   89 1   
    75   24   25 1   
    76   24   90 1   
    77   24   91 1   
    78   24  109 1   
    79   25   26 1   
    80   25   92 1   
    81   25   93 1   
    82   26   27 1   
    83   26   94 1   
    84   26   95 1   
    85   27   28 1   
    86   27   96 1   
    87   27   97 1   
    88   28   29 1   
    89   28   98 1   
    90   28   99 1   
    91   29   30 1   
    92   29  100 1   
    93   29  101 1   
    94   30   31 1   
    95   30  102 1   
    96   30  103 1   
    97   31   32 1   
    98   31  104 1   
    99   31  105 1   
   100   32  106 1   
   101   32  107 1   
   102   32  108 1   
   103   34  109 1   
   104   37  109 2   
   105   38   42 1   
   106   39   42 1   
   107   40   42 1   
   108   41   42 1   
@<TRIPOS>SUBSTRUCTURE
     1 LIO         1 TEMP              0 ****  ****    0 ROOT
