@<TRIPOS>MOLECULE
LIP
   27    26     1     0     0
SMALL
bcc


@<TRIPOS>ATOM
      1 C1         -0.1820   -0.0030    0.4060 c3        1 LIP      0.183500
      2 C2          1.3210    0.3150    0.2880 c3        1 LIP      0.007000
      3 C3          1.9830    0.1690    1.6610 c3        1 LIP      0.009000
      4 C4          1.8660   -1.2770    2.1590 c3        1 LIP      0.007000
      5 C5          0.3830   -1.6910    2.2770 c3        1 LIP      0.183500
      6 C6         -0.3920   -1.2710    1.1030 c2        1 LIP     -0.656000
      7 O1         -0.7350   -0.0250   -0.9300 oh        1 LIP     -0.426500
      8 O2          1.5640    1.6490   -0.1300 oh        1 LIP     -0.379500
      9 O3          3.3750    0.4920    1.6110 oh        1 LIP     -0.387000
     10 O4          2.4640   -1.3920    3.4490 oh        1 LIP     -0.379500
     11 O5          0.3300   -3.1120    2.4480 oh        1 LIP     -0.426500
     12 O6         -1.6190   -1.8720    0.9560 oh        1 LIP     -0.244000
     13 O7         -2.3430    1.8060   -2.5500 o         1 LIP     -1.161667
     14 O8          0.1950    1.8300   -2.6950 o         1 LIP     -1.161667
     15 O9         -1.0990   -0.2790   -3.3570 o         1 LIP     -1.161667
     16 H1         -0.8450   -0.9490   -1.2040 ho        1 LIP      0.236500
     17 H2         -0.7080    0.8850    0.8730 h1        1 LIP      0.028500
     18 H3          1.7950   -0.3940   -0.4470 h1        1 LIP      0.079000
     19 H4          1.5000    0.8700    2.3970 h1        1 LIP      0.080000
     20 H5          2.4000   -1.9690    1.4510 h1        1 LIP      0.079000
     21 H6         -0.0100   -1.2910    3.2630 h1        1 LIP      0.028500
     22 HO2         1.0780    1.7710   -0.9730 ho        1 LIP      0.230500
     23 HO3         3.4690    1.1810    0.9430 ho        1 LIP      0.217000
     24 HO4         3.3430   -1.0050    3.3670 ho        1 LIP      0.230500
     25 HO5        -0.0590   -3.4670    1.6390 ho        1 LIP      0.236500
     26 HO6        -2.2480   -1.3870    1.5240 ho        1 LIP      0.079000
     27 P1         -1.0770    1.0660   -2.7390 p3        1 LIP      2.470000
@<TRIPOS>BOND
     1    1    2 1   
     2    1    6 1   
     3    1    7 1   
     4    1   17 1   
     5    2    3 1   
     6    2    8 1   
     7    2   18 1   
     8    3    4 1   
     9    3    9 1   
    10    3   19 1   
    11    4    5 1   
    12    4   10 1   
    13    4   20 1   
    14    5    6 1   
    15    5   11 1   
    16    5   21 1   
    17    6   12 1   
    18    7   16 1   
    19    8   22 1   
    20    9   23 1   
    21   10   24 1   
    22   11   25 1   
    23   12   26 1   
    24   13   27 1   
    25   14   27 1   
    26   15   27 1   
@<TRIPOS>SUBSTRUCTURE
     1 LIP         1 TEMP              0 ****  ****    0 ROOT
