@<TRIPOS>MOLECULE
LIP
   27    27     1     0     0
SMALL
bcc


@<TRIPOS>ATOM
      1 C1         -0.2100   -0.0950   -0.0660 c3        1 LIP      0.228100
      2 C2          0.6600   -1.2400    0.5300 c3        1 LIP      0.086600
      3 C3          2.0370   -1.3660   -0.1540 c3        1 LIP      0.111100
      4 C4          2.8050   -0.0480   -0.0620 c3        1 LIP      0.081100
      5 C5          2.0000    1.0530   -0.7640 c3        1 LIP      0.111100
      6 C6          0.6350    1.2180   -0.1020 c3        1 LIP      0.086600
      7 O1         -1.2910    0.1080    0.7440 os        1 LIP     -0.548200
      8 O2         -0.0240   -2.4650    0.3420 oh        1 LIP     -0.617300
      9 O3          2.7460   -2.4040    0.5190 oh        1 LIP     -0.637300
     10 O4          4.0830   -0.2400   -0.6680 oh        1 LIP     -0.648800
     11 O5          2.7700    2.2510   -0.7410 oh        1 LIP     -0.637300
     12 O6          0.8710    1.7070    1.2180 oh        1 LIP     -0.617300
     13 O7         -2.2650    1.9500   -0.5470 o         1 LIP     -0.921500
     14 O8         -2.8300   -0.4170   -1.2440 o         1 LIP     -0.921500
     15 O9         -3.8040    0.5290    0.9410 o         1 LIP     -0.921500
     16 H1         -0.5320   -0.3650   -1.1130 h1        1 LIP      0.075700
     17 H2          0.8130   -1.0410    1.6260 h1        1 LIP      0.081700
     18 H3          1.9050   -1.6610   -1.2310 h1        1 LIP      0.057200
     19 H4          2.9700    0.2330    1.0160 h1        1 LIP      0.057700
     20 H5          1.8730    0.8070   -1.8540 h1        1 LIP      0.057200
     21 H6          0.0200    1.9920   -0.6570 h1        1 LIP      0.081700
     22 HO2         0.4280   -3.1050    0.9040 ho        1 LIP      0.411000
     23 HO3         3.6410   -2.3930    0.1620 ho        1 LIP      0.406500
     24 HO4         4.3680    0.6290   -0.9760 ho        1 LIP      0.408000
     25 HO5         2.5100    2.7340    0.0540 ho        1 LIP      0.406500
     26 HO6         0.0220    1.5920    1.6770 ho        1 LIP      0.411000
     27 P1         -2.7600    0.5880   -0.1320 p5        1 LIP      1.309900
@<TRIPOS>BOND
     1    1    2 1   
     2    1    6 1   
     3    1    7 1   
     4    1   16 1   
     5    2    3 1   
     6    2    8 1   
     7    2   17 1   
     8    3    4 1   
     9    3    9 1   
    10    3   18 1   
    11    4    5 1   
    12    4   10 1   
    13    4   19 1   
    14    5    6 1   
    15    5   11 1   
    16    5   20 1   
    17    6   12 1   
    18    6   21 1   
    19    7   27 1   
    20    8   22 1   
    21    9   23 1   
    22   10   24 1   
    23   11   25 1   
    24   12   26 1   
    25   13   27 1   
    26   14   27 1   
    27   15   27 1   
@<TRIPOS>SUBSTRUCTURE
     1 LIP         1 TEMP              0 ****  ****    0 ROOT
