@<TRIPOS>MOLECULE
LIP
   27    26     1     0     0
SMALL
bcc


@<TRIPOS>ATOM
      1 C1         -0.1860   -0.0180    0.3560 c3        1 LIP      0.199500
      2 C2          1.3280    0.2690    0.2270 c3        1 LIP     -0.015500
      3 C3          2.0100    0.0770    1.5870 c3        1 LIP      0.016000
      4 C4          1.8060   -1.3560    2.0830 c3        1 LIP     -0.015500
      5 C5          0.2870   -1.6350    2.2410 c3        1 LIP      0.199500
      6 C6         -0.4060   -1.3140    0.9990 c2        1 LIP     -0.637000
      7 O1         -0.7670    0.0480   -0.9590 oh        1 LIP     -0.392000
      8 O2          1.6060    1.6030   -0.1660 oh        1 LIP     -0.393000
      9 O3          3.4180    0.3130    1.5100 oh        1 LIP     -0.390000
     10 O4          2.4230   -1.5490    3.3560 oh        1 LIP     -0.393000
     11 O5          0.0860   -3.0000    2.6110 oh        1 LIP     -0.392000
     12 O6         -1.4640   -2.0730    0.5840 oh        1 LIP     -0.217000
     13 O7         -2.4360    1.9970   -2.4060 o         1 LIP     -1.159667
     14 O8          0.0960    2.0380   -2.6290 o         1 LIP     -1.159667
     15 O9         -1.2170   -0.0250   -3.3900 o         1 LIP     -1.159667
     16 H1         -0.8760   -0.8550   -1.2990 ho        1 LIP      0.212500
     17 H2         -0.6640    0.8620    0.8880 h1        1 LIP      0.003000
     18 H3          1.7740   -0.4370   -0.5280 h1        1 LIP      0.083500
     19 H4          1.5880    0.8070    2.3330 h1        1 LIP      0.078000
     20 H5          2.2530   -2.0860    1.3560 h1        1 LIP      0.083500
     21 H6         -0.0550   -1.0060    3.1310 h1        1 LIP      0.003000
     22 HO2         1.0690    1.7790   -0.9670 ho        1 LIP      0.234500
     23 HO3         3.5420    0.9880    0.8320 ho        1 LIP      0.217000
     24 HO4         3.3090   -1.1770    3.2830 ho        1 LIP      0.234500
     25 HO5         0.6490   -3.1370    3.3810 ho        1 LIP      0.212500
     26 HO6        -2.2490   -1.7420    1.0630 ho        1 LIP      0.079000
     27 P1         -1.1760    1.2760   -2.6860 p3        1 LIP      2.468000
@<TRIPOS>BOND
     1    1    2 1   
     2    1    6 1   
     3    1    7 1   
     4    1   17 1   
     5    2    3 1   
     6    2    8 1   
     7    2   18 1   
     8    3    4 1   
     9    3    9 1   
    10    3   19 1   
    11    4    5 1   
    12    4   10 1   
    13    4   20 1   
    14    5    6 1   
    15    5   11 1   
    16    5   21 1   
    17    6   12 1   
    18    7   16 1   
    19    8   22 1   
    20    9   23 1   
    21   10   24 1   
    22   11   25 1   
    23   12   26 1   
    24   13   27 1   
    25   14   27 1   
    26   15   27 1   
@<TRIPOS>SUBSTRUCTURE
     1 LIP         1 TEMP              0 ****  ****    0 ROOT
