@<TRIPOS>MOLECULE
LIQ
   90    92     1     0     0
SMALL
bcc


@<TRIPOS>ATOM
      1 C7         -0.0480   -0.1710    0.4340 c3        1 LIQ     -0.378600
      2 C10        -3.0940   -0.3270    3.0950 c3        1 LIQ      0.127500
      3 N12        -5.2540   -0.6740    1.6670 n4        1 LIQ     -0.657800
      4 C13        -6.7450   -0.9510    1.6780 c3        1 LIQ      0.146500
      5 C15        -6.9010    0.7040   -0.2340 ca        1 LIQ     -0.109300
      6 C17        -7.2720    3.0750   -0.5810 ca        1 LIQ      0.194400
      7 C20        -5.7480    0.7650   -1.0260 ca        1 LIQ     -0.210000
      8 C21        -7.0410   -2.4310    2.0700 c3        1 LIQ      0.104100
      9 C22        -8.5360   -2.7360    1.8380 c3        1 LIQ      0.064800
     10 C24       -10.4770   -4.2660    2.1590 c3        1 LIQ      0.198100
     11 C26       -10.8820   -6.7180    1.9240 ca        1 LIQ     -0.099000
     12 C1          3.4810   -0.1330   -1.1200 c3        1 LIQ     -0.080400
     13 C1A         3.9740    0.0420   -2.5330 c3        1 LIQ     -0.099100
     14 C2          1.9670   -0.0640   -1.0600 c3        1 LIQ     -0.074400
     15 C3          1.4810   -0.2400    0.3640 c3        1 LIQ     -0.065400
     16 S8         -0.5580   -0.3720    1.9890 s6        1 LIQ      1.338000
     17 O1         -0.3400    0.7240    2.8380 o         1 LIQ     -0.637300
     18 O2         -0.4260   -1.6390    2.5320 o         1 LIQ     -0.637300
     19 C9         -2.3670   -0.2480    1.7700 c3        1 LIQ     -0.323600
     20 C11        -4.6060   -0.6130    3.0040 c         1 LIQ      0.534100
     21 O3         -5.2920   -0.8090    3.9990 o         1 LIQ     -0.411100
     22 C14        -7.3450   -0.6130    0.3010 c3        1 LIQ     -0.060100
     23 C16        -7.6620    1.8470   -0.0000 ca        1 LIQ     -0.210000
     24 C18        -6.1200    3.1580   -1.3800 ca        1 LIQ     -0.173000
     25 C19        -5.3620    1.9940   -1.5970 ca        1 LIQ      0.194400
     26 O4         -6.2300   -3.2320    1.2310 oh        1 LIQ     -0.608800
     27 N23        -8.9900   -4.0300    2.4030 n4        1 LIQ     -0.779000
     28 C25       -10.8740   -5.5720    2.7330 ca        1 LIQ     -0.223300
     29 C27       -11.3270   -7.9390    2.4370 ca        1 LIQ     -0.048300
     30 C29       -11.7600   -8.0030    3.7710 ca        1 LIQ     -0.055000
     31 C30       -11.7500   -6.8640    4.5770 ca        1 LIQ     -0.111000
     32 C31       -11.3090   -5.6470    4.0640 ca        1 LIQ     -0.104000
     33 C32       -12.7650   -9.5760    1.2380 c3        1 LIQ     -0.097100
     34 N40        -2.8820    0.8840    3.9620 n4        1 LIQ     -0.702800
     35 C41        -3.5080    2.1680    3.4040 c         1 LIQ      0.634700
     36 O5         -4.5060    1.9470    2.7160 o         1 LIQ     -0.548100
     37 F19        -4.2440    2.0480   -2.3510 f         1 LIQ     -0.095400
     38 F17        -8.0160    4.1760   -0.3570 f         1 LIQ     -0.095400
     39 C43        -2.8850    3.4070    3.7840 ca        1 LIQ     -0.373900
     40 C45        -1.4950    3.5500    4.0580 ca        1 LIQ      0.479200
     41 N44        -0.9430    4.7160    4.4100 nb        1 LIQ     -0.630000
     42 C46        -1.7370    5.8060    4.5000 ca        1 LIQ      0.524200
     43 C47        -3.1220    5.7750    4.2130 ca        1 LIQ     -0.238300
     44 C48        -3.7000    4.5680    3.8480 ca        1 LIQ      0.004000
     45 H71        -0.3420    0.8140   -0.0310 h1        1 LIQ      0.156700
     46 H72        -0.4330   -0.9510   -0.2840 h1        1 LIQ      0.156700
     47 H10        -2.6650   -1.2250    3.6720 hx        1 LIQ      0.177700
     48 HN12       -4.8020   -1.4070    1.0960 hn        1 LIQ      0.497800
     49 H13        -7.1940   -0.2790    2.4710 hx        1 LIQ      0.132700
     50 H20        -5.1920   -0.1450   -1.2960 ha        1 LIQ      0.156500
     51 H21        -6.7710   -2.5800    3.1560 h1        1 LIQ      0.082700
     52 H221       -9.1580   -1.9160    2.3000 hx        1 LIQ      0.128700
     53 H222       -8.7360   -2.7680    0.7250 hx        1 LIQ      0.128700
     54 H241      -10.6390   -4.2360    1.0430 hx        1 LIQ      0.110200
     55 H242      -11.0310   -3.4140    2.6450 hx        1 LIQ      0.110200
     56 H281      -10.8430   -9.9980    2.1310 hc        1 LIQ      0.062700
     57 H282      -10.7770   -8.9810    0.6370 hc        1 LIQ      0.062700
     58 H11         3.8290   -1.1220   -0.7180 hc        1 LIQ      0.051700
     59 H12         3.9200    0.6660   -0.4650 hc        1 LIQ      0.051700
     60 H1A1        3.6620    1.0320   -2.9440 hc        1 LIQ      0.049367
     61 H1A2        5.0910   -0.0120   -2.5560 hc        1 LIQ      0.049367
     62 H1A3        3.5710   -0.7600   -3.1970 hc        1 LIQ      0.049367
     63 H21A        1.5290   -0.8640   -1.7120 hc        1 LIQ      0.052200
     64 H22         1.6210    0.9250   -1.4600 hc        1 LIQ      0.052200
     65 H31A        1.8280   -1.2360    0.7520 hc        1 LIQ      0.078200
     66 H32         1.9210    0.5680    1.0080 hc        1 LIQ      0.078200
     67 H91        -2.6520   -1.1210    1.1320 h1        1 LIQ      0.120700
     68 H92        -2.6190    0.6870    1.2110 h1        1 LIQ      0.120700
     69 H141       -8.4640   -0.5980    0.4230 hc        1 LIQ      0.103200
     70 H142       -7.0880   -1.4310   -0.4280 hc        1 LIQ      0.103200
     71 H16        -8.5840    1.8120    0.6000 ha        1 LIQ      0.156500
     72 H18        -5.8320    4.1130   -1.8540 ha        1 LIQ      0.207000
     73 HO4        -6.1370   -4.1110    1.6270 ho        1 LIQ      0.451000
     74 HN23       -8.4710   -4.8060    1.9760 hn        1 LIQ      0.451800
     75 H29       -12.1220   -8.9640    4.1780 ha        1 LIQ      0.177000
     76 H30       -12.1060   -6.9250    5.6190 ha        1 LIQ      0.172000
     77 H31       -11.3340   -4.7460    4.6960 ha        1 LIQ      0.134000
     78 H321      -13.3570   -9.7760    2.1640 hc        1 LIQ      0.053700
     79 H322      -12.7420  -10.5100    0.6250 hc        1 LIQ      0.053700
     80 H323      -13.2840   -8.7810    0.6510 hc        1 LIQ      0.053700
     81 HN40       -1.8570    1.0310    4.0900 hn        1 LIQ      0.503300
     82 H45        -0.7660    2.7170    3.9490 h4        1 LIQ      0.062100
     83 H46        -1.2310    6.7480    4.8110 h4        1 LIQ      0.087100
     84 H47        -3.7230    6.6980    4.2830 ha        1 LIQ      0.202000
     85 H48        -4.7770    4.5020    3.6190 ha        1 LIQ      0.171000
     86 C28       -11.3540   -9.1590    1.5830 c3        1 LIQ     -0.052100
     87 H122       -5.1070    0.2490    1.1990 hn        1 LIQ      0.497800
     88 H232       -8.8260   -4.0630    3.4170 hn        1 LIQ      0.451800
     89 H402       -3.2960    0.7080    4.8900 hn        1 LIQ      0.503300
     90 H26       -10.5660   -6.6560    0.8710 ha        1 LIQ      0.138000
@<TRIPOS>BOND
     1    1   15 1   
     2    1   16 1   
     3    1   45 1   
     4    1   46 1   
     5    2   19 1   
     6    2   20 1   
     7    2   34 1   
     8    2   47 1   
     9    3    4 1   
    10    3   20 1   
    11    3   48 1   
    12    3   87 1   
    13    4    8 1   
    14    4   22 1   
    15    4   49 1   
    16    5    7 ar  
    17    5   22 1   
    18    5   23 ar  
    19    6   23 ar  
    20    6   24 ar  
    21    6   38 1   
    22    7   25 ar  
    23    7   50 1   
    24    8    9 1   
    25    8   26 1   
    26    8   51 1   
    27    9   27 1   
    28    9   52 1   
    29    9   53 1   
    30   10   27 1   
    31   10   28 1   
    32   10   54 1   
    33   10   55 1   
    34   11   28 ar  
    35   11   29 ar  
    36   11   90 1   
    37   12   13 1   
    38   12   14 1   
    39   12   58 1   
    40   12   59 1   
    41   13   60 1   
    42   13   61 1   
    43   13   62 1   
    44   14   15 1   
    45   14   63 1   
    46   14   64 1   
    47   15   65 1   
    48   15   66 1   
    49   16   17 2   
    50   16   18 2   
    51   16   19 1   
    52   19   67 1   
    53   19   68 1   
    54   20   21 2   
    55   22   69 1   
    56   22   70 1   
    57   23   71 1   
    58   24   25 ar  
    59   24   72 1   
    60   25   37 1   
    61   26   73 1   
    62   27   74 1   
    63   27   88 1   
    64   28   32 ar  
    65   29   30 ar  
    66   29   86 1   
    67   30   31 ar  
    68   30   75 1   
    69   31   32 ar  
    70   31   76 1   
    71   32   77 1   
    72   33   78 1   
    73   33   79 1   
    74   33   80 1   
    75   33   86 1   
    76   34   35 1   
    77   34   81 1   
    78   34   89 1   
    79   35   36 2   
    80   35   39 1   
    81   39   40 ar  
    82   39   44 ar  
    83   40   41 ar  
    84   40   82 1   
    85   41   42 ar  
    86   42   43 ar  
    87   42   83 1   
    88   43   44 ar  
    89   43   84 1   
    90   44   85 1   
    91   56   86 1   
    92   57   86 1   
@<TRIPOS>SUBSTRUCTURE
     1 LIQ         1 TEMP              0 ****  ****    0 ROOT
