@<TRIPOS>MOLECULE
LIQ
   87    89     1     0     0
SMALL
bcc


@<TRIPOS>ATOM
      1 C7          4.6180   -2.6170   -0.3570 c3        1 LIQ     -0.324600
      2 C10         1.8310   -0.2170    1.1990 c3        1 LIQ      0.077700
      3 N12        -0.2470   -0.5460   -0.1410 n         1 LIQ     -0.561900
      4 C13        -1.4600   -0.1420   -0.8140 c3        1 LIQ      0.075700
      5 C15        -0.4880   -0.5000   -3.1160 ca        1 LIQ     -0.022300
      6 C17         0.7120    1.1020   -4.4840 ca        1 LIQ      0.157400
      7 C20         0.3850   -1.5080   -3.5310 ca        1 LIQ     -0.179500
      8 C21        -2.7090   -0.4270    0.0670 c3        1 LIQ      0.105100
      9 C22        -3.9710    0.2050   -0.5450 c3        1 LIQ      0.139800
     10 C24        -6.3250    0.6440   -0.2090 c3        1 LIQ      0.212100
     11 C26        -8.6230   -0.2900    0.1510 ca        1 LIQ     -0.123000
     12 C1          7.5460   -5.0600   -0.8550 c3        1 LIQ     -0.081400
     13 C1A         8.1620   -5.6940   -2.0750 c3        1 LIQ     -0.093100
     14 C2          6.3910   -4.1540   -1.2260 c3        1 LIQ     -0.072400
     15 C3          5.7780   -3.5210    0.0040 c3        1 LIQ     -0.057400
     16 S8          3.9510   -1.8810    1.0280 s6        1 LIQ      1.330000
     17 O1          4.9240   -1.1330    1.6920 o         1 LIQ     -0.647300
     18 O2          3.2390   -2.8280    1.7800 o         1 LIQ     -0.647300
     19 C9          2.8050   -0.8820    0.2250 c3        1 LIQ     -0.330600
     20 C11         0.6330    0.3680    0.4040 c         1 LIQ      0.635100
     21 O3          0.4710    1.5940    0.2630 o         1 LIQ     -0.590100
     22 C14        -1.6070   -0.8230   -2.1880 c3        1 LIQ     -0.055100
     23 C16        -0.3310    0.8050   -3.5890 ca        1 LIQ     -0.179500
     24 C18         1.6020    0.1030   -4.9110 ca        1 LIQ     -0.206000
     25 C19         1.4280   -1.2020   -4.4250 ca        1 LIQ      0.157400
     26 O4         -2.8810   -1.8130    0.2960 oh        1 LIQ     -0.595800
     27 N23        -5.0670    0.2510    0.3980 n3        1 LIQ     -0.826200
     28 C25        -7.5150    0.3860    0.6670 ca        1 LIQ     -0.097300
     29 C27        -9.7560   -0.5070    0.9440 ca        1 LIQ     -0.078300
     30 C29        -9.7670   -0.0450    2.2640 ca        1 LIQ     -0.123000
     31 C30        -8.6610    0.6270    2.7820 ca        1 LIQ     -0.131000
     32 C31        -7.5360    0.8460    1.9880 ca        1 LIQ     -0.112000
     33 C32       -11.6940   -0.3920   -0.6120 c3        1 LIQ     -0.090100
     34 N40         2.4610    0.7420    2.0710 n         1 LIQ     -0.545900
     35 C41         3.2060    1.8340    1.6050 c         1 LIQ      0.694700
     36 O5          3.6270    1.9070    0.4380 o         1 LIQ     -0.577100
     37 F19         2.2760   -2.1810   -4.8210 f         1 LIQ     -0.133400
     38 F17         0.8600    2.3660   -4.9450 f         1 LIQ     -0.133400
     39 C43         3.5180    2.8850    2.6110 ca        1 LIQ     -0.264900
     40 C45         3.9220    2.5680    3.9250 ca        1 LIQ      0.428200
     41 N44         4.2210    3.5020    4.8460 nb        1 LIQ     -0.669000
     42 C46         4.1300    4.7950    4.4750 ca        1 LIQ      0.413200
     43 C47         3.7500    5.2080    3.1850 ca        1 LIQ     -0.256300
     44 C48         3.4420    4.2330    2.2360 ca        1 LIQ     -0.039000
     45 H71         4.9850   -1.8560   -1.0970 h1        1 LIQ      0.114200
     46 H72         3.8570   -3.2290   -0.9110 h1        1 LIQ      0.114200
     47 H10         1.4180   -1.0300    1.8820 h1        1 LIQ      0.088700
     48 HN12       -0.1920   -1.5000    0.1290 hn        1 LIQ      0.317500
     49 H13        -1.4090    0.9790   -0.9780 h1        1 LIQ      0.101700
     50 H20         0.2680   -2.5400   -3.1720 ha        1 LIQ      0.153000
     51 H21        -2.5310   -0.0040    1.1000 h1        1 LIQ      0.103700
     52 H221       -3.7370    1.2640   -0.8490 h1        1 LIQ      0.035200
     53 H222       -4.2420   -0.3670   -1.4830 h1        1 LIQ      0.035200
     54 H241       -6.2620    1.7540   -0.4100 h1        1 LIQ      0.037700
     55 H242       -6.4880    0.1360   -1.2080 h1        1 LIQ      0.037700
     56 H281      -10.5750   -2.1730   -0.1180 hc        1 LIQ      0.046700
     57 H282      -11.6200   -1.5410    1.2150 hc        1 LIQ      0.046700
     58 H11         7.1840   -5.8610   -0.1570 hc        1 LIQ      0.042700
     59 H12         8.3240   -4.4680   -0.3040 hc        1 LIQ      0.042700
     60 H1A1        9.0110   -6.3570   -1.7800 hc        1 LIQ      0.034033
     61 H1A2        7.4090   -6.3080   -2.6250 hc        1 LIQ      0.034033
     62 H1A3        8.5510   -4.9120   -2.7720 hc        1 LIQ      0.034033
     63 H21A        6.7500   -3.3530   -1.9240 hc        1 LIQ      0.042700
     64 H22         5.6110   -4.7450   -1.7750 hc        1 LIQ      0.042700
     65 H31A        5.4190   -4.3270    0.7000 hc        1 LIQ      0.061700
     66 H32         6.5600   -2.9230    0.5460 hc        1 LIQ      0.061700
     67 H91         3.3080   -0.0800   -0.3870 h1        1 LIQ      0.138700
     68 H92         2.2080   -1.4820   -0.5110 h1        1 LIQ      0.138700
     69 H141       -1.6840   -1.9350   -2.0540 hc        1 LIQ      0.058200
     70 H142       -2.5670   -0.4670   -2.6490 hc        1 LIQ      0.058200
     71 H16        -1.0090    1.6070   -3.2620 ha        1 LIQ      0.153000
     72 H18         2.4180    0.3390   -5.6090 ha        1 LIQ      0.168000
     73 HO4        -3.1740   -2.2150   -0.5310 ho        1 LIQ      0.398000
     74 HN23       -5.1520   -0.6220    0.8860 hn        1 LIQ      0.375800
     75 H29       -10.6520   -0.2140    2.8970 ha        1 LIQ      0.132000
     76 H30        -8.6760    0.9870    3.8210 ha        1 LIQ      0.133000
     77 H31        -6.6650    1.3790    2.3970 ha        1 LIQ      0.146000
     78 H321      -12.5490   -0.9760   -1.0300 hc        1 LIQ      0.036367
     79 H322      -12.0970    0.5290   -0.1260 hc        1 LIQ      0.036367
     80 H323      -11.0290   -0.0810   -1.4550 hc        1 LIQ      0.036367
     81 HN40        1.9700    0.8940    2.9260 hn        1 LIQ      0.313500
     82 H45         4.0320    1.5170    4.2530 h4        1 LIQ      0.038100
     83 H46         4.3800    5.5350    5.2560 h4        1 LIQ      0.025100
     84 H47         3.7010    6.2760    2.9330 ha        1 LIQ      0.149000
     85 H48         3.1510    4.5030    1.2090 ha        1 LIQ      0.162000
     86 H26        -8.6140   -0.6550   -0.8880 ha        1 LIQ      0.130000
     87 C28       -10.9300   -1.2320    0.3840 c3        1 LIQ     -0.038100
@<TRIPOS>BOND
     1    1   15 1   
     2    1   16 1   
     3    1   45 1   
     4    1   46 1   
     5    2   19 1   
     6    2   20 1   
     7    2   34 1   
     8    2   47 1   
     9    3    4 1   
    10    3   20 1   
    11    3   48 1   
    12    4    8 1   
    13    4   22 1   
    14    4   49 1   
    15    5    7 ar  
    16    5   22 1   
    17    5   23 ar  
    18    6   23 ar  
    19    6   24 ar  
    20    6   38 1   
    21    7   25 ar  
    22    7   50 1   
    23    8    9 1   
    24    8   26 1   
    25    8   51 1   
    26    9   27 1   
    27    9   52 1   
    28    9   53 1   
    29   10   27 1   
    30   10   28 1   
    31   10   54 1   
    32   10   55 1   
    33   11   28 ar  
    34   11   29 ar  
    35   11   86 1   
    36   12   13 1   
    37   12   14 1   
    38   12   58 1   
    39   12   59 1   
    40   13   60 1   
    41   13   61 1   
    42   13   62 1   
    43   14   15 1   
    44   14   63 1   
    45   14   64 1   
    46   15   65 1   
    47   15   66 1   
    48   16   17 2   
    49   16   18 2   
    50   16   19 1   
    51   19   67 1   
    52   19   68 1   
    53   20   21 2   
    54   22   69 1   
    55   22   70 1   
    56   23   71 1   
    57   24   25 ar  
    58   24   72 1   
    59   25   37 1   
    60   26   73 1   
    61   27   74 1   
    62   28   32 ar  
    63   29   30 ar  
    64   29   87 1   
    65   30   31 ar  
    66   30   75 1   
    67   31   32 ar  
    68   31   76 1   
    69   32   77 1   
    70   33   78 1   
    71   33   79 1   
    72   33   80 1   
    73   33   87 1   
    74   34   35 1   
    75   34   81 1   
    76   35   36 2   
    77   35   39 1   
    78   39   40 ar  
    79   39   44 ar  
    80   40   41 ar  
    81   40   82 1   
    82   41   42 ar  
    83   42   43 ar  
    84   42   83 1   
    85   43   44 ar  
    86   43   84 1   
    87   44   85 1   
    88   56   87 1   
    89   57   87 1   
@<TRIPOS>SUBSTRUCTURE
     1 LIQ         1 TEMP              0 ****  ****    0 ROOT
