@<TRIPOS>MOLECULE
LIR
   48    51     1     0     0
SMALL
bcc


@<TRIPOS>ATOM
      1 C4          0.0930    6.2000    2.8690 c         1 LIR      0.759100
      2 C7         -1.7810    3.0020    2.3310 cz        1 LIR      0.149400
      3 N12        -2.0790    1.6690    2.0140 nh        1 LIR     -0.152400
      4 C13        -0.9540    0.7420    1.9710 c3        1 LIR     -0.026700
      5 C15        -1.3390    0.2610   -0.4510 c3        1 LIR     -0.129400
      6 C17        -3.0590    1.4510    0.9450 c3        1 LIR     -0.010700
      7 C20        -4.1330    3.4200    4.9010 ca        1 LIR     -0.124300
      8 C21        -4.3730    4.5260    5.7220 ca        1 LIR     -0.106000
      9 C22        -4.5360    4.3620    7.0980 ca        1 LIR     -0.101000
     10 C24        -4.2220    1.9780    6.8590 ca        1 LIR     -0.087000
     11 C1         -2.1400    6.4900    3.6350 c         1 LIR      0.766100
     12 C2         -1.9860    5.0850    3.1330 cc        1 LIR     -0.154900
     13 C3         -0.6610    4.9210    2.6610 cd        1 LIR     -0.145900
     14 N5         -0.8630    7.0870    3.4450 n         1 LIR     -0.504400
     15 N6         -2.6830    3.9040    2.9430 na        1 LIR      0.019900
     16 N8         -0.5360    3.6510    2.1470 na        1 LIR     -0.120100
     17 O9         -3.1460    7.0220    4.0930 o         1 LIR     -0.515500
     18 O10         1.2630    6.4390    2.5980 o         1 LIR     -0.490500
     19 C11        -0.5510    8.4290    3.8440 c3        1 LIR      0.079300
     20 C14        -0.2640    0.6360    0.5820 c3        1 LIR      0.150500
     21 C16        -2.4550    1.2800   -0.4470 c3        1 LIR     -0.107400
     22 N18         0.8820   -0.2400    0.6620 n3        1 LIR     -0.908800
     23 C19        -4.0320    3.6200    3.4190 c3        1 LIR      0.080600
     24 C23        -4.4590    3.0920    7.6660 ca        1 LIR     -0.095000
     25 C25        -4.0590    2.1370    5.4760 ca        1 LIR      0.009000
     26 N27        -3.6600    0.0250    4.0390 n1        1 LIR     -0.351800
     27 H131       -1.3990   -0.2620    2.2420 h1        1 LIR      0.099200
     28 H132       -0.2030    1.0060    2.7650 h1        1 LIR      0.099200
     29 H151       -1.7510   -0.7560   -0.2180 hc        1 LIR      0.069200
     30 H152       -0.8820    0.2130   -1.4740 hc        1 LIR      0.069200
     31 H171       -3.8040    2.2930    0.9230 h1        1 LIR      0.086200
     32 H172       -3.5990    0.5020    1.2380 h1        1 LIR      0.086200
     33 H21        -4.4440    5.5360    5.2810 ha        1 LIR      0.164000
     34 H22        -4.7310    5.2420    7.7340 ha        1 LIR      0.161000
     35 H24        -4.1690    0.9720    7.3060 ha        1 LIR      0.164000
     36 HN8         0.2980    3.2160    1.8110 hn        1 LIR      0.366700
     37 H111       -1.4720    9.0650    3.7470 h1        1 LIR      0.076700
     38 H112        0.2640    8.8290    3.1820 h1        1 LIR      0.076700
     39 H113       -0.2020    8.4440    4.9120 h1        1 LIR      0.076700
     40 H14         0.1400    1.6530    0.2920 h1        1 LIR      0.040700
     41 H161       -2.0760    2.2650   -0.8280 hc        1 LIR      0.069200
     42 H162       -3.2750    0.9470   -1.1390 hc        1 LIR      0.069200
     43 H181        0.6180   -1.1680    0.9270 hn        1 LIR      0.372800
     44 H182        1.3670   -0.2660   -0.2140 hn        1 LIR      0.372800
     45 H191       -4.4130    2.7020    2.8840 h1        1 LIR      0.106700
     46 H192       -4.6630    4.5100    3.1170 h1        1 LIR      0.106700
     47 H23        -4.5900    2.9610    8.7530 ha        1 LIR      0.163000
     48 C26        -3.8380    0.9830    4.6750 cg        1 LIR      0.224800
@<TRIPOS>BOND
     1    1   13 1   
     2    1   14 1   
     3    1   18 2   
     4    2    3 2   
     5    2   15 1   
     6    2   16 1   
     7    3    4 1   
     8    3    6 1   
     9    4   20 1   
    10    4   27 1   
    11    4   28 1   
    12    5   20 1   
    13    5   21 1   
    14    5   29 1   
    15    5   30 1   
    16    6   21 1   
    17    6   31 1   
    18    6   32 1   
    19    7    8 ar  
    20    7   23 1   
    21    7   25 ar  
    22    8    9 ar  
    23    8   33 1   
    24    9   24 ar  
    25    9   34 1   
    26   10   24 ar  
    27   10   25 ar  
    28   10   35 1   
    29   11   12 1   
    30   11   14 1   
    31   11   17 2   
    32   12   13 2   
    33   12   15 1   
    34   13   16 1   
    35   14   19 1   
    36   15   23 1   
    37   16   36 1   
    38   19   37 1   
    39   19   38 1   
    40   19   39 1   
    41   20   22 1   
    42   20   40 1   
    43   21   41 1   
    44   21   42 1   
    45   22   43 1   
    46   22   44 1   
    47   23   45 1   
    48   23   46 1   
    49   24   47 1   
    50   25   48 1   
    51   26   48 3   
@<TRIPOS>SUBSTRUCTURE
     1 LIR         1 TEMP              0 ****  ****    0 ROOT
