@<TRIPOS>MOLECULE
LIR
   49    52     1     0     0
SMALL
bcc


@<TRIPOS>ATOM
      1 C4         -0.3480   -0.0680   -0.1540 c         1 LIR      0.755100
      2 C7          3.3220   -0.1890    0.5700 cz        1 LIR      0.078400
      3 N12         4.4690   -0.0520    1.3830 nh        1 LIR     -0.202400
      4 C13         5.2390   -1.2640    1.5870 c3        1 LIR     -0.002700
      5 C15         7.2010    0.2300    2.3140 c3        1 LIR     -0.117400
      6 C17         5.1920    1.2060    1.2050 c3        1 LIR     -0.002700
      7 C20         4.4840   -1.6090   -2.5090 ca        1 LIR     -0.118300
      8 C21         3.5070   -2.1180   -3.3670 ca        1 LIR     -0.106000
      9 C22         3.7330   -3.2830   -4.1060 ca        1 LIR     -0.077000
     10 C24         5.9470   -3.4480   -3.1620 ca        1 LIR     -0.073000
     11 C1          0.8280   -0.0730   -2.2210 c         1 LIR      0.759100
     12 C2          1.8400   -0.1940   -1.1060 cc        1 LIR     -0.154900
     13 C3          1.1290   -0.1510    0.1290 cd        1 LIR     -0.136900
     14 N5         -0.4330   -0.0330   -1.5730 n         1 LIR     -0.488400
     15 N6          3.1930   -0.2430   -0.8380 na        1 LIR      0.045900
     16 N8          2.0370   -0.1530    1.1510 na        1 LIR     -0.048100
     17 O9          1.0570   -0.0060   -3.4220 o         1 LIR     -0.492500
     18 O10        -1.2560   -0.0480    0.6630 o         1 LIR     -0.459500
     19 C11        -1.6740    0.1470   -2.2800 c3        1 LIR      0.074300
     20 C14         6.4130   -1.0550    2.5870 c3        1 LIR      0.125500
     21 C16         6.2490    1.4030    2.2850 c3        1 LIR     -0.083400
     22 N18         7.3340   -2.2450    2.5640 n4        1 LIR     -0.843600
     23 C19         4.2590   -0.2860   -1.8380 c3        1 LIR      0.066600
     24 C23         4.9530   -3.9460   -4.0070 ca        1 LIR     -0.087000
     25 C25         5.7160   -2.2890   -2.4060 ca        1 LIR     -0.033000
     26 N27         7.6390   -1.5310   -0.8530 n1        1 LIR     -0.431800
     27 H131        5.6270   -1.6700    0.6110 h1        1 LIR      0.069700
     28 H132        4.5380   -2.0360    2.0240 h1        1 LIR      0.069700
     29 H151        7.9630    0.3930    3.1240 hc        1 LIR      0.094700
     30 H152        7.7490    0.1630    1.3360 hc        1 LIR      0.094700
     31 H171        5.6920    1.2580    0.1950 h1        1 LIR      0.076700
     32 H172        4.4380    2.0430    1.2700 h1        1 LIR      0.076700
     33 H21         2.5520   -1.5840   -3.4980 ha        1 LIR      0.163000
     34 H22         2.9470   -3.6620   -4.7820 ha        1 LIR      0.177000
     35 H24         6.9210   -3.9610   -3.1000 ha        1 LIR      0.169000
     36 HN8         1.8490   -0.0980    2.1330 hn        1 LIR      0.377700
     37 H111       -1.8880    1.2420   -2.4140 h1        1 LIR      0.086700
     38 H112       -1.5960   -0.3440   -3.2870 h1        1 LIR      0.086700
     39 H113       -2.5030   -0.3260   -1.6850 h1        1 LIR      0.086700
     40 H14         5.9800   -1.0040    3.6350 hx        1 LIR      0.128700
     41 H161        5.7680    1.5470    3.2890 hc        1 LIR      0.100700
     42 H162        6.8200    2.3430    2.0480 hc        1 LIR      0.100700
     43 H181        7.8430   -2.2850    1.6710 hn        1 LIR      0.473133
     44 H182        6.8050   -3.1130    2.6910 hn        1 LIR      0.473133
     45 H191        5.2080    0.0700   -1.3450 h1        1 LIR      0.110700
     46 H192        3.9620    0.4660   -2.6370 h1        1 LIR      0.110700
     47 H23         5.1440   -4.8550   -4.6030 ha        1 LIR      0.179000
     48 C26         6.7630   -1.8400   -1.5570 cg        1 LIR      0.270800
     49 H183        8.0190   -2.1530    3.3250 hn        1 LIR      0.473133
@<TRIPOS>BOND
     1    1   13 1   
     2    1   14 1   
     3    1   18 2   
     4    2    3 2   
     5    2   15 1   
     6    2   16 1   
     7    3    4 1   
     8    3    6 1   
     9    4   20 1   
    10    4   27 1   
    11    4   28 1   
    12    5   20 1   
    13    5   21 1   
    14    5   29 1   
    15    5   30 1   
    16    6   21 1   
    17    6   31 1   
    18    6   32 1   
    19    7    8 ar  
    20    7   23 1   
    21    7   25 ar  
    22    8    9 ar  
    23    8   33 1   
    24    9   24 ar  
    25    9   34 1   
    26   10   24 ar  
    27   10   25 ar  
    28   10   35 1   
    29   11   12 1   
    30   11   14 1   
    31   11   17 2   
    32   12   13 2   
    33   12   15 1   
    34   13   16 1   
    35   14   19 1   
    36   15   23 1   
    37   16   36 1   
    38   19   37 1   
    39   19   38 1   
    40   19   39 1   
    41   20   22 1   
    42   20   40 1   
    43   21   41 1   
    44   21   42 1   
    45   22   43 1   
    46   22   44 1   
    47   22   49 1   
    48   23   45 1   
    49   23   46 1   
    50   24   47 1   
    51   25   48 1   
    52   26   48 3   
@<TRIPOS>SUBSTRUCTURE
     1 LIR         1 TEMP              0 ****  ****    0 ROOT
