@<TRIPOS>MOLECULE
LIR
   48    42     1     0     0
SMALL
bcc


@<TRIPOS>ATOM
      1 C4         -3.1260   -0.6480    0.7820 c1        1 LIR      0.397000
      2 C7          0.6070   -0.6980    0.6700 c1        1 LIR      0.221000
      3 N12         2.0290   -0.9020    1.0670 n2        1 LIR     -0.193000
      4 C13         2.0860   -1.7040    2.4500 c3        1 LIR     -0.077000
      5 C15         0.9000    0.2090    3.2700 c3        1 LIR     -0.211000
      6 C17         2.6220    0.4630    1.6430 c3        1 LIR     -0.067000
      7 C20         0.4740    0.5730   -2.7690 c1        1 LIR     -0.111000
      8 C21        -0.0390    1.7550   -2.2450 c1        1 LIR     -0.112000
      9 C22        -0.3340    2.8210   -3.0900 c1        1 LIR     -0.098000
     10 C24         0.3970    1.5290   -4.9850 c1        1 LIR     -0.082000
     11 C26         1.3840   -0.7510   -4.6840 c1        1 LIR     -0.128000
     12 C1         -2.4760   -0.4080   -1.4240 c1        1 LIR      0.396000
     13 C2         -1.2120   -0.5260   -0.5710 c1        1 LIR     -0.115000
     14 C3         -1.5940   -0.6680    0.7330 c2        1 LIR     -0.097000
     15 N5         -3.6080   -0.4880   -0.5490 n2        1 LIR     -0.333000
     16 N6          0.1450   -0.5440   -0.6140 n2        1 LIR     -0.068000
     17 N8         -0.4660   -0.7730    1.4950 n2        1 LIR     -0.134000
     18 O9         -2.5150   -0.3740   -2.6470 o         1 LIR     -0.230000
     19 O10        -3.8060   -0.7370    1.7770 o         1 LIR     -0.216000
     20 C11        -4.9970   -0.5120   -0.9590 c3        1 LIR     -0.076000
     21 C14         1.2020   -1.0830    3.5470 c3        1 LIR     -0.042000
     22 C16         1.7380    1.0980    2.7380 c3        1 LIR     -0.178000
     23 N18         1.9400   -1.1430    4.8680 n3        1 LIR     -0.342000
     24 C19         0.9570   -0.5460   -1.8170 c2        1 LIR      0.008000
     25 C23        -0.1150    2.7060   -4.4600 c1        1 LIR     -0.098000
     26 C25         0.6930    0.4590   -4.1390 c1        1 LIR      0.005000
     27 N27         1.9090   -1.6710   -5.0990 n1        1 LIR      0.002000
     28 H131        1.7910   -2.6260    2.2920 h1        1 LIR      0.135000
     29 H132        3.0190   -1.7200    2.7670 h1        1 LIR      0.135000
     30 H151        0.5920    0.6020    4.1200 hc        1 LIR      0.105000
     31 H152        0.1260    0.1820    2.6760 hc        1 LIR      0.105000
     32 H171        3.5120    0.2840    2.0210 h1        1 LIR      0.122000
     33 H172        2.7150    1.0970    0.9090 h1        1 LIR      0.122000
     34 H21        -0.1930    1.8360   -1.2870 ha        1 LIR      0.142000
     35 H22        -0.6930    3.6470   -2.7230 ha        1 LIR      0.162000
     36 H24         0.5520    1.4490   -5.9540 ha        1 LIR      0.166000
     37 HN8        -0.4410   -0.9080    2.3850 DU        1 LIR      0.315000
     38 H111       -5.4850   -1.1820   -0.4270 h1        1 LIR      0.116000
     39 H112       -5.0540   -0.7440   -1.9050 h1        1 LIR      0.116000
     40 H113       -5.4000    0.3800   -0.8130 h1        1 LIR      0.116000
     41 H14         0.3710   -1.5990    3.6200 h1        1 LIR      0.086000
     42 H161        1.2200    1.8310    2.3450 hc        1 LIR      0.115500
     43 H162        2.3130    1.4570    3.4450 hc        1 LIR      0.115500
     44 H181        1.3320   -1.2030    5.5560 hn        1 LIR      0.169500
     45 H182        2.4850   -1.8730    4.8790 hn        1 LIR      0.169500
     46 H191        1.8900   -0.3900   -1.5790 ha        1 LIR      0.153500
     47 H192        0.8750   -1.4120   -2.2640 ha        1 LIR      0.153500
     48 H23        -0.3210    3.4530   -5.0510 ha        1 LIR      0.162000
@<TRIPOS>BOND
     1    1   14 1   
     2    1   19 1   
     3    2   16 1   
     4    2   17 1   
     5    3    4 1   
     6    3    6 1   
     7    4   21 1   
     8    4   28 1   
     9    4   29 1   
    10    5   21 1   
    11    5   22 1   
    12    5   30 1   
    13    5   31 1   
    14    6   22 1   
    15    6   32 1   
    16    6   33 1   
    17    7    8 1   
    18    7   24 1   
    19    8   34 1   
    20    9   25 1   
    21    9   35 1   
    22   10   26 1   
    23   10   36 1   
    24   11   27 1   
    25   12   15 1   
    26   12   18 1   
    27   13   14 1   
    28   13   16 1   
    29   14   17 1   
    30   15   20 1   
    31   20   38 1   
    32   20   39 1   
    33   20   40 1   
    34   21   23 1   
    35   21   41 1   
    36   22   42 1   
    37   22   43 1   
    38   23   44 1   
    39   23   45 1   
    40   24   46 1   
    41   24   47 1   
    42   25   48 1   
@<TRIPOS>SUBSTRUCTURE
     1 LIR         1 TEMP              0 ****  ****    0 ROOT
