@<TRIPOS>MOLECULE
LIR
   49    51     1     0     0
SMALL
bcc


@<TRIPOS>ATOM
      1 C4         -0.3890   -0.0540   -0.2080 c         1 LIR      0.754700
      2 C7          3.3130    0.0040    0.3610 cz        1 LIR      0.253300
      3 N12         4.5010    0.1890    1.1100 nh        1 LIR     -0.246100
      4 C13         5.2200   -1.0330    1.4320 c3        1 LIR     -0.004700
      5 C15         7.2700   -0.0160    2.5090 c2        1 LIR     -0.305200
      6 C17         5.2910    1.3450    0.7300 c3        1 LIR     -0.033400
      7 C20         4.4820   -1.5040   -2.6130 ca        1 LIR     -0.126300
      8 C21         3.5230   -2.2270   -3.3290 ca        1 LIR     -0.106000
      9 C22         3.8480   -3.4460   -3.9270 ca        1 LIR     -0.085000
     10 C24         6.1160   -3.2350   -3.1250 ca        1 LIR     -0.080000
     11 C1          0.7040   -0.1760   -2.3170 c         1 LIR      0.757700
     12 C2          1.7600   -0.1450   -1.2400 cc        1 LIR     -0.158300
     13 C3          1.1010   -0.0520    0.0190 cd        1 LIR     -0.139300
     14 N5         -0.5310   -0.1350   -1.6210 n         1 LIR     -0.488400
     15 N6          3.1230   -0.1230   -1.0320 na        1 LIR     -0.010400
     16 N8          2.0530    0.0380    0.9970 na        1 LIR     -0.116400
     17 O9          0.8890   -0.2300   -3.5260 o         1 LIR     -0.488500
     18 O10        -1.2630   -0.0100    0.6440 o         1 LIR     -0.463500
     19 C11        -1.8060   -0.0660   -2.2840 c3        1 LIR      0.073300
     20 C14         6.0650   -0.8710    2.7330 c3        1 LIR      0.174700
     21 C16         7.7420    0.8250    3.4310 c2        1 LIR     -0.084000
     22 N18         6.5200   -2.2300    3.2210 n4        1 LIR     -0.846600
     23 C19         4.1340   -0.1450   -2.0880 c3        1 LIR      0.063600
     24 C23         5.1440   -3.9490   -3.8270 ca        1 LIR     -0.087000
     25 C25         5.7900   -2.0180   -2.5110 ca        1 LIR     -0.018000
     26 N27         7.6850   -0.7740   -1.2650 n1        1 LIR     -0.368800
     27 H131        4.4620   -1.8550    1.5850 h1        1 LIR      0.073700
     28 H132        5.9110   -1.3390    0.5940 h1        1 LIR      0.073700
     29 H151        7.7450   -0.1090    1.5150 ha        1 LIR      0.177000
     30 H152        7.2920    0.9570    4.4280 ha        1 LIR      0.158000
     31 H171        4.6340    2.1420    0.2900 h1        1 LIR      0.082700
     32 H172        6.1120    1.0950    0.0050 h1        1 LIR      0.082700
     33 H21         2.5060   -1.8190   -3.4560 ha        1 LIR      0.158000
     34 H22         3.0810   -3.9980   -4.4970 ha        1 LIR      0.174000
     35 H24         7.1480   -3.6210   -3.0680 ha        1 LIR      0.169000
     36 HN8         1.9050    0.1600    1.9780 hn        1 LIR      0.372700
     37 H111       -2.0800    1.0060   -2.4860 h1        1 LIR      0.086700
     38 H112       -1.7420   -0.6240   -3.2580 h1        1 LIR      0.086700
     39 H113       -2.5870   -0.5330   -1.6240 h1        1 LIR      0.086700
     40 H14         5.4150   -0.4460    3.5590 hx        1 LIR      0.121700
     41 H161        5.7540    1.7460    1.6740 h1        1 LIR      0.082700
     42 H162        8.6250    1.4580    3.2350 ha        1 LIR      0.158000
     43 H181        7.0830   -2.1040    4.0720 hn        1 LIR      0.467133
     44 H182        5.7190   -2.8320    3.4300 hn        1 LIR      0.467133
     45 H191        5.0480    0.3880   -1.6990 h1        1 LIR      0.115700
     46 H192        3.7000    0.4640   -2.9440 h1        1 LIR      0.115700
     47 H23         5.4100   -4.9020   -4.3160 ha        1 LIR      0.177000
     48 C26         6.8170   -1.3170   -1.8200 cg        1 LIR      0.225800
     49 H183        7.1070   -2.6810    2.5100 hn        1 LIR      0.467133
@<TRIPOS>BOND
     1    1   13 1   
     2    1   14 1   
     3    1   18 2   
     4    2    3 2   
     5    2   15 1   
     6    2   16 1   
     7    3    4 1   
     8    3    6 1   
     9    4   20 1   
    10    4   27 1   
    11    4   28 1   
    12    5   20 1   
    13    5   21 2   
    14    5   29 1   
    15    6   31 1   
    16    6   32 1   
    17    6   41 1   
    18    7    8 ar  
    19    7   23 1   
    20    7   25 ar  
    21    8    9 ar  
    22    8   33 1   
    23    9   24 ar  
    24    9   34 1   
    25   10   24 ar  
    26   10   25 ar  
    27   10   35 1   
    28   11   12 1   
    29   11   14 1   
    30   11   17 2   
    31   12   13 2   
    32   12   15 1   
    33   13   16 1   
    34   14   19 1   
    35   15   23 1   
    36   16   36 1   
    37   19   37 1   
    38   19   38 1   
    39   19   39 1   
    40   20   22 1   
    41   20   40 1   
    42   21   30 1   
    43   21   42 1   
    44   22   43 1   
    45   22   44 1   
    46   22   49 1   
    47   23   45 1   
    48   23   46 1   
    49   24   47 1   
    50   25   48 1   
    51   26   48 3   
@<TRIPOS>SUBSTRUCTURE
     1 LIR         1 TEMP              0 ****  ****    0 ROOT
