@<TRIPOS>MOLECULE
LIR
   49    52     1     0     0
SMALL
bcc


@<TRIPOS>ATOM
      1 C4          0.3480   -0.3660    0.2050 c         1 LIR      0.756100
      2 C7          4.0810   -0.0760    0.1950 cz        1 LIR      0.057400
      3 N12         5.4150    0.1660    0.6000 nh        1 LIR     -0.180400
      4 C13         6.0590   -0.8630    1.3850 c3        1 LIR     -0.010700
      5 C15         6.6840    0.8540    3.1590 c3        1 LIR     -0.111400
      6 C17         5.7330    1.5460    0.9510 c3        1 LIR     -0.013700
      7 C20         4.4390   -1.6440   -3.1450 ca        1 LIR     -0.135300
      8 C21         3.6870   -1.5580   -4.3190 ca        1 LIR     -0.079000
      9 C22         3.6110   -2.6460   -5.1940 ca        1 LIR     -0.087000
     10 C24         5.0380   -3.9330   -3.7280 ca        1 LIR     -0.075000
     11 C1          1.1220   -0.6500   -2.0260 c         1 LIR      0.763100
     12 C2          2.3240   -0.4550   -1.1340 cc        1 LIR     -0.143900
     13 C3          1.8500   -0.2590    0.1970 cd        1 LIR     -0.142900
     14 N5          0.0030   -0.6090   -1.1500 n         1 LIR     -0.490400
     15 N6          3.6980   -0.3550   -1.1350 na        1 LIR      0.086900
     16 N8          2.9260   -0.0260    1.0080 na        1 LIR     -0.093100
     17 O9          1.1110   -0.7950   -3.2400 o         1 LIR     -0.483500
     18 O10        -0.3890   -0.2740    1.1770 o         1 LIR     -0.472500
     19 C11        -1.3570   -0.7020   -1.6100 c3        1 LIR      0.074300
     20 C14         6.1940   -0.5750    2.9100 c3        1 LIR      0.083500
     21 C16         5.7700    1.8300    2.4480 c3        1 LIR     -0.112400
     22 N18         7.1160   -1.5820    3.5390 nz        1 LIR     -0.835600
     23 C19         4.6000   -0.4290   -2.2890 c3        1 LIR      0.072600
     24 C23         4.2840   -3.8280   -4.9010 ca        1 LIR     -0.083000
     25 C25         5.1180   -2.8450   -2.8510 ca        1 LIR     -0.016000
     26 N27         6.5420   -3.0720   -0.7050 n1        1 LIR     -0.428800
     27 H131        5.5140   -1.8420    1.2600 h1        1 LIR      0.106200
     28 H132        7.0960   -0.9570    0.9400 h1        1 LIR      0.106200
     29 H151        7.7330    0.9820    2.7760 hc        1 LIR      0.090700
     30 H152        6.6880    1.0810    4.2590 hc        1 LIR      0.090700
     31 H171        5.0050    2.2460    0.4510 h1        1 LIR      0.103700
     32 H172        6.7560    1.7370    0.5080 h1        1 LIR      0.103700
     33 H21         3.1390   -0.6310   -4.5630 ha        1 LIR      0.163000
     34 H22         3.0170   -2.5590   -6.1200 ha        1 LIR      0.175000
     35 H24         5.5750   -4.8690   -3.5000 ha        1 LIR      0.170000
     36 HN8         2.9010    0.1910    1.9810 hn        1 LIR      0.355700
     37 H111       -1.3940   -1.3800   -2.5050 h1        1 LIR      0.086033
     38 H112       -1.7390    0.3150   -1.8960 h1        1 LIR      0.086033
     39 H113       -1.9940   -1.1220   -0.7840 h1        1 LIR      0.086033
     40 H14         5.1890   -0.7150    3.4110 hx        1 LIR      0.103700
     41 H161        4.7400    1.7930    2.8900 hc        1 LIR      0.090200
     42 H162        6.1580    2.8760    2.6010 hc        1 LIR      0.090200
     43 H181        8.0600   -1.4920    3.1430 hn        1 LIR      0.473467
     44 H182        6.7750   -2.5340    3.3650 hn        1 LIR      0.473467
     45 H191        5.6610   -0.3750   -1.9070 h1        1 LIR      0.113700
     46 H192        4.3880    0.5000   -2.9040 h1        1 LIR      0.113700
     47 H23         4.2300   -4.6860   -5.5930 ha        1 LIR      0.176000
     48 C26         5.9020   -2.9650   -1.6710 cg        1 LIR      0.273800
     49 H183        7.1670   -1.4170    4.5510 hn        1 LIR      0.473467
@<TRIPOS>BOND
     1    1   13 1   
     2    1   14 1   
     3    1   18 2   
     4    2    3 2   
     5    2   15 1   
     6    2   16 1   
     7    3    4 1   
     8    3    6 1   
     9    4   20 1   
    10    4   27 1   
    11    4   28 1   
    12    5   20 1   
    13    5   21 1   
    14    5   29 1   
    15    5   30 1   
    16    6   21 1   
    17    6   31 1   
    18    6   32 1   
    19    7    8 ar  
    20    7   23 1   
    21    7   25 ar  
    22    8    9 ar  
    23    8   33 1   
    24    9   24 ar  
    25    9   34 1   
    26   10   24 ar  
    27   10   25 ar  
    28   10   35 1   
    29   11   12 1   
    30   11   14 1   
    31   11   17 2   
    32   12   13 2   
    33   12   15 1   
    34   13   16 1   
    35   14   19 1   
    36   15   23 1   
    37   16   36 1   
    38   19   37 1   
    39   19   38 1   
    40   19   39 1   
    41   20   22 1   
    42   20   40 1   
    43   21   41 1   
    44   21   42 1   
    45   22   43 1   
    46   22   44 1   
    47   22   49 1   
    48   23   45 1   
    49   23   46 1   
    50   24   47 1   
    51   25   48 1   
    52   26   48 3   
@<TRIPOS>SUBSTRUCTURE
     1 LIR         1 TEMP              0 ****  ****    0 ROOT
