@<TRIPOS>MOLECULE
LIS
   17    17     1     0     0
SMALL
bcc


@<TRIPOS>ATOM
      1 N           1.8370    0.0620    0.1490 n3        1 LIS     -0.891800
      2 CA          0.4380    0.3480    0.4420 c3        1 LIS      0.018500
      3 CB         -0.5280   -0.2840   -0.5620 c3        1 LIS     -0.063400
      4 CG         -0.3320    0.2650   -1.9390 cx        1 LIS      0.102100
      5 C          -0.0230   -0.0650    1.8810 c         1 LIS      0.889600
      6 CD          0.3130   -0.5290   -3.0180 cx        1 LIS      0.044400
      7 OXT         0.8350   -0.5820    2.6510 o         1 LIS     -0.840300
      8 O          -1.2230    0.1650    2.1930 o         1 LIS     -0.840300
      9 OD1        -1.1090   -0.3430   -2.9970 os        1 LIS     -0.447600
     10 HN1         2.3690    0.3240    0.9640 hn        1 LIS      0.330800
     11 HN2         1.9450   -0.9330    0.0550 hn        1 LIS      0.330800
     12 HA          0.3230    1.4700    0.3840 h1        1 LIS      0.040700
     13 HBC1       -0.4130   -1.3990   -0.5670 hc        1 LIS      0.063700
     14 HBC2       -1.5720   -0.0550   -0.2110 hc        1 LIS      0.063700
     15 HG         -0.3040    1.3720   -1.9950 h1        1 LIS      0.078700
     16 HDC1        0.8290   -0.0320   -3.8590 h1        1 LIS      0.059700
     17 HDC2        0.6450   -1.5660   -2.8300 h1        1 LIS      0.059700
@<TRIPOS>BOND
     1    1    2 1   
     2    1   10 1   
     3    1   11 1   
     4    2    3 1   
     5    2    5 1   
     6    2   12 1   
     7    3    4 1   
     8    3   13 1   
     9    3   14 1   
    10    4    6 1   
    11    4    9 1   
    12    4   15 1   
    13    5    7 1   
    14    5    8 1   
    15    6    9 1   
    16    6   16 1   
    17    6   17 1   
@<TRIPOS>SUBSTRUCTURE
     1 LIS         1 TEMP              0 ****  ****    0 ROOT
