@<TRIPOS>MOLECULE
LIS
   18    18     1     0     0
SMALL
bcc


@<TRIPOS>ATOM
      1 N           0.4050    0.5840   -0.2230 nz        1 LIS     -0.828600
      2 CA          1.6740    0.0190    0.3270 c3        1 LIS     -0.071500
      3 CB          1.5190   -0.5450    1.7260 c3        1 LIS     -0.090400
      4 CG          1.1940    0.4500    2.7970 cx        1 LIS      0.055100
      5 C           2.1840   -1.1700   -0.6340 c         1 LIS      0.937600
      6 CD          1.8600    1.7750    2.9050 cx        1 LIS      0.068400
      7 OXT         1.3590   -1.5190   -1.5160 o         1 LIS     -0.756300
      8 O           3.3250   -1.5850   -0.3790 o         1 LIS     -0.756300
      9 OD1         0.5200    1.6630    2.3940 os        1 LIS     -0.462600
     10 HN1         0.0230   -0.1370   -0.8750 hn        1 LIS      0.448467
     11 HN2        -0.2620    0.7910    0.5200 hn        1 LIS      0.448467
     12 HA          2.4510    0.8300    0.3150 hx        1 LIS      0.087700
     13 HBC1        2.5040   -1.0380    1.9740 hc        1 LIS      0.098700
     14 HBC2        0.7390   -1.3550    1.7280 hc        1 LIS      0.098700
     15 HG          0.7640   -0.0080    3.7130 h1        1 LIS      0.101700
     16 HDC1        1.9330    2.2880    3.8810 h1        1 LIS      0.086200
     17 HDC2        2.6120    2.0950    2.1610 h1        1 LIS      0.086200
     18 HN3         0.6010    1.4300   -0.7500 hn        1 LIS      0.448467
@<TRIPOS>BOND
     1    1    2 1   
     2    1   10 1   
     3    1   11 1   
     4    1   18 1   
     5    2    3 1   
     6    2    5 1   
     7    2   12 1   
     8    3    4 1   
     9    3   13 1   
    10    3   14 1   
    11    4    6 1   
    12    4    9 1   
    13    4   15 1   
    14    5    7 1   
    15    5    8 1   
    16    6    9 1   
    17    6   16 1   
    18    6   17 1   
@<TRIPOS>SUBSTRUCTURE
     1 LIS         1 TEMP              0 ****  ****    0 ROOT
