@<TRIPOS>MOLECULE
LIS
   18    18     1     0     0
SMALL
bcc


@<TRIPOS>ATOM
      1 N           0.3340    0.4350   -0.1970 n4        1 LIS     -0.822600
      2 CA          1.6280   -0.0670    0.3540 c3        1 LIS     -0.070500
      3 CB          1.5320   -0.4910    1.8040 c3        1 LIS     -0.090400
      4 CG          1.2240    0.6150    2.7660 cx        1 LIS      0.055100
      5 C           2.1470   -1.2900   -0.5550 c         1 LIS      0.938600
      6 CD          1.9550    1.9100    2.7660 cx        1 LIS      0.068400
      7 OXT         1.5500   -1.4020   -1.6560 o         1 LIS     -0.759300
      8 O           3.0790   -1.9490   -0.0680 o         1 LIS     -0.759300
      9 OD1         0.6270    1.8140    2.2220 os        1 LIS     -0.463600
     10 HN1        -0.4410   -0.0700    0.2310 hn        1 LIS      0.448467
     11 HN2         0.2230    1.4320   -0.0190 hn        1 LIS      0.448467
     12 HA          2.3820    0.7600    0.2350 hx        1 LIS      0.086700
     13 HBC1        2.5310   -0.9470    2.0650 hc        1 LIS      0.099200
     14 HBC2        0.7690   -1.3080    1.9200 hc        1 LIS      0.099200
     15 HG          0.7430    0.2730    3.7070 h1        1 LIS      0.100700
     16 HDC1        2.7450    2.1150    2.0200 h1        1 LIS      0.086700
     17 HDC2        2.0270    2.5140    3.6890 h1        1 LIS      0.086700
     18 HN3         0.3490    0.2200   -1.2150 hn        1 LIS      0.448467
@<TRIPOS>BOND
     1    1    2 1   
     2    1   10 1   
     3    1   11 1   
     4    1   18 1   
     5    2    3 1   
     6    2    5 1   
     7    2   12 1   
     8    3    4 1   
     9    3   13 1   
    10    3   14 1   
    11    4    6 1   
    12    4    9 1   
    13    4   15 1   
    14    5    7 1   
    15    5    8 1   
    16    6    9 1   
    17    6   16 1   
    18    6   17 1   
@<TRIPOS>SUBSTRUCTURE
     1 LIS         1 TEMP              0 ****  ****    0 ROOT
