@<TRIPOS>MOLECULE
LIS
   18    18     1     0     0
SMALL
bcc


@<TRIPOS>ATOM
      1 N           0.3790    0.5600   -0.2090 n4        1 LIS     -0.828600
      2 CA          1.6560    0.0010    0.3270 c3        1 LIS     -0.071500
      3 CB          1.5270   -0.5330    1.7410 c3        1 LIS     -0.090400
      4 CG          1.2290    0.4870    2.7960 cx        1 LIS      0.055100
      5 C           2.1410   -1.2110   -0.6180 c         1 LIS      0.937600
      6 CD          1.9050    1.8100    2.8630 cx        1 LIS      0.068400
      7 OXT         1.2950   -1.5760   -1.4740 o         1 LIS     -0.756300
      8 O           3.2850   -1.6250   -0.3790 o         1 LIS     -0.756300
      9 OD1         0.5540    1.6950    2.3810 os        1 LIS     -0.462600
     10 HN1        -0.2700    0.7910    0.5430 hn        1 LIS      0.448467
     11 HN2         0.5690    1.3920   -0.7620 hn        1 LIS      0.448467
     12 HA          2.4370    0.8070    0.2820 hx        1 LIS      0.087700
     13 HBC1        0.7440   -1.3380    1.7760 hc        1 LIS      0.098700
     14 HBC2        2.5150   -1.0250    1.9790 hc        1 LIS      0.098700
     15 HG          0.8150    0.0510    3.7310 h1        1 LIS      0.101700
     16 HDC1        2.0010    2.3430    3.8260 h1        1 LIS      0.086200
     17 HDC2        2.6430    2.1100    2.0970 h1        1 LIS      0.086200
     18 HN3        -0.0210   -0.1730   -0.8340 hn        1 LIS      0.448467
@<TRIPOS>BOND
     1    1    2 1   
     2    1   10 1   
     3    1   11 1   
     4    1   18 1   
     5    2    3 1   
     6    2    5 1   
     7    2   12 1   
     8    3    4 1   
     9    3   13 1   
    10    3   14 1   
    11    4    6 1   
    12    4    9 1   
    13    4   15 1   
    14    5    7 1   
    15    5    8 1   
    16    6    9 1   
    17    6   16 1   
    18    6   17 1   
@<TRIPOS>SUBSTRUCTURE
     1 LIS         1 TEMP              0 ****  ****    0 ROOT
