@<TRIPOS>MOLECULE
LIT
   22    23     1     0     0
SMALL
bcc


@<TRIPOS>ATOM
      1 C1          0.7350   -1.5320   -0.5770 cc        1 LIT      0.081200
      2 C2         -0.5520   -1.1000   -0.8950 cd        1 LIT     -0.115300
      3 C3         -0.6890   -1.2530   -2.3080 cd        1 LIT     -0.298300
      4 C4          0.5220   -1.7700   -2.7800 cc        1 LIT      0.351700
      5 C5          0.9520   -2.1180   -4.0860 cc        1 LIT      0.247400
      6 N6          2.1050   -2.6200   -4.5990 nd        1 LIT     -0.250000
      7 N7          1.9820   -2.7600   -5.8830 nd        1 LIT     -0.421000
      8 C8          0.7220   -2.3500   -6.2850 cc        1 LIT      0.480700
      9 S9          0.0540   -2.3200   -7.8030 ss        1 LIT      0.088600
     10 C10        -1.5660   -1.6670   -7.4490 c3        1 LIT     -0.215300
     11 C11        -2.0490   -1.6980   -8.9050 c         1 LIT      0.919600
     12 O12        -3.1810   -1.3290   -9.2670 o         1 LIT     -0.765300
     13 O13        -1.1090   -2.1550   -9.6590 o         1 LIT     -0.765300
     14 O14         0.0280   -1.9280   -5.1470 os        1 LIT     -0.388800
     15 O15         1.4260   -1.9550   -1.7330 os        1 LIT     -0.293800
     16 N16         1.4330   -1.6090    0.6900 no        1 LIT      0.250500
     17 O17         0.8410   -1.2470    1.6780 o         1 LIT     -0.211000
     18 O18         2.5590   -2.0200    0.7380 o         1 LIT     -0.211000
     19 H101       -1.5520   -0.6410   -7.0300 h1        1 LIT      0.075700
     20 H102       -2.1750   -2.3180   -6.7890 h1        1 LIT      0.075700
     21 H3         -1.5620   -1.0160   -2.9110 ha        1 LIT      0.185000
     22 H2         -1.2970   -0.7230   -0.1970 ha        1 LIT      0.179000
@<TRIPOS>BOND
     1    1    2 2   
     2    1   15 1   
     3    1   16 1   
     4    2    3 1   
     5    2   22 1   
     6    3    4 2   
     7    3   21 1   
     8    4    5 1   
     9    4   15 1   
    10    5    6 2   
    11    5   14 1   
    12    6    7 1   
    13    7    8 2   
    14    8    9 1   
    15    8   14 1   
    16    9   10 1   
    17   10   11 1   
    18   10   19 1   
    19   10   20 1   
    20   11   12 1   
    21   11   13 1   
    22   16   17 1   
    23   16   18 1   
@<TRIPOS>SUBSTRUCTURE
     1 LIT         1 TEMP              0 ****  ****    0 ROOT
