@<TRIPOS>MOLECULE
LIT
   22    19     1     0     0
SMALL
bcc


@<TRIPOS>ATOM
      1 C1          0.4080   -0.0600   -3.8570 c1        1 LIT     -0.175000
      2 C2         -0.0880    1.2270   -3.8860 c1        1 LIT     -0.053000
      3 C3         -0.2490    1.6460   -2.5950 c1        1 LIT     -0.234000
      4 C4          0.1480    0.6200   -1.7620 c2        1 LIT      0.159000
      5 C5          0.1500    0.6510   -0.3760 c2        1 LIT     -0.150000
      6 N6          0.9810    1.3710    0.3960 n2        1 LIT     -0.003000
      7 N7          0.6360    1.1640    1.6870 n2        1 LIT     -0.180000
      8 C8         -0.4060    0.3160    1.7080 c1        1 LIT     -0.240000
      9 S9         -1.2320   -0.2840    3.1580 s         1 LIT      0.578000
     10 C10        -0.0280   -0.7880    4.3580 c3        1 LIT     -0.404000
     11 C11        -0.7270   -1.4330    5.5340 c2        1 LIT      0.335000
     12 O12        -0.4840   -1.0400    6.7050 o         1 LIT     -0.498000
     13 O13        -1.5550   -2.3630    5.3420 o         1 LIT     -0.498000
     14 O14        -0.7090   -0.0040    0.4330 os        1 LIT     -0.094000
     15 O15         0.5520   -0.4300   -2.5450 os        1 LIT     -0.037000
     16 N16         0.7110   -0.8630   -4.9880 n2        1 LIT      0.505400
     17 O17         1.0640   -2.1710   -4.8210 o         1 LIT     -0.305700
     18 O18         0.6410   -0.3870   -6.1120 o         1 LIT     -0.305700
     19 H101        0.4730   -0.0060    4.6660 h1        1 LIT      0.121000
     20 H102        0.5880   -1.4310    3.9530 h1        1 LIT      0.121000
     21 H3         -0.5850    2.5180   -2.3120 DU        1 LIT      0.179500
     22 H2         -0.2900    1.7470   -4.6870 DU        1 LIT      0.179500
@<TRIPOS>BOND
     1    1    2 1   
     2    1   15 1   
     3    2    3 1   
     4    3    4 1   
     5    4    5 1   
     6    4   15 1   
     7    5    6 1   
     8    5   14 1   
     9    6    7 1   
    10    7    8 1   
    11    8   14 1   
    12    9   10 1   
    13   10   11 1   
    14   10   19 1   
    15   10   20 1   
    16   11   12 1   
    17   11   13 1   
    18   16   17 2   
    19   16   18 2   
@<TRIPOS>SUBSTRUCTURE
     1 LIT         1 TEMP              0 ****  ****    0 ROOT
