@<TRIPOS>MOLECULE
LIT
   22    23     1     0     0
SMALL
bcc


@<TRIPOS>ATOM
      1 C1         -0.0400   -0.0010    0.0190 cc        1 LIT      0.081200
      2 C2          1.3530    0.0460    0.0100 cd        1 LIT     -0.115300
      3 C3          1.7640    0.0410    1.3780 cd        1 LIT     -0.298300
      4 C4          0.6000   -0.0080    2.1510 cc        1 LIT      0.351700
      5 C5          0.4020   -0.0330    3.5550 cc        1 LIT      0.247400
      6 N6         -0.6950   -0.0800    4.3560 nd        1 LIT     -0.250000
      7 N7         -0.3240   -0.0840    5.5980 nd        1 LIT     -0.421000
      8 C8          1.0580   -0.0390    5.6800 cc        1 LIT      0.480700
      9 S9          2.0380   -0.0240    7.0170 ss        1 LIT      0.088600
     10 C10         3.6490    0.0400    6.2580 c3        1 LIT     -0.215300
     11 C11         4.4260    0.0480    7.5810 c         1 LIT      0.919600
     12 O12         5.6670    0.0890    7.6550 o         1 LIT     -0.765300
     13 O13         3.5960    0.0070    8.5660 o         1 LIT     -0.765300
     14 O14         1.5610   -0.0050    4.3760 os        1 LIT     -0.388800
     15 O15        -0.5360   -0.0340    1.3400 os        1 LIT     -0.293800
     16 N16        -1.0030   -0.0180   -1.0620 no        1 LIT      0.250500
     17 O17        -0.5780    0.0110   -2.1920 o         1 LIT     -0.211000
     18 O18        -2.1790   -0.0600   -0.8260 o         1 LIT     -0.211000
     19 H101        3.8850   -0.8470    5.6360 h1        1 LIT      0.075700
     20 H102        3.8250    0.9570    5.6600 h1        1 LIT      0.075700
     21 H3          2.7830    0.0700    1.7560 ha        1 LIT      0.185000
     22 H2          1.9930    0.0780   -0.8710 ha        1 LIT      0.179000
@<TRIPOS>BOND
     1    1    2 2   
     2    1   15 1   
     3    1   16 1   
     4    2    3 1   
     5    2   22 1   
     6    3    4 2   
     7    3   21 1   
     8    4    5 1   
     9    4   15 1   
    10    5    6 2   
    11    5   14 1   
    12    6    7 1   
    13    7    8 2   
    14    8    9 1   
    15    8   14 1   
    16    9   10 1   
    17   10   11 1   
    18   10   19 1   
    19   10   20 1   
    20   11   12 1   
    21   11   13 1   
    22   16   17 1   
    23   16   18 1   
@<TRIPOS>SUBSTRUCTURE
     1 LIT         1 TEMP              0 ****  ****    0 ROOT
