@<TRIPOS>MOLECULE
LIU
   78    80     1     0     0
SMALL
bcc


@<TRIPOS>ATOM
      1 C1         -0.5330    0.1370    0.0740 c3        1 LIU     -0.080400
      2 C2          0.9360    0.4610   -0.1690 c3        1 LIU     -0.055000
      3 C3          1.6650    0.3110    1.1600 c3        1 LIU     -0.080400
      4 C4          1.0740    1.1660    2.2740 c3        1 LIU      0.206800
      5 N5         -0.3740    1.1790    2.3680 nh        1 LIU     -0.642000
      6 C6         -1.1660    0.9890    1.1680 c3        1 LIU      0.206800
      7 C7          1.1010    1.8640   -0.7290 c3        1 LIU     -0.090100
      8 C8          1.5080   -0.5370   -1.1680 c3        1 LIU     -0.090100
      9 C9         -0.9570    1.8110    3.4500 ca        1 LIU      0.251600
     10 C10        -0.1910    2.2210    4.5820 ca        1 LIU     -0.224500
     11 C11        -0.7990    2.7470    5.7050 ca        1 LIU     -0.024000
     12 C12        -2.1950    2.9090    5.7700 ca        1 LIU     -0.277600
     13 C13        -2.9600    2.5660    4.6440 ca        1 LIU     -0.024000
     14 C14        -2.3660    2.0460    3.5100 ca        1 LIU     -0.224500
     15 C15        -2.7640    3.4240    7.0140 c         1 LIU      0.642700
     16 O16        -2.1290    4.0430    7.8810 o         1 LIU     -0.540100
     17 N17        -4.1760    3.2240    7.2680 nt        1 LIU     -0.724000
     18 S18        -5.6250    4.9490    6.5740 s4        1 LIU      1.680300
     19 C19        -4.7550    6.1870    6.8570 ca        1 LIU     -0.696500
     20 C20        -4.7190    6.8200    8.1230 ca        1 LIU      0.145000
     21 C21        -3.9580    7.9440    8.3890 ca        1 LIU     -0.297200
     22 C22        -3.1360    8.5560    7.3470 ca        1 LIU      0.361600
     23 C23        -3.1740    7.8790    6.0660 ca        1 LIU     -0.239000
     24 C24        -3.9280    6.7750    5.8430 ca        1 LIU      0.062000
     25 N25        -2.4040    9.6560    7.5520 nu        1 LIU     -0.666600
     26 C26        -1.5940   10.4030    6.5630 c3        1 LIU      0.241200
     27 C27        -0.4850    9.5290    5.9420 c3        1 LIU     -0.069300
     28 S28        -0.7190    9.4120    4.1910 ss        1 LIU     -0.186000
     29 C29         0.5820    8.4700    3.6300 ca        1 LIU     -0.021100
     30 C30         1.5780    7.8930    4.4180 ca        1 LIU     -0.124500
     31 C31         2.6000    7.1500    3.8260 ca        1 LIU     -0.110500
     32 C32         2.6320    6.9790    2.4430 ca        1 LIU     -0.123000
     33 C33         1.6370    7.5540    1.6500 ca        1 LIU     -0.110500
     34 C34         0.6180    8.2970    2.2380 ca        1 LIU     -0.124500
     35 N35        -4.0280    8.4760    9.7790 no        1 LIU      0.328200
     36 O36        -3.3440    9.4080   10.1090 o         1 LIU     -0.191000
     37 O37        -4.7820    7.9410   10.5430 o         1 LIU     -0.191000
     38 O38        -5.6850    4.4790    5.2960 o         1 LIU     -0.448900
     39 O39        -6.5410    4.5890    7.5170 o         1 LIU     -0.448900
     40 C40        -0.9020   11.5730    7.3010 c3        1 LIU     -0.124100
     41 C41        -2.4840   11.0300    5.4780 c3        1 LIU     -0.124100
     42 H11A       -0.6230   -0.9480    0.3490 hc        1 LIU      0.060450
     43 H12        -1.1200    0.3010   -0.8670 hc        1 LIU      0.060450
     44 H31A        1.6400   -0.7690    1.4660 hc        1 LIU      0.060450
     45 H32A        2.7400    0.6060    1.0400 hc        1 LIU      0.060450
     46 H41         1.4430    2.2280    2.1550 h1        1 LIU      0.046700
     47 H42         1.4820    0.7620    3.2480 h1        1 LIU      0.046700
     48 H61        -1.4280    2.0010    0.7360 h1        1 LIU      0.046700
     49 H62        -2.1290    0.4760    1.4640 h1        1 LIU      0.046700
     50 H71         0.6930    2.6250   -0.0220 hc        1 LIU      0.040867
     51 H72         0.5600    1.9560   -1.7020 hc        1 LIU      0.040867
     52 H73         2.1820    2.0830   -0.9020 hc        1 LIU      0.040867
     53 H81         0.9690   -0.4580   -2.1420 hc        1 LIU      0.040867
     54 H82         2.5910   -0.3290   -1.3410 hc        1 LIU      0.040867
     55 H83         1.4020   -1.5810   -0.7860 hc        1 LIU      0.040867
     56 H10         0.9060    2.1260    4.5870 ha        1 LIU      0.151000
     57 H11        -0.1860    3.0460    6.5730 ha        1 LIU      0.145500
     58 H13        -4.0510    2.7320    4.6250 ha        1 LIU      0.145500
     59 H14        -3.0110    1.8190    2.6490 ha        1 LIU      0.151000
     60 HN17       -4.3560    3.1550    8.2580 hn        1 LIU      0.305000
     61 H20        -5.3460    6.3860    8.9390 ha        1 LIU      0.198000
     62 H23        -2.5460    8.2720    5.2360 ha        1 LIU      0.200000
     63 H24        -3.9150    6.2990    4.8420 ha        1 LIU      0.173000
     64 HN25       -2.3880   10.0770    8.4690 hn        1 LIU      0.492800
     65 H271        0.5140    9.9890    6.1550 h1        1 LIU      0.088700
     66 H272       -0.4620    8.5050    6.3930 h1        1 LIU      0.088700
     67 H30         1.5760    8.0210    5.5110 ha        1 LIU      0.136000
     68 H31         3.3850    6.7050    4.4560 ha        1 LIU      0.142500
     69 H32         3.4430    6.4000    1.9760 ha        1 LIU      0.143000
     70 H33         1.6610    7.4280    0.5570 ha        1 LIU      0.142500
     71 H34        -0.1610    8.7590    1.6100 ha        1 LIU      0.136000
     72 H401       -0.2130   11.1990    8.0950 hc        1 LIU      0.071033
     73 H402       -1.6560   12.2570    7.7620 hc        1 LIU      0.071033
     74 H403       -0.3090   12.1560    6.5550 hc        1 LIU      0.071033
     75 H411       -1.8330   11.5900    4.7580 hc        1 LIU      0.071033
     76 H412       -3.2020   11.7550    5.9350 hc        1 LIU      0.071033
     77 H413       -3.0660   10.2630    4.9130 hc        1 LIU      0.071033
     78 H172       -4.5140    2.3970    6.8030 hn        1 LIU      0.305000
@<TRIPOS>BOND
     1    1    2 1   
     2    1    6 1   
     3    1   42 1   
     4    1   43 1   
     5    2    3 1   
     6    2    7 1   
     7    2    8 1   
     8    3    4 1   
     9    3   44 1   
    10    3   45 1   
    11    4    5 1   
    12    4   46 1   
    13    4   47 1   
    14    5    6 1   
    15    5    9 1   
    16    6   48 1   
    17    6   49 1   
    18    7   50 1   
    19    7   51 1   
    20    7   52 1   
    21    8   53 1   
    22    8   54 1   
    23    8   55 1   
    24    9   10 ar  
    25    9   14 ar  
    26   10   11 ar  
    27   10   56 1   
    28   11   12 ar  
    29   11   57 1   
    30   12   13 ar  
    31   12   15 1   
    32   13   14 ar  
    33   13   58 1   
    34   14   59 1   
    35   15   16 2   
    36   15   17 1   
    37   17   60 1   
    38   17   78 1   
    39   18   19 1   
    40   18   38 1   
    41   18   39 1   
    42   19   20 ar  
    43   19   24 ar  
    44   20   21 ar  
    45   20   61 1   
    46   21   22 ar  
    47   21   35 1   
    48   22   23 ar  
    49   22   25 1   
    50   23   24 ar  
    51   23   62 1   
    52   24   63 1   
    53   25   26 1   
    54   25   64 1   
    55   26   27 1   
    56   26   40 1   
    57   26   41 1   
    58   27   28 1   
    59   27   65 1   
    60   27   66 1   
    61   28   29 1   
    62   29   30 ar  
    63   29   34 ar  
    64   30   31 ar  
    65   30   67 1   
    66   31   32 ar  
    67   31   68 1   
    68   32   33 ar  
    69   32   69 1   
    70   33   34 ar  
    71   33   70 1   
    72   34   71 1   
    73   35   36 1   
    74   35   37 1   
    75   40   72 1   
    76   40   73 1   
    77   40   74 1   
    78   41   75 1   
    79   41   76 1   
    80   41   77 1   
@<TRIPOS>SUBSTRUCTURE
     1 LIU         1 TEMP              0 ****  ****    0 ROOT
