@<TRIPOS>MOLECULE
LIU
   77    80     1     0     0
SMALL
bcc


@<TRIPOS>ATOM
      1 C1          0.8960    0.0810   -0.8010 c3        1 LIU     -0.074400
      2 C2          1.7780   -0.9890   -1.4390 c3        1 LIU     -0.054000
      3 C3          1.1850   -1.3780   -2.7910 c3        1 LIU     -0.074400
      4 C4         -0.2930   -1.7510   -2.7020 c3        1 LIU      0.194800
      5 N5         -1.1020   -0.7410   -2.0370 nh        1 LIU     -0.645000
      6 C6         -0.5790   -0.3130   -0.7510 c3        1 LIU      0.194800
      7 C7          1.8910   -2.2040   -0.5310 c3        1 LIU     -0.088600
      8 C8          3.1730   -0.4150   -1.6580 c3        1 LIU     -0.088600
      9 C9         -2.4980   -0.8760   -2.1480 ca        1 LIU      0.188600
     10 C10        -3.0950   -1.0850   -3.4180 ca        1 LIU     -0.193000
     11 C11        -4.4740   -1.1320   -3.5570 ca        1 LIU     -0.052500
     12 C12        -5.3140   -0.9620   -2.4480 ca        1 LIU     -0.194600
     13 C13        -4.7430   -0.7660   -1.1880 ca        1 LIU     -0.052500
     14 C14        -3.3620   -0.7310   -1.0340 ca        1 LIU     -0.193000
     15 C15        -6.7780   -1.0250   -2.6690 c         1 LIU      0.714700
     16 O16        -7.2830   -1.7330   -3.5610 o         1 LIU     -0.590100
     17 N17        -7.6130   -0.2520   -1.8600 n         1 LIU     -0.675300
     18 S18        -9.2540   -0.0580   -1.9610 sy        1 LIU      1.526900
     19 C19        -9.8660   -1.5810   -1.6650 ca        1 LIU     -0.478500
     20 C20        -9.9720   -2.5410   -2.6670 ca        1 LIU      0.122000
     21 C21       -10.5320   -3.8060   -2.4250 ca        1 LIU     -0.310200
     22 C22       -11.0370   -4.1550   -1.1180 ca        1 LIU      0.334600
     23 C23       -10.9040   -3.1410   -0.1150 ca        1 LIU     -0.264000
     24 C24       -10.3460   -1.9160   -0.3840 ca        1 LIU      0.057000
     25 N25       -11.6180   -5.3590   -0.8670 nh        1 LIU     -0.746600
     26 C26       -12.2150   -5.8300    0.3850 c3        1 LIU      0.261200
     27 C27       -11.1590   -5.9570    1.5030 c3        1 LIU     -0.064300
     28 S28       -11.9840   -6.1800    3.0530 ss        1 LIU     -0.176000
     29 C29       -10.7660   -6.6490    4.1380 ca        1 LIU     -0.008100
     30 C30        -9.3940   -6.6570    3.8750 ca        1 LIU     -0.130000
     31 C31        -8.4910   -7.0500    4.8630 ca        1 LIU     -0.113000
     32 C32        -8.9490   -7.4320    6.1220 ca        1 LIU     -0.134000
     33 C33       -10.3190   -7.4220    6.3920 ca        1 LIU     -0.113000
     34 C34       -11.2230   -7.0360    5.4070 ca        1 LIU     -0.130000
     35 N35       -10.5750   -4.7340   -3.5780 no        1 LIU      0.325200
     36 O36       -10.6850   -5.9240   -3.4040 o         1 LIU     -0.220000
     37 O37       -10.4870   -4.2780   -4.6850 o         1 LIU     -0.220000
     38 O38        -9.5950    0.7890   -0.8790 o         1 LIU     -0.644800
     39 O39        -9.6320    0.3770   -3.2370 o         1 LIU     -0.644800
     40 C40       -12.7930   -7.2470    0.1470 c3        1 LIU     -0.116600
     41 C41       -13.3910   -4.9540    0.8470 c3        1 LIU     -0.116600
     42 H11A        1.0060    1.0350   -1.3800 hc        1 LIU      0.052700
     43 H12         1.2370    0.2740    0.2490 hc        1 LIU      0.052700
     44 H31A        1.7390   -2.2590   -3.2070 hc        1 LIU      0.052700
     45 H32A        1.3120   -0.5220   -3.5040 hc        1 LIU      0.052700
     46 H41        -0.6790   -1.8950   -3.7500 h1        1 LIU      0.039700
     47 H42        -0.3860   -2.7420   -2.1660 h1        1 LIU      0.039700
     48 H61        -0.7130   -1.1210    0.0280 h1        1 LIU      0.039700
     49 H62        -1.1680    0.5900   -0.4200 h1        1 LIU      0.039700
     50 H71         2.3410   -1.9130    0.4480 hc        1 LIU      0.036700
     51 H72         0.8860   -2.6510   -0.3400 hc        1 LIU      0.036700
     52 H73         2.5400   -2.9800   -1.0040 hc        1 LIU      0.036700
     53 H81         3.1290    0.4810   -2.3230 hc        1 LIU      0.036700
     54 H82         3.6210   -0.1120   -0.6820 hc        1 LIU      0.036700
     55 H83         3.8330   -1.1790   -2.1330 hc        1 LIU      0.036700
     56 H10        -2.4720   -1.1960   -4.3190 ha        1 LIU      0.142000
     57 H11        -4.9240   -1.3050   -4.5500 ha        1 LIU      0.144500
     58 H13        -5.3740   -0.6620   -0.2910 ha        1 LIU      0.144500
     59 H14        -2.9560   -0.5930   -0.0210 ha        1 LIU      0.142000
     60 HN17       -7.1310    0.2780   -1.1650 hn        1 LIU      0.336500
     61 H20        -9.5930   -2.2970   -3.6860 ha        1 LIU      0.204000
     62 H23       -11.2610   -3.3360    0.9080 ha        1 LIU      0.155000
     63 H24       -10.2790   -1.1590    0.4220 ha        1 LIU      0.164000
     64 HN25      -11.6120   -6.0520   -1.5900 hn        1 LIU      0.472800
     65 H271      -10.4970   -6.8330    1.2840 h1        1 LIU      0.078200
     66 H272      -10.5030   -5.0550    1.5540 h1        1 LIU      0.078200
     67 H30        -9.0110   -6.3510    2.8900 ha        1 LIU      0.136000
     68 H31        -7.4130   -7.0550    4.6430 ha        1 LIU      0.135000
     69 H32        -8.2360   -7.7400    6.9010 ha        1 LIU      0.135000
     70 H33       -10.6870   -7.7210    7.3850 ha        1 LIU      0.135000
     71 H34       -12.3030   -7.0340    5.6200 ha        1 LIU      0.136000
     72 H401      -13.1800   -7.6360    1.1210 hc        1 LIU      0.059533
     73 H402      -13.6310   -7.2110   -0.5880 hc        1 LIU      0.059533
     74 H403      -12.0080   -7.9470   -0.2280 hc        1 LIU      0.059533
     75 H411      -13.0690   -3.9300    1.1460 hc        1 LIU      0.059533
     76 H412      -13.8830   -5.4390    1.7280 hc        1 LIU      0.059533
     77 H413      -14.1480   -4.8620    0.0300 hc        1 LIU      0.059533
@<TRIPOS>BOND
     1    1    2 1   
     2    1    6 1   
     3    1   42 1   
     4    1   43 1   
     5    2    3 1   
     6    2    7 1   
     7    2    8 1   
     8    3    4 1   
     9    3   44 1   
    10    3   45 1   
    11    4    5 1   
    12    4   46 1   
    13    4   47 1   
    14    5    6 1   
    15    5    9 1   
    16    6   48 1   
    17    6   49 1   
    18    7   50 1   
    19    7   51 1   
    20    7   52 1   
    21    8   53 1   
    22    8   54 1   
    23    8   55 1   
    24    9   10 ar  
    25    9   14 ar  
    26   10   11 ar  
    27   10   56 1   
    28   11   12 ar  
    29   11   57 1   
    30   12   13 ar  
    31   12   15 1   
    32   13   14 ar  
    33   13   58 1   
    34   14   59 1   
    35   15   16 2   
    36   15   17 1   
    37   17   18 1   
    38   17   60 1   
    39   18   19 1   
    40   18   38 2   
    41   18   39 2   
    42   19   20 ar  
    43   19   24 ar  
    44   20   21 ar  
    45   20   61 1   
    46   21   22 ar  
    47   21   35 1   
    48   22   23 ar  
    49   22   25 1   
    50   23   24 ar  
    51   23   62 1   
    52   24   63 1   
    53   25   26 1   
    54   25   64 1   
    55   26   27 1   
    56   26   40 1   
    57   26   41 1   
    58   27   28 1   
    59   27   65 1   
    60   27   66 1   
    61   28   29 1   
    62   29   30 ar  
    63   29   34 ar  
    64   30   31 ar  
    65   30   67 1   
    66   31   32 ar  
    67   31   68 1   
    68   32   33 ar  
    69   32   69 1   
    70   33   34 ar  
    71   33   70 1   
    72   34   71 1   
    73   35   36 1   
    74   35   37 1   
    75   40   72 1   
    76   40   73 1   
    77   40   74 1   
    78   41   75 1   
    79   41   76 1   
    80   41   77 1   
@<TRIPOS>SUBSTRUCTURE
     1 LIU         1 TEMP              0 ****  ****    0 ROOT
