@<TRIPOS>MOLECULE
LIU
   78    80     1     0     0
SMALL
bcc


@<TRIPOS>ATOM
      1 C1         -0.5240    0.1810    0.0400 c3        1 LIU     -0.080400
      2 C2          0.9490    0.4970   -0.1840 c3        1 LIU     -0.055000
      3 C3          1.6640    0.3270    1.1500 c3        1 LIU     -0.080400
      4 C4          1.0670    1.1730    2.2680 c3        1 LIU      0.206800
      5 N5         -0.3820    1.1950    2.3470 nh        1 LIU     -0.642000
      6 C6         -1.1630    1.0250    1.1370 c3        1 LIU      0.206800
      7 C7          1.1300    1.9060   -0.7260 c3        1 LIU     -0.090100
      8 C8          1.5250   -0.4930   -1.1890 c3        1 LIU     -0.090100
      9 C9         -0.9720    1.8190    3.4300 ca        1 LIU      0.251600
     10 C10        -0.2140    2.2120    4.5750 ca        1 LIU     -0.224500
     11 C11        -0.8300    2.7300    5.6970 ca        1 LIU     -0.024000
     12 C12        -2.2260    2.9000    5.7500 ca        1 LIU     -0.277600
     13 C13        -2.9810    2.5750    4.6120 ca        1 LIU     -0.024000
     14 C14        -2.3790    2.0630    3.4800 ca        1 LIU     -0.224500
     15 C15        -2.8030    3.4060    6.9930 c         1 LIU      0.642700
     16 O16        -2.1720    4.0120    7.8730 o         1 LIU     -0.540100
     17 N17        -4.2180    3.2130    7.2310 n         1 LIU     -0.724000
     18 S18        -5.6480    4.9560    6.5420 s4        1 LIU      1.680300
     19 C19        -4.7710    6.1850    6.8390 ca        1 LIU     -0.696500
     20 C20        -4.7370    6.8070    8.1110 ca        1 LIU      0.145000
     21 C21        -3.9690    7.9230    8.3890 ca        1 LIU     -0.297200
     22 C22        -3.1370    8.5370    7.3570 ca        1 LIU      0.361600
     23 C23        -3.1720    7.8710    6.0700 ca        1 LIU     -0.239000
     24 C24        -3.9330    6.7740    5.8350 ca        1 LIU      0.062000
     25 N25        -2.3980    9.6310    7.5740 nh        1 LIU     -0.666600
     26 C26        -1.5790   10.3810    6.5960 c3        1 LIU      0.241200
     27 C27        -0.4720    9.5040    5.9740 c3        1 LIU     -0.069300
     28 S28        -0.6980    9.4030    4.2200 ss        1 LIU     -0.186000
     29 C29         0.6000    8.4580    3.6580 ca        1 LIU     -0.021100
     30 C30         1.5890    7.8690    4.4470 ca        1 LIU     -0.124500
     31 C31         2.6100    7.1250    3.8540 ca        1 LIU     -0.110500
     32 C32         2.6480    6.9650    2.4700 ca        1 LIU     -0.123000
     33 C33         1.6600    7.5530    1.6770 ca        1 LIU     -0.110500
     34 C34         0.6420    8.2960    2.2650 ca        1 LIU     -0.124500
     35 N35        -4.0430    8.4450    9.7830 no        1 LIU      0.328200
     36 O36        -3.3490    9.3660   10.1260 o         1 LIU     -0.191000
     37 O37        -4.8090    7.9130   10.5380 o         1 LIU     -0.191000
     38 O38        -5.7040    4.4970    5.2590 o         1 LIU     -0.448900
     39 O39        -6.5740    4.5960    7.4760 o         1 LIU     -0.448900
     40 C40        -0.8840   11.5410    7.3460 c3        1 LIU     -0.124100
     41 C41        -2.4590   11.0220    5.5110 c3        1 LIU     -0.124100
     42 H11A       -0.6240   -0.9060    0.3010 hc        1 LIU      0.060450
     43 H12        -1.1000    0.3600   -0.9050 hc        1 LIU      0.060450
     44 H31A        2.7420    0.6160    1.0440 hc        1 LIU      0.060450
     45 H32A        1.6280   -0.7560    1.4430 hc        1 LIU      0.060450
     46 H41         1.4450    2.2340    2.1650 h1        1 LIU      0.046700
     47 H42         1.4620    0.7550    3.2410 h1        1 LIU      0.046700
     48 H61        -1.4130    2.0430    0.7150 h1        1 LIU      0.046700
     49 H62        -2.1320    0.5150    1.4170 h1        1 LIU      0.046700
     50 H71         0.6000    2.0130   -1.7030 hc        1 LIU      0.040867
     51 H72         2.2140    2.1200   -0.8850 hc        1 LIU      0.040867
     52 H73         0.7190    2.6610   -0.0140 hc        1 LIU      0.040867
     53 H81         1.4070   -1.5400   -0.8210 hc        1 LIU      0.040867
     54 H82         0.9960   -0.3980   -2.1680 hc        1 LIU      0.040867
     55 H83         2.6110   -0.2900   -1.3480 hc        1 LIU      0.040867
     56 H10         0.8820    2.1090    4.5890 ha        1 LIU      0.151000
     57 H11        -0.2230    3.0150    6.5740 ha        1 LIU      0.145500
     58 H13        -4.0710    2.7480    4.5850 ha        1 LIU      0.145500
     59 H14        -3.0180    1.8490    2.6090 ha        1 LIU      0.151000
     60 HN17       -4.4090    3.1360    8.2190 hn        1 LIU      0.305000
     61 H20        -5.3720    6.3710    8.9190 ha        1 LIU      0.198000
     62 H23        -2.5370    8.2660    5.2470 ha        1 LIU      0.200000
     63 H24        -3.9180    6.3060    4.8300 ha        1 LIU      0.173000
     64 HN25       -2.3840   10.0440    8.4950 hn        1 LIU      0.492800
     65 H271       -0.4570    8.4770    6.4170 h1        1 LIU      0.088700
     66 H272        0.5290    9.9560    6.1950 h1        1 LIU      0.088700
     67 H30         1.5820    7.9880    5.5410 ha        1 LIU      0.136000
     68 H31         3.3890    6.6700    4.4840 ha        1 LIU      0.142500
     69 H32         3.4580    6.3850    2.0020 ha        1 LIU      0.143000
     70 H33         1.6890    7.4350    0.5830 ha        1 LIU      0.142500
     71 H34        -0.1300    8.7680    1.6370 ha        1 LIU      0.136000
     72 H401       -0.2820   12.1260    6.6090 hc        1 LIU      0.071033
     73 H402       -0.2000   11.1560    8.1410 hc        1 LIU      0.071033
     74 H403       -1.6350   12.2260    7.8090 hc        1 LIU      0.071033
     75 H411       -1.8010   11.5830    4.7990 hc        1 LIU      0.071033
     76 H412       -3.1750   11.7480    5.9700 hc        1 LIU      0.071033
     77 H413       -3.0440   10.2630    4.9370 hc        1 LIU      0.071033
     78 H172       -4.5580    2.3940    6.7540 hn        1 LIU      0.305000
@<TRIPOS>BOND
     1    1    2 1   
     2    1    6 1   
     3    1   42 1   
     4    1   43 1   
     5    2    3 1   
     6    2    7 1   
     7    2    8 1   
     8    3    4 1   
     9    3   44 1   
    10    3   45 1   
    11    4    5 1   
    12    4   46 1   
    13    4   47 1   
    14    5    6 1   
    15    5    9 1   
    16    6   48 1   
    17    6   49 1   
    18    7   50 1   
    19    7   51 1   
    20    7   52 1   
    21    8   53 1   
    22    8   54 1   
    23    8   55 1   
    24    9   10 ar  
    25    9   14 ar  
    26   10   11 ar  
    27   10   56 1   
    28   11   12 ar  
    29   11   57 1   
    30   12   13 ar  
    31   12   15 1   
    32   13   14 ar  
    33   13   58 1   
    34   14   59 1   
    35   15   16 2   
    36   15   17 1   
    37   17   60 1   
    38   17   78 1   
    39   18   19 1   
    40   18   38 1   
    41   18   39 1   
    42   19   20 ar  
    43   19   24 ar  
    44   20   21 ar  
    45   20   61 1   
    46   21   22 ar  
    47   21   35 1   
    48   22   23 ar  
    49   22   25 1   
    50   23   24 ar  
    51   23   62 1   
    52   24   63 1   
    53   25   26 1   
    54   25   64 1   
    55   26   27 1   
    56   26   40 1   
    57   26   41 1   
    58   27   28 1   
    59   27   65 1   
    60   27   66 1   
    61   28   29 1   
    62   29   30 ar  
    63   29   34 ar  
    64   30   31 ar  
    65   30   67 1   
    66   31   32 ar  
    67   31   68 1   
    68   32   33 ar  
    69   32   69 1   
    70   33   34 ar  
    71   33   70 1   
    72   34   71 1   
    73   35   36 1   
    74   35   37 1   
    75   40   72 1   
    76   40   73 1   
    77   40   74 1   
    78   41   75 1   
    79   41   76 1   
    80   41   77 1   
@<TRIPOS>SUBSTRUCTURE
     1 LIU         1 TEMP              0 ****  ****    0 ROOT
