@<TRIPOS>MOLECULE
LIU
   77    68     1     0     0
SMALL
bcc


@<TRIPOS>ATOM
      1 C1         -3.7550   -6.4740    5.4080 c3        1 LIU     -0.148000
      2 C2         -4.5280   -7.3610    4.5250 c3        1 LIU     -0.055000
      3 C3         -3.6640   -8.1930    3.6740 c3        1 LIU     -0.148000
      4 C4         -2.6350   -7.3730    2.9220 c3        1 LIU     -0.063500
      5 N5         -1.8730   -6.4890    3.8020 n3        1 LIU     -0.227000
      6 C6         -2.7270   -5.6610    4.6500 c3        1 LIU     -0.063500
      7 C7         -5.3950   -8.2660    5.3760 c3        1 LIU     -0.205500
      8 C8         -5.4200   -6.5180    3.6410 c3        1 LIU     -0.205500
      9 C9         -1.0220   -5.6490    3.0150 c1        1 LIU      0.041000
     10 C10        -1.5460   -4.5320    2.3770 c1        1 LIU     -0.165000
     11 C11        -0.7170   -3.7090    1.6240 c1        1 LIU     -0.093000
     12 C12         0.6350   -4.0020    1.5110 c1        1 LIU     -0.137000
     13 C13         1.1580   -5.1190    2.1490 c2        1 LIU     -0.074000
     14 C14         0.3290   -5.9430    2.9010 c1        1 LIU     -0.117000
     15 C15         1.5580   -3.0690    0.7240 c1        1 LIU      0.385000
     16 O16         2.7410   -3.3260    0.6250 o         1 LIU     -0.348000
     17 N17         1.0230   -1.9100    0.0800 n2        1 LIU     -0.850000
     18 S18         1.6260   -1.4240   -1.3860 s4        1 LIU      2.078800
     19 C19         1.8980    0.3450   -1.3890 c1        1 LIU     -0.925000
     20 C20         0.8150    1.2110   -1.3990 c1        1 LIU     -0.077000
     21 C21         1.0190    2.5790   -1.5320 c1        1 LIU     -0.005500
     22 C22         2.3080    3.0810   -1.6550 c1        1 LIU     -0.005500
     23 C23         3.3910    2.2150   -1.6450 c1        1 LIU     -0.077000
     24 C24         3.1870    0.8460   -1.5120 c1        1 LIU      0.073000
     25 N25         2.5270    4.4940   -1.6240 n2        1 LIU     -0.302000
     26 C26         2.9760    5.1730   -2.7950 c3        1 LIU      0.106000
     27 C27         2.2300    6.4810   -2.9370 c3        1 LIU     -0.323000
     28 S28         2.7970    7.3300   -4.3830 ss        1 LIU      0.241000
     29 C29         2.0310    8.9250   -4.4700 c2        1 LIU     -0.236000
     30 C30         0.7180    9.0410   -4.8990 c2        1 LIU     -0.139000
     31 C31         0.1160   10.2880   -4.9590 c1        1 LIU     -0.111000
     32 C32         0.8270   11.4190   -4.5890 c1        1 LIU     -0.123000
     33 C33         2.1400   11.3040   -4.1600 c1        1 LIU     -0.123000
     34 C34         2.7420   10.0560   -4.1000 c1        1 LIU     -0.119000
     35 N35        -0.0880    3.4660   -1.5120 n1        1 LIU      0.581000
     36 O36         0.0710    4.6490   -1.7810 o         1 LIU     -0.400000
     37 O37        -1.3260    3.0050   -1.1680 os        1 LIU     -0.352000
     38 O38         0.7610   -1.8200   -2.4620 o         1 LIU     -0.530400
     39 O39         2.8290   -2.1370   -1.7170 o         1 LIU     -0.530400
     40 C40         2.7150    4.3090   -4.0110 c3        1 LIU     -0.237500
     41 C41         4.4600    5.4480   -2.6800 c3        1 LIU     -0.237500
     42 H11A       -4.3700   -5.8630    5.8600 hc        1 LIU      0.090000
     43 H12        -3.2960   -7.0170    6.0790 hc        1 LIU      0.090000
     44 H31A       -3.2000   -8.8450    4.2350 hc        1 LIU      0.090000
     45 H32A       -4.2210   -8.6710    3.0280 hc        1 LIU      0.090000
     46 H41        -3.0930   -6.8320    2.2500 h1        1 LIU      0.075000
     47 H42        -2.0160   -7.9800    2.4710 h1        1 LIU      0.075000
     48 H61        -2.1650   -5.1830    5.2930 h1        1 LIU      0.075000
     49 H62        -3.1900   -5.0090    4.0910 h1        1 LIU      0.075000
     50 H71        -5.9530   -8.8260    4.7960 hc        1 LIU      0.074667
     51 H72        -5.9690   -7.7200    5.9530 hc        1 LIU      0.074667
     52 H73        -4.8240   -8.8380    5.9310 hc        1 LIU      0.074667
     53 H81        -6.0960   -6.0700    4.1910 hc        1 LIU      0.074667
     54 H82        -5.8630   -7.0910    2.9810 hc        1 LIU      0.074667
     55 H83        -4.8780   -5.8450    3.1770 hc        1 LIU      0.074667
     56 H10        -2.4970   -4.3260    2.4570 ha        1 LIU      0.141000
     57 H11        -1.0850   -2.9240    1.1760 ha        1 LIU      0.136000
     58 H13         2.1090   -5.3260    2.0700 ha        1 LIU      0.158000
     59 H14         0.6970   -6.7280    3.3500 ha        1 LIU      0.156000
     60 HN17        0.3490   -1.4400    0.4730 hn        1 LIU      0.252000
     61 H20        -0.0900    0.8600   -1.3120 ha        1 LIU      0.172500
     62 H23         4.2970    2.5660   -1.7320 ha        1 LIU      0.172500
     63 H24         3.9490    0.2380   -1.5050 ha        1 LIU      0.180000
     64 HN25        2.3760    4.9620   -0.8560 hn        1 LIU      0.265000
     65 H271        2.3930    7.0360   -2.1480 h1        1 LIU      0.118500
     66 H272        1.2720    6.3030   -3.0180 h1        1 LIU      0.118500
     67 H30         0.2170    8.2430   -5.1590 ha        1 LIU      0.131000
     68 H31        -0.8080   10.3690   -5.2610 ha        1 LIU      0.136000
     69 H32         0.4030   12.2970   -4.6310 ha        1 LIU      0.135500
     70 H33         2.6410   12.1010   -3.9000 ha        1 LIU      0.135500
     71 H34         3.6660    9.9750   -3.7980 ha        1 LIU      0.141000
     72 H401        3.1170    4.7280   -4.8020 hc        1 LIU      0.098333
     73 H402        1.7490    4.2170   -4.1450 hc        1 LIU      0.098333
     74 H403        3.1110    3.4240   -3.8730 hc        1 LIU      0.098333
     75 H411        4.6420    5.9160   -1.8370 hc        1 LIU      0.098333
     76 H412        4.9510    4.6010   -2.6940 hc        1 LIU      0.098333
     77 H413        4.7490    6.0060   -3.4330 hc        1 LIU      0.098333
@<TRIPOS>BOND
     1    1    2 1   
     2    1    6 1   
     3    1   42 1   
     4    1   43 1   
     5    2    3 1   
     6    2    7 1   
     7    2    8 1   
     8    3    4 1   
     9    3   44 1   
    10    3   45 1   
    11    4    5 1   
    12    4   46 1   
    13    4   47 1   
    14    5    6 1   
    15    5    9 1   
    16    6   48 1   
    17    6   49 1   
    18    7   50 1   
    19    7   51 1   
    20    7   52 1   
    21    8   53 1   
    22    8   54 1   
    23    8   55 1   
    24    9   10 1   
    25   10   56 1   
    26   11   12 1   
    27   11   57 1   
    28   12   13 1   
    29   13   14 1   
    30   13   58 1   
    31   14   59 1   
    32   15   16 1   
    33   17   18 1   
    34   17   60 1   
    35   18   38 1   
    36   18   39 1   
    37   19   24 1   
    38   20   21 1   
    39   20   61 1   
    40   21   22 1   
    41   22   23 1   
    42   23   62 1   
    43   24   63 1   
    44   25   26 1   
    45   25   64 1   
    46   26   27 1   
    47   26   40 1   
    48   26   41 1   
    49   27   28 1   
    50   27   65 1   
    51   27   66 1   
    52   28   29 1   
    53   29   30 1   
    54   29   34 1   
    55   30   31 1   
    56   30   67 1   
    57   31   68 1   
    58   32   33 1   
    59   32   69 1   
    60   33   70 1   
    61   34   71 1   
    62   35   36 1   
    63   40   72 1   
    64   40   73 1   
    65   40   74 1   
    66   41   75 1   
    67   41   76 1   
    68   41   77 1   
@<TRIPOS>SUBSTRUCTURE
     1 LIU         1 TEMP              0 ****  ****    0 ROOT
