@<TRIPOS>MOLECULE
LIU
   77    80     1     0     0
SMALL
bcc


@<TRIPOS>ATOM
      1 C1         -0.1880   -1.7000    0.3470 c3        1 LIU     -0.074400
      2 C2          1.1810   -2.2330    0.7630 c3        1 LIU     -0.054000
      3 C3          1.2180   -2.3680    2.2830 c3        1 LIU     -0.074400
      4 C4          0.7960   -1.0880    3.0010 c3        1 LIU      0.194800
      5 N5         -0.4830   -0.5690    2.5440 nh        1 LIU     -0.645000
      6 C6         -0.5910   -0.4350    1.1020 c3        1 LIU      0.194800
      7 C7          2.2870   -1.3090    0.2770 c3        1 LIU     -0.088600
      8 C8          1.3870   -3.6080    0.1390 c3        1 LIU     -0.088600
      9 C9         -1.0700    0.4440    3.3260 ca        1 LIU      0.188600
     10 C10        -1.1900    0.2790    4.7310 ca        1 LIU     -0.193000
     11 C11        -1.8430    1.2250    5.5050 ca        1 LIU     -0.052500
     12 C12        -2.4140    2.3630    4.9180 ca        1 LIU     -0.194600
     13 C13        -2.2960    2.5460    3.5380 ca        1 LIU     -0.052500
     14 C14        -1.6310    1.6120    2.7540 ca        1 LIU     -0.193000
     15 C15        -3.0960    3.3340    5.8050 c         1 LIU      0.714700
     16 O16        -2.7400    3.5190    6.9840 o         1 LIU     -0.590100
     17 N17        -4.1850    4.0520    5.3040 n         1 LIU     -0.675300
     18 S18        -5.1790    5.1070    6.1030 sy        1 LIU      1.526900
     19 C19        -4.1720    6.3570    6.5550 ca        1 LIU     -0.478500
     20 C20        -3.3960    6.2990    7.7090 ca        1 LIU      0.122000
     21 C21        -2.5850    7.3730    8.1120 ca        1 LIU     -0.310200
     22 C22        -2.5380    8.5940    7.3440 ca        1 LIU      0.334600
     23 C23        -3.3470    8.6110    6.1610 ca        1 LIU     -0.264000
     24 C24        -4.1240    7.5400    5.7930 ca        1 LIU      0.057000
     25 N25        -1.7910    9.6620    7.7320 nh        1 LIU     -0.746600
     26 C26        -1.6840   10.9720    7.0870 c3        1 LIU      0.261200
     27 C27        -1.0420   10.8640    5.6870 c3        1 LIU     -0.064300
     28 S28        -1.2650   12.3960    4.8290 ss        1 LIU     -0.176000
     29 C29        -0.2460   12.2960    3.4760 ca        1 LIU     -0.008100
     30 C30         0.4520   11.1600    3.0580 ca        1 LIU     -0.130000
     31 C31         1.2470   11.2040    1.9120 ca        1 LIU     -0.113000
     32 C32         1.3460   12.3800    1.1720 ca        1 LIU     -0.134000
     33 C33         0.6480   13.5170    1.5820 ca        1 LIU     -0.113000
     34 C34        -0.1410   13.4780    2.7270 ca        1 LIU     -0.130000
     35 N35        -1.8060    7.1730    9.3540 no        1 LIU      0.325200
     36 O36        -0.8330    7.8520    9.5840 o         1 LIU     -0.220000
     37 O37        -2.1550    6.3170   10.1210 o         1 LIU     -0.220000
     38 O38        -6.0830    5.5810    5.1220 o         1 LIU     -0.644800
     39 O39        -5.7450    4.5070    7.2340 o         1 LIU     -0.644800
     40 C40        -0.7510   11.8640    7.9420 c3        1 LIU     -0.116600
     41 C41        -3.0330   11.7060    7.0080 c3        1 LIU     -0.116600
     42 H11A       -0.1840   -1.4620   -0.7480 hc        1 LIU      0.052700
     43 H12        -0.9570   -2.4980    0.5230 hc        1 LIU      0.052700
     44 H31A        0.5430   -3.2080    2.5910 hc        1 LIU      0.052700
     45 H32A        2.2590   -2.6220    2.6140 hc        1 LIU      0.052700
     46 H41         0.7260   -1.3130    4.1010 h1        1 LIU      0.039700
     47 H42         1.6050   -0.3100    2.8620 h1        1 LIU      0.039700
     48 H61         0.0400    0.4260    0.7290 h1        1 LIU      0.039700
     49 H62        -1.6670   -0.2110    0.8530 h1        1 LIU      0.039700
     50 H71         3.2840   -1.7080    0.5830 hc        1 LIU      0.036700
     51 H72         2.1670   -0.2860    0.7080 hc        1 LIU      0.036700
     52 H73         2.2620   -1.2300   -0.8370 hc        1 LIU      0.036700
     53 H81         0.5910   -4.3150    0.4750 hc        1 LIU      0.036700
     54 H82         2.3800   -4.0210    0.4380 hc        1 LIU      0.036700
     55 H83         1.3510   -3.5350   -0.9740 hc        1 LIU      0.036700
     56 H10        -0.7800   -0.6140    5.2270 ha        1 LIU      0.142000
     57 H11        -1.9200    1.0890    6.5970 ha        1 LIU      0.144500
     58 H13        -2.7040    3.4460    3.0500 ha        1 LIU      0.144500
     59 H14        -1.5460    1.8060    1.6740 ha        1 LIU      0.142000
     60 HN17       -4.4010    3.8520    4.3510 hn        1 LIU      0.336500
     61 H20        -3.4160    5.3690    8.3230 ha        1 LIU      0.204000
     62 H23        -3.3570    9.5050    5.5210 ha        1 LIU      0.155000
     63 H24        -4.7440    7.6070    4.8780 ha        1 LIU      0.164000
     64 HN25       -1.1890    9.5600    8.5270 hn        1 LIU      0.472800
     65 H271        0.0470   10.6350    5.8010 h1        1 LIU      0.078200
     66 H272       -1.4910   10.0320    5.0920 h1        1 LIU      0.078200
     67 H30         0.3810   10.2200    3.6250 ha        1 LIU      0.136000
     68 H31         1.7940   10.3040    1.5950 ha        1 LIU      0.135000
     69 H32         1.9720   12.4130    0.2680 ha        1 LIU      0.135000
     70 H33         0.7220   14.4480    1.0000 ha        1 LIU      0.135000
     71 H34        -0.6870   14.3770    3.0520 ha        1 LIU      0.136000
     72 H401       -0.6100   12.8360    7.4100 hc        1 LIU      0.059533
     73 H402       -1.2050   12.0600    8.9420 hc        1 LIU      0.059533
     74 H403        0.2490   11.3880    8.0820 hc        1 LIU      0.059533
     75 H411       -3.7550   11.2000    6.3270 hc        1 LIU      0.059533
     76 H412       -2.8620   12.7450    6.6290 hc        1 LIU      0.059533
     77 H413       -3.4940   11.7760    8.0240 hc        1 LIU      0.059533
@<TRIPOS>BOND
     1    1    2 1   
     2    1    6 1   
     3    1   42 1   
     4    1   43 1   
     5    2    3 1   
     6    2    7 1   
     7    2    8 1   
     8    3    4 1   
     9    3   44 1   
    10    3   45 1   
    11    4    5 1   
    12    4   46 1   
    13    4   47 1   
    14    5    6 1   
    15    5    9 1   
    16    6   48 1   
    17    6   49 1   
    18    7   50 1   
    19    7   51 1   
    20    7   52 1   
    21    8   53 1   
    22    8   54 1   
    23    8   55 1   
    24    9   10 ar  
    25    9   14 ar  
    26   10   11 ar  
    27   10   56 1   
    28   11   12 ar  
    29   11   57 1   
    30   12   13 ar  
    31   12   15 1   
    32   13   14 ar  
    33   13   58 1   
    34   14   59 1   
    35   15   16 2   
    36   15   17 1   
    37   17   18 1   
    38   17   60 1   
    39   18   19 1   
    40   18   38 2   
    41   18   39 2   
    42   19   20 ar  
    43   19   24 ar  
    44   20   21 ar  
    45   20   61 1   
    46   21   22 ar  
    47   21   35 1   
    48   22   23 ar  
    49   22   25 1   
    50   23   24 ar  
    51   23   62 1   
    52   24   63 1   
    53   25   26 1   
    54   25   64 1   
    55   26   27 1   
    56   26   40 1   
    57   26   41 1   
    58   27   28 1   
    59   27   65 1   
    60   27   66 1   
    61   28   29 1   
    62   29   30 ar  
    63   29   34 ar  
    64   30   31 ar  
    65   30   67 1   
    66   31   32 ar  
    67   31   68 1   
    68   32   33 ar  
    69   32   69 1   
    70   33   34 ar  
    71   33   70 1   
    72   34   71 1   
    73   35   36 1   
    74   35   37 1   
    75   40   72 1   
    76   40   73 1   
    77   40   74 1   
    78   41   75 1   
    79   41   76 1   
    80   41   77 1   
@<TRIPOS>SUBSTRUCTURE
     1 LIU         1 TEMP              0 ****  ****    0 ROOT
