@<TRIPOS>MOLECULE
LIW
   94    98     1     0     0
SMALL
bcc


@<TRIPOS>ATOM
      1 C          -1.2500   -1.4560    0.0960 ca        1 LIW     -0.222000
      2 C1          0.0890   -0.9960   -0.0860 ca        1 LIW      0.249600
      3 C2          0.7270   -0.4100    1.0470 ca        1 LIW     -0.222000
      4 C3          0.0930   -0.3540    2.2730 ca        1 LIW     -0.025500
      5 C4         -1.2070   -0.8640    2.4460 ca        1 LIW     -0.275600
      6 C5         -1.8680   -1.4000    1.3300 ca        1 LIW     -0.025500
      7 N           0.7540   -1.1580   -1.2890 nh        1 LIW     -0.639000
      8 C6         -1.7880   -0.8020    3.7860 c         1 LIW      0.642700
      9 N1         -2.9320   -1.6370    4.0870 nt        1 LIW     -0.724000
     10 S          -5.0560   -0.6740    3.7260 s4        1 LIW      1.680300
     11 C7         -4.7680    0.8010    4.0550 ca        1 LIW     -0.697500
     12 C8          2.0110   -0.4610   -1.4840 c3        1 LIW      0.204300
     13 C9          2.7510   -0.8000   -2.7910 c3        1 LIW      0.155300
     14 N2          1.8660   -0.8400   -3.9430 n3        1 LIW     -0.725600
     15 C10         0.8080   -1.8140   -3.7300 c3        1 LIW      0.155300
     16 C11        -0.0160   -1.5290   -2.4600 c3        1 LIW      0.204300
     17 C12         2.5720   -1.0660   -5.2020 c3        1 LIW      0.207100
     18 O          -1.3860   -0.0650    4.6990 o         1 LIW     -0.539100
     19 O1         -5.0750   -1.0510    2.4160 o         1 LIW     -0.448900
     20 O2         -5.6000   -1.4490    4.7060 o         1 LIW     -0.448900
     21 C13        -4.8410    1.3170    5.3720 ca        1 LIW      0.146000
     22 C14        -4.6020    2.6440    5.6810 ca        1 LIW     -0.297200
     23 C15        -4.2600    3.6080    4.6370 ca        1 LIW      0.361600
     24 C16        -4.1730    3.0530    3.3010 ca        1 LIW     -0.240000
     25 C17        -4.4090    1.7440    3.0350 ca        1 LIW      0.062000
     26 N3         -4.7130    3.0180    7.1190 no        1 LIW      0.328200
     27 O3         -5.0880    2.1760    7.8870 o         1 LIW     -0.191000
     28 O4         -4.4300    4.1290    7.4820 o         1 LIW     -0.191000
     29 N4         -4.0460    4.9040    4.8860 nu        1 LIW     -0.666600
     30 C18        -3.7660    5.9820    3.9120 c3        1 LIW      0.241200
     31 C19        -3.5500    7.2940    4.7010 c3        1 LIW     -0.124100
     32 C20        -2.4800    5.7130    3.1020 c3        1 LIW     -0.069300
     33 S1         -2.8670    5.5870    1.3780 ss        1 LIW     -0.185000
     34 C21        -1.3790    5.2830    0.6100 ca        1 LIW     -0.022100
     35 C22        -0.1340    5.1990    1.2350 ca        1 LIW     -0.125000
     36 C23         1.0150    4.9610    0.4800 ca        1 LIW     -0.111000
     37 C24         0.9270    4.8060   -0.9020 ca        1 LIW     -0.123000
     38 C25        -0.3170    4.8900   -1.5310 ca        1 LIW     -0.111000
     39 C26        -1.4640    5.1270   -0.7820 ca        1 LIW     -0.125000
     40 C27        -4.9690    6.2180    2.9840 c3        1 LIW     -0.124100
     41 C28         5.7170    0.7780   -6.3180 ca        1 LIW     -0.118000
     42 C29         5.2580    2.0910   -6.3550 ca        1 LIW     -0.123000
     43 C30         3.9410    2.3770   -5.9960 ca        1 LIW     -0.133000
     44 C31         3.0900    1.3480   -5.6050 ca        1 LIW     -0.116000
     45 C32         3.5430    0.0230   -5.5580 ca        1 LIW     -0.083300
     46 C33         4.8710   -0.2670   -5.9140 cp        1 LIW     -0.031000
     47 C34         5.5950   -2.3130   -4.6860 ca        1 LIW     -0.120500
     48 C35         6.1470   -3.5920   -4.6780 ca        1 LIW     -0.129000
     49 C36         6.5230   -4.2010   -5.8760 ca        1 LIW     -0.122000
     50 C37         6.3480   -3.5240   -7.0830 ca        1 LIW     -0.129000
     51 C38         5.8020   -2.2410   -7.0950 ca        1 LIW     -0.120500
     52 C39         5.4170   -1.6280   -5.8950 cp        1 LIW     -0.049000
     53 H          -1.8220   -1.8680   -0.7510 ha        1 LIW      0.151000
     54 H2          1.7410    0.0110    0.9690 ha        1 LIW      0.151000
     55 H3          0.6110    0.0960    3.1390 ha        1 LIW      0.146000
     56 H5         -2.9080   -1.7640    1.4040 ha        1 LIW      0.146000
     57 HN1        -2.9270   -2.4750    3.5290 hn        1 LIW      0.305500
     58 H81         2.7070   -0.7420   -0.6410 h1        1 LIW      0.051700
     59 H82         1.8330    0.6530   -1.4440 h1        1 LIW      0.051700
     60 H91         3.2990   -1.7790   -2.6490 h1        1 LIW      0.052450
     61 H92         3.5200    0.0040   -2.9660 h1        1 LIW      0.052450
     62 H101        1.2130   -2.8680   -3.6680 h1        1 LIW      0.052450
     63 H102        0.0990   -1.7680   -4.6040 h1        1 LIW      0.052450
     64 H111       -0.5800   -2.4790   -2.2280 h1        1 LIW      0.051700
     65 H112       -0.7660   -0.7170   -2.6900 h1        1 LIW      0.051700
     66 H121        3.1050   -2.0630   -5.1970 h1        1 LIW      0.054700
     67 H122        1.7890   -1.1030   -6.0160 h1        1 LIW      0.054700
     68 H13        -5.1120    0.6110    6.1930 ha        1 LIW      0.198000
     69 H16        -3.8850    3.7240    2.4620 ha        1 LIW      0.201000
     70 H17        -4.3250    1.3760    1.9930 ha        1 LIW      0.173000
     71 HN4        -4.0900    5.2390    5.8380 hn        1 LIW      0.492800
     72 H191       -3.3650    8.1180    3.9690 hc        1 LIW      0.071033
     73 H192       -2.6690    7.2150    5.3830 hc        1 LIW      0.071033
     74 H193       -4.4550    7.5540    5.3010 hc        1 LIW      0.071033
     75 H201       -1.7590    6.5560    3.2600 h1        1 LIW      0.089200
     76 H202       -1.9580    4.7850    3.4460 h1        1 LIW      0.089200
     77 H22        -0.0410    5.3260    2.3240 ha        1 LIW      0.135500
     78 H23         1.9930    4.9030    0.9810 ha        1 LIW      0.143000
     79 H24         1.8350    4.6260   -1.4970 ha        1 LIW      0.144000
     80 H25        -0.3910    4.7750   -2.6240 ha        1 LIW      0.143000
     81 H26        -2.4430    5.2020   -1.2810 ha        1 LIW      0.135500
     82 H271       -5.2410    5.3050    2.4020 hc        1 LIW      0.071033
     83 H272       -5.8600    6.5380    3.5780 hc        1 LIW      0.071033
     84 H273       -4.7140    7.0390    2.2660 hc        1 LIW      0.071033
     85 H30         3.5730    3.4130   -6.0300 ha        1 LIW      0.134000
     86 H31         2.0460    1.5710   -5.3350 ha        1 LIW      0.140000
     87 H34         5.3030   -1.8310   -3.7400 ha        1 LIW      0.134500
     88 H35         6.2910   -4.1210   -3.7240 ha        1 LIW      0.136000
     89 H36         6.9590   -5.2100   -5.8680 ha        1 LIW      0.137000
     90 H37         6.6460   -4.0000   -8.0290 ha        1 LIW      0.136000
     91 H38         5.6720   -1.7060   -8.0470 ha        1 LIW      0.134500
     92 H28         6.7540    0.5480   -6.6060 ha        1 LIW      0.143000
     93 H12        -2.9520   -1.8790    5.0660 hn        1 LIW      0.305500
     94 H29         5.9330    2.9010   -6.6720 ha        1 LIW      0.139000
@<TRIPOS>BOND
     1    1    2 ar  
     2    1    6 ar  
     3    1   53 1   
     4    2    3 ar  
     5    2    7 1   
     6    3    4 ar  
     7    3   54 1   
     8    4    5 ar  
     9    4   55 1   
    10    5    6 ar  
    11    5    8 1   
    12    6   56 1   
    13    7   12 1   
    14    7   16 1   
    15    8    9 1   
    16    8   18 2   
    17    9   57 1   
    18    9   93 1   
    19   10   11 1   
    20   10   19 1   
    21   10   20 1   
    22   11   21 ar  
    23   11   25 ar  
    24   12   13 1   
    25   12   58 1   
    26   12   59 1   
    27   13   14 1   
    28   13   60 1   
    29   13   61 1   
    30   14   15 1   
    31   14   17 1   
    32   15   16 1   
    33   15   62 1   
    34   15   63 1   
    35   16   64 1   
    36   16   65 1   
    37   17   45 1   
    38   17   66 1   
    39   17   67 1   
    40   21   22 ar  
    41   21   68 1   
    42   22   23 ar  
    43   22   26 1   
    44   23   24 ar  
    45   23   29 1   
    46   24   25 ar  
    47   24   69 1   
    48   25   70 1   
    49   26   27 1   
    50   26   28 1   
    51   29   30 1   
    52   29   71 1   
    53   30   31 1   
    54   30   32 1   
    55   30   40 1   
    56   31   72 1   
    57   31   73 1   
    58   31   74 1   
    59   32   33 1   
    60   32   75 1   
    61   32   76 1   
    62   33   34 1   
    63   34   35 ar  
    64   34   39 ar  
    65   35   36 ar  
    66   35   77 1   
    67   36   37 ar  
    68   36   78 1   
    69   37   38 ar  
    70   37   79 1   
    71   38   39 ar  
    72   38   80 1   
    73   39   81 1   
    74   40   82 1   
    75   40   83 1   
    76   40   84 1   
    77   41   42 ar  
    78   41   46 ar  
    79   41   92 1   
    80   42   43 ar  
    81   42   94 1   
    82   43   44 ar  
    83   43   85 1   
    84   44   45 ar  
    85   44   86 1   
    86   45   46 ar  
    87   46   52 1   
    88   47   48 ar  
    89   47   52 ar  
    90   47   87 1   
    91   48   49 ar  
    92   48   88 1   
    93   49   50 ar  
    94   49   89 1   
    95   50   51 ar  
    96   50   90 1   
    97   51   52 ar  
    98   51   91 1   
@<TRIPOS>SUBSTRUCTURE
     1 LIW         1 TEMP              0 ****  ****    0 ROOT
