@<TRIPOS>MOLECULE
LIW
   93    98     1     0     0
SMALL
bcc


@<TRIPOS>ATOM
      1 C           2.6720   -2.1310    1.8440 ca        1 LIW     -0.193500
      2 C1          2.6140   -0.8410    1.2540 ca        1 LIW      0.187600
      3 C2          2.2550    0.2450    2.0900 ca        1 LIW     -0.193500
      4 C3          1.9920    0.0510    3.4400 ca        1 LIW     -0.051500
      5 C4          2.0760   -1.2260    4.0090 ca        1 LIW     -0.194600
      6 C5          2.4100   -2.3120    3.1940 ca        1 LIW     -0.051500
      7 N           2.9860   -0.6590   -0.0910 nh        1 LIW     -0.643000
      8 C6          1.7770   -1.3640    5.4540 c         1 LIW      0.714700
      9 N1          2.4390   -2.3510    6.1870 n         1 LIW     -0.674300
     10 S           2.3710   -2.6470    7.8140 sy        1 LIW      1.526900
     11 C7          0.7830   -3.0760    8.0870 ca        1 LIW     -0.478500
     12 C8          3.0350    0.7070   -0.5840 c3        1 LIW      0.191300
     13 C9          3.6700    0.8140   -1.9850 c3        1 LIW      0.161300
     14 N2          3.0730   -0.1020   -2.9450 n3        1 LIW     -0.728600
     15 C10         3.0840   -1.4720   -2.4520 c3        1 LIW      0.161300
     16 C11         2.4460   -1.6050   -1.0540 c3        1 LIW      0.191300
     17 C12         3.6700   -0.0020   -4.2740 c3        1 LIW      0.207100
     18 O           0.9670   -0.6180    6.0370 o         1 LIW     -0.590100
     19 O1          3.1920   -3.7810    8.0190 o         1 LIW     -0.644800
     20 O2          2.6960   -1.5000    8.5470 o         1 LIW     -0.644800
     21 C13        -0.2170   -2.1260    8.2740 ca        1 LIW      0.122000
     22 C14        -1.5440   -2.4910    8.5510 ca        1 LIW     -0.310200
     23 C15        -1.9220   -3.8800    8.6660 ca        1 LIW      0.334600
     24 C16        -0.8650   -4.8250    8.4610 ca        1 LIW     -0.264000
     25 C17         0.4220   -4.4340    8.1860 ca        1 LIW      0.057000
     26 N3         -2.5070   -1.3790    8.7200 no        1 LIW      0.325200
     27 O3         -2.0820   -0.2840    8.9720 o         1 LIW     -0.220000
     28 O4         -3.6930   -1.5700    8.5950 o         1 LIW     -0.220000
     29 N4         -3.1920   -4.2590    8.9700 nh        1 LIW     -0.746600
     30 C18        -3.7070   -5.6160    9.1670 c3        1 LIW      0.261200
     31 C19        -5.2040   -5.5200    9.5500 c3        1 LIW     -0.116600
     32 C20        -3.6280   -6.4450    7.8670 c3        1 LIW     -0.064300
     33 S1         -3.9220   -8.1480    8.2500 ss        1 LIW     -0.176000
     34 C21        -4.1570   -8.9030    6.7490 ca        1 LIW     -0.008100
     35 C22        -3.9610   -8.3170    5.4970 ca        1 LIW     -0.130000
     36 C23        -4.1740   -9.0550    4.3320 ca        1 LIW     -0.113000
     37 C24        -4.5780  -10.3860    4.4090 ca        1 LIW     -0.134000
     38 C25        -4.7720  -10.9800    5.6580 ca        1 LIW     -0.113000
     39 C26        -4.5660  -10.2450    6.8200 ca        1 LIW     -0.130000
     40 C27        -3.0090   -6.3530   10.3220 c3        1 LIW     -0.116600
     41 C28         4.3180    3.2300   -6.1920 ca        1 LIW     -0.121000
     42 C29         3.0350    3.7650   -6.2560 ca        1 LIW     -0.129000
     43 C30         1.9710    3.0910   -5.6570 ca        1 LIW     -0.132000
     44 C31         2.1950    1.8840   -5.0020 ca        1 LIW     -0.113000
     45 C32         3.4840    1.3380   -4.9260 ca        1 LIW     -0.074300
     46 C33         4.5580    2.0190   -5.5220 cp        1 LIW     -0.037000
     47 C34         6.6390    1.4420   -4.2750 ca        1 LIW     -0.119500
     48 C35         7.9590    0.9940   -4.2580 ca        1 LIW     -0.131000
     49 C36         8.5860    0.6140   -5.4440 ca        1 LIW     -0.127000
     50 C37         7.8910    0.6870   -6.6510 ca        1 LIW     -0.131000
     51 C38         6.5730    1.1390   -6.6740 ca        1 LIW     -0.119500
     52 C39         5.9350    1.5160   -5.4850 cp        1 LIW     -0.043000
     53 H           2.9460   -3.0100    1.2410 ha        1 LIW      0.141500
     54 H2          2.1680    1.2650    1.6860 ha        1 LIW      0.141500
     55 H3          1.7020    0.9050    4.0750 ha        1 LIW      0.145000
     56 H5          2.4570   -3.3330    3.6050 ha        1 LIW      0.145000
     57 HN1         3.0640   -2.9100    5.6450 hn        1 LIW      0.336500
     58 H81         3.6740    1.3140    0.1190 h1        1 LIW      0.047450
     59 H82         2.0050    1.1660   -0.6160 h1        1 LIW      0.047450
     60 H91         3.5010    1.8620   -2.3600 h1        1 LIW      0.044450
     61 H92         4.7840    0.6530   -1.8890 h1        1 LIW      0.044450
     62 H101        4.1300   -1.8970   -2.4160 h1        1 LIW      0.044450
     63 H102        2.4780   -2.1030   -3.1600 h1        1 LIW      0.044450
     64 H111        1.3290   -1.4780   -1.1520 h1        1 LIW      0.047450
     65 H112        2.6480   -2.6530   -0.6970 h1        1 LIW      0.047450
     66 H121        3.1570   -0.7690   -4.9260 h1        1 LIW      0.049700
     67 H122        4.7700   -0.2620   -4.2480 h1        1 LIW      0.049700
     68 H13         0.0480   -1.0460    8.1930 ha        1 LIW      0.204000
     69 H16        -1.0780   -5.9030    8.5270 ha        1 LIW      0.155000
     70 H17         1.2080   -5.2030    8.0510 ha        1 LIW      0.164000
     71 HN4        -3.9010   -3.5530    9.0270 hn        1 LIW      0.473800
     72 H191       -5.6140   -6.5570    9.6250 hc        1 LIW      0.059533
     73 H192       -5.3250   -5.0100   10.5350 hc        1 LIW      0.059533
     74 H193       -5.7860   -4.9630    8.7760 hc        1 LIW      0.059533
     75 H201       -4.3970   -6.0690    7.1460 h1        1 LIW      0.078200
     76 H202       -2.6330   -6.3390    7.3710 h1        1 LIW      0.078200
     77 H22        -3.6340   -7.2690    5.4150 ha        1 LIW      0.136000
     78 H23        -4.0180   -8.5810    3.3520 ha        1 LIW      0.135000
     79 H24        -4.7440  -10.9670    3.4900 ha        1 LIW      0.135000
     80 H25        -5.0900  -12.0310    5.7240 ha        1 LIW      0.135000
     81 H26        -4.7250  -10.7130    7.8050 ha        1 LIW      0.136000
     82 H271       -1.9390   -6.5690   10.1060 hc        1 LIW      0.059533
     83 H272       -3.5350   -7.3250   10.5050 hc        1 LIW      0.059533
     84 H273       -3.0660   -5.7440   11.2580 hc        1 LIW      0.059533
     85 H29         2.8630    4.7170   -6.7790 ha        1 LIW      0.134000
     86 H30         0.9550    3.5110   -5.7050 ha        1 LIW      0.134000
     87 H31         1.3540    1.3480   -4.5360 ha        1 LIW      0.146000
     88 H34         6.1450    1.7430   -3.3390 ha        1 LIW      0.136000
     89 H35         8.5060    0.9420   -3.3050 ha        1 LIW      0.133500
     90 H36         9.6270    0.2600   -5.4280 ha        1 LIW      0.133000
     91 H37         8.3840    0.3890   -7.5880 ha        1 LIW      0.133500
     92 H38         6.0270    1.2020   -7.6280 ha        1 LIW      0.136000
     93 H28         5.1600    3.7570   -6.6660 ha        1 LIW      0.137000
@<TRIPOS>BOND
     1    1    2 ar  
     2    1    6 ar  
     3    1   53 1   
     4    2    3 ar  
     5    2    7 1   
     6    3    4 ar  
     7    3   54 1   
     8    4    5 ar  
     9    4   55 1   
    10    5    6 ar  
    11    5    8 1   
    12    6   56 1   
    13    7   12 1   
    14    7   16 1   
    15    8    9 1   
    16    8   18 2   
    17    9   10 1   
    18    9   57 1   
    19   10   11 1   
    20   10   19 2   
    21   10   20 2   
    22   11   21 ar  
    23   11   25 ar  
    24   12   13 1   
    25   12   58 1   
    26   12   59 1   
    27   13   14 1   
    28   13   60 1   
    29   13   61 1   
    30   14   15 1   
    31   14   17 1   
    32   15   16 1   
    33   15   62 1   
    34   15   63 1   
    35   16   64 1   
    36   16   65 1   
    37   17   45 1   
    38   17   66 1   
    39   17   67 1   
    40   21   22 ar  
    41   21   68 1   
    42   22   23 ar  
    43   22   26 1   
    44   23   24 ar  
    45   23   29 1   
    46   24   25 ar  
    47   24   69 1   
    48   25   70 1   
    49   26   27 1   
    50   26   28 1   
    51   29   30 1   
    52   29   71 1   
    53   30   31 1   
    54   30   32 1   
    55   30   40 1   
    56   31   72 1   
    57   31   73 1   
    58   31   74 1   
    59   32   33 1   
    60   32   75 1   
    61   32   76 1   
    62   33   34 1   
    63   34   35 ar  
    64   34   39 ar  
    65   35   36 ar  
    66   35   77 1   
    67   36   37 ar  
    68   36   78 1   
    69   37   38 ar  
    70   37   79 1   
    71   38   39 ar  
    72   38   80 1   
    73   39   81 1   
    74   40   82 1   
    75   40   83 1   
    76   40   84 1   
    77   41   42 ar  
    78   41   46 ar  
    79   41   93 1   
    80   42   43 ar  
    81   42   85 1   
    82   43   44 ar  
    83   43   86 1   
    84   44   45 ar  
    85   44   87 1   
    86   45   46 ar  
    87   46   52 1   
    88   47   48 ar  
    89   47   52 ar  
    90   47   88 1   
    91   48   49 ar  
    92   48   89 1   
    93   49   50 ar  
    94   49   90 1   
    95   50   51 ar  
    96   50   91 1   
    97   51   52 ar  
    98   51   92 1   
@<TRIPOS>SUBSTRUCTURE
     1 LIW         1 TEMP              0 ****  ****    0 ROOT
