@<TRIPOS>MOLECULE
LIW
   94    98     1     0     0
SMALL
bcc


@<TRIPOS>ATOM
      1 C          -1.2360   -1.4610    0.1220 ca        1 LIW     -0.222000
      2 C1          0.1000   -0.9940   -0.0690 ca        1 LIW      0.249600
      3 C2          0.7400   -0.3960    1.0570 ca        1 LIW     -0.222000
      4 C3          0.1120   -0.3340    2.2850 ca        1 LIW     -0.025500
      5 C4         -1.1850   -0.8500    2.4680 ca        1 LIW     -0.275600
      6 C5         -1.8490   -1.3980    1.3590 ca        1 LIW     -0.025500
      7 N           0.7590   -1.1610   -1.2740 nh        1 LIW     -0.639000
      8 C6         -1.7600   -0.7800    3.8100 c         1 LIW      0.642700
      9 N1         -2.8990   -1.6190    4.1230 n         1 LIW     -0.724000
     10 S          -5.0290   -0.6680    3.7630 s4        1 LIW      1.680300
     11 C7         -4.7460    0.8100    4.0800 ca        1 LIW     -0.697500
     12 C8          2.0120   -0.4590   -1.4800 c3        1 LIW      0.204300
     13 C9          2.7480   -0.8040   -2.7880 c3        1 LIW      0.155300
     14 N2          1.8580   -0.8570   -3.9350 n3        1 LIW     -0.725600
     15 C10         0.8070   -1.8370   -3.7100 c3        1 LIW      0.155300
     16 C11        -0.0140   -1.5460   -2.4380 c3        1 LIW      0.204300
     17 C12         2.5590   -1.0890   -5.1970 c3        1 LIW      0.207100
     18 O          -1.3580   -0.0340    4.7160 o         1 LIW     -0.539100
     19 O1         -5.0520   -1.0560    2.4560 o         1 LIW     -0.448900
     20 O2         -5.5650   -1.4380    4.7520 o         1 LIW     -0.448900
     21 C13        -4.8170    1.3370    5.3930 ca        1 LIW      0.146000
     22 C14        -4.5840    2.6680    5.6900 ca        1 LIW     -0.297200
     23 C15        -4.2500    3.6240    4.6370 ca        1 LIW      0.361600
     24 C16        -4.1650    3.0590    3.3050 ca        1 LIW     -0.240000
     25 C17        -4.3950    1.7470    3.0510 ca        1 LIW      0.062000
     26 N3         -4.6910    3.0520    7.1260 no        1 LIW      0.328200
     27 O3         -5.0620    2.2160    7.9010 o         1 LIW     -0.191000
     28 O4         -4.4090    4.1670    7.4790 o         1 LIW     -0.191000
     29 N4         -4.0400    4.9240    4.8750 nh        1 LIW     -0.666600
     30 C18        -3.7690    5.9940    3.8910 c3        1 LIW      0.241200
     31 C19        -3.5570    7.3140    4.6690 c3        1 LIW     -0.124100
     32 C20        -2.4850    5.7260    3.0790 c3        1 LIW     -0.069300
     33 S1         -2.8760    5.5820    1.3580 ss        1 LIW     -0.185000
     34 C21        -1.3900    5.2790    0.5880 ca        1 LIW     -0.022100
     35 C22        -0.1420    5.2080    1.2090 ca        1 LIW     -0.125000
     36 C23         1.0060    4.9680    0.4530 ca        1 LIW     -0.111000
     37 C24         0.9140    4.8000   -0.9270 ca        1 LIW     -0.123000
     38 C25        -0.3320    4.8700   -1.5530 ca        1 LIW     -0.111000
     39 C26        -1.4780    5.1090   -0.8020 ca        1 LIW     -0.125000
     40 C27        -4.9760    6.2170    2.9650 c3        1 LIW     -0.124100
     41 C28         5.6880    0.7630   -6.3420 ca        1 LIW     -0.118000
     42 C29         5.2220    2.0740   -6.3860 ca        1 LIW     -0.123000
     43 C30         3.9050    2.3550   -6.0220 ca        1 LIW     -0.133000
     44 C31         3.0620    1.3240   -5.6190 ca        1 LIW     -0.116000
     45 C32         3.5230    0.0020   -5.5650 ca        1 LIW     -0.083300
     46 C33         4.8500   -0.2830   -5.9250 cp        1 LIW     -0.031000
     47 C34         5.5910   -2.3170   -4.6860 ca        1 LIW     -0.120500
     48 C35         6.1500   -3.5930   -4.6720 ca        1 LIW     -0.129000
     49 C36         6.5230   -4.2080   -5.8680 ca        1 LIW     -0.122000
     50 C37         6.3390   -3.5410   -7.0780 ca        1 LIW     -0.129000
     51 C38         5.7860   -2.2620   -7.0970 ca        1 LIW     -0.120500
     52 C39         5.4030   -1.6410   -5.9000 cp        1 LIW     -0.049000
     53 H          -1.8100   -1.8820   -0.7180 ha        1 LIW      0.151000
     54 H2          1.7510    0.0300    0.9700 ha        1 LIW      0.151000
     55 H3          0.6300    0.1250    3.1450 ha        1 LIW      0.146000
     56 H5         -2.8860   -1.7670    1.4410 ha        1 LIW      0.146000
     57 HN1        -2.9140   -1.8530    5.1040 hn        1 LIW      0.305500
     58 H81         1.8280    0.6540   -1.4480 h1        1 LIW      0.051700
     59 H82         2.7130   -0.7300   -0.6380 h1        1 LIW      0.051700
     60 H91         3.5110    0.0040   -2.9730 h1        1 LIW      0.052450
     61 H92         3.3020   -1.7780   -2.6410 h1        1 LIW      0.052450
     62 H101        0.0930   -1.8010   -4.5810 h1        1 LIW      0.052450
     63 H102        1.2180   -2.8870   -3.6420 h1        1 LIW      0.052450
     64 H111       -0.5700   -2.4980   -2.1960 h1        1 LIW      0.051700
     65 H112       -0.7690   -0.7400   -2.6710 h1        1 LIW      0.051700
     66 H121        3.0980   -2.0830   -5.1860 h1        1 LIW      0.054700
     67 H122        1.7730   -1.1360   -6.0060 h1        1 LIW      0.054700
     68 H13        -5.0820    0.6360    6.2200 ha        1 LIW      0.198000
     69 H16        -3.8820    3.7240    2.4600 ha        1 LIW      0.201000
     70 H17        -4.3130    1.3710    2.0110 ha        1 LIW      0.173000
     71 HN4        -4.0830    5.2660    5.8240 hn        1 LIW      0.492800
     72 H191       -2.6740    7.2450    5.3480 hc        1 LIW      0.071033
     73 H192       -3.3780    8.1330    3.9300 hc        1 LIW      0.071033
     74 H193       -4.4620    7.5750    5.2690 hc        1 LIW      0.071033
     75 H201       -1.9560    4.8030    3.4290 h1        1 LIW      0.089200
     76 H202       -1.7670    6.5740    3.2280 h1        1 LIW      0.089200
     77 H22        -0.0460    5.3470    2.2960 ha        1 LIW      0.135500
     78 H23         1.9860    4.9210    0.9510 ha        1 LIW      0.143000
     79 H24         1.8210    4.6180   -1.5240 ha        1 LIW      0.144000
     80 H25        -0.4090    4.7440   -2.6440 ha        1 LIW      0.143000
     81 H26        -2.4600    5.1740   -1.2990 ha        1 LIW      0.135500
     82 H271       -4.7270    7.0340    2.2390 hc        1 LIW      0.071033
     83 H272       -5.8670    6.5380    3.5590 hc        1 LIW      0.071033
     84 H273       -5.2450    5.2980    2.3920 hc        1 LIW      0.071033
     85 H30         3.5320    3.3890   -6.0620 ha        1 LIW      0.134000
     86 H31         2.0190    1.5440   -5.3450 ha        1 LIW      0.140000
     87 H34         5.3010   -1.8300   -3.7430 ha        1 LIW      0.134500
     88 H35         6.3010   -4.1150   -3.7160 ha        1 LIW      0.136000
     89 H36         6.9640   -5.2160   -5.8550 ha        1 LIW      0.137000
     90 H37         6.6350   -4.0220   -8.0230 ha        1 LIW      0.136000
     91 H38         5.6480   -1.7330   -8.0520 ha        1 LIW      0.134500
     92 H28         6.7250    0.5360   -6.6340 ha        1 LIW      0.143000
     93 H12        -2.8930   -2.4610    3.5710 hn        1 LIW      0.305500
     94 H29         5.8910    2.8840   -6.7120 ha        1 LIW      0.139000
@<TRIPOS>BOND
     1    1    2 ar  
     2    1    6 ar  
     3    1   53 1   
     4    2    3 ar  
     5    2    7 1   
     6    3    4 ar  
     7    3   54 1   
     8    4    5 ar  
     9    4   55 1   
    10    5    6 ar  
    11    5    8 1   
    12    6   56 1   
    13    7   12 1   
    14    7   16 1   
    15    8    9 1   
    16    8   18 2   
    17    9   57 1   
    18    9   93 1   
    19   10   11 1   
    20   10   19 1   
    21   10   20 1   
    22   11   21 ar  
    23   11   25 ar  
    24   12   13 1   
    25   12   58 1   
    26   12   59 1   
    27   13   14 1   
    28   13   60 1   
    29   13   61 1   
    30   14   15 1   
    31   14   17 1   
    32   15   16 1   
    33   15   62 1   
    34   15   63 1   
    35   16   64 1   
    36   16   65 1   
    37   17   45 1   
    38   17   66 1   
    39   17   67 1   
    40   21   22 ar  
    41   21   68 1   
    42   22   23 ar  
    43   22   26 1   
    44   23   24 ar  
    45   23   29 1   
    46   24   25 ar  
    47   24   69 1   
    48   25   70 1   
    49   26   27 1   
    50   26   28 1   
    51   29   30 1   
    52   29   71 1   
    53   30   31 1   
    54   30   32 1   
    55   30   40 1   
    56   31   72 1   
    57   31   73 1   
    58   31   74 1   
    59   32   33 1   
    60   32   75 1   
    61   32   76 1   
    62   33   34 1   
    63   34   35 ar  
    64   34   39 ar  
    65   35   36 ar  
    66   35   77 1   
    67   36   37 ar  
    68   36   78 1   
    69   37   38 ar  
    70   37   79 1   
    71   38   39 ar  
    72   38   80 1   
    73   39   81 1   
    74   40   82 1   
    75   40   83 1   
    76   40   84 1   
    77   41   42 ar  
    78   41   46 ar  
    79   41   92 1   
    80   42   43 ar  
    81   42   94 1   
    82   43   44 ar  
    83   43   85 1   
    84   44   45 ar  
    85   44   86 1   
    86   45   46 ar  
    87   46   52 1   
    88   47   48 ar  
    89   47   52 ar  
    90   47   87 1   
    91   48   49 ar  
    92   48   88 1   
    93   49   50 ar  
    94   49   89 1   
    95   50   51 ar  
    96   50   90 1   
    97   51   52 ar  
    98   51   91 1   
@<TRIPOS>SUBSTRUCTURE
     1 LIW         1 TEMP              0 ****  ****    0 ROOT
