@<TRIPOS>MOLECULE
LIW
   93    98     1     0     0
SMALL
bcc


@<TRIPOS>ATOM
      1 C           0.1020   -0.3730   -1.0520 ca        1 LIW     -0.193500
      2 C1          1.4690   -0.7000   -0.8530 ca        1 LIW      0.187600
      3 C2          1.9220   -0.8350    0.4830 ca        1 LIW     -0.193500
      4 C3          1.0510   -0.6720    1.5510 ca        1 LIW     -0.051500
      5 C4         -0.2990   -0.3700    1.3360 ca        1 LIW     -0.194600
      6 C5         -0.7590   -0.2140    0.0240 ca        1 LIW     -0.051500
      7 N           2.3030   -0.9620   -1.9560 nh        1 LIW     -0.643000
      8 C6         -1.1730   -0.2030    2.5210 c         1 LIW      0.714700
      9 N1         -2.5190   -0.5580    2.4200 n         1 LIW     -0.674300
     10 S          -3.6740   -0.5720    3.6060 sy        1 LIW      1.526900
     11 C7         -3.8120    1.0260    4.0620 ca        1 LIW     -0.478500
     12 C8          3.6500   -1.4270   -1.6710 c3        1 LIW      0.191300
     13 C9          4.3980   -1.9010   -2.9330 c3        1 LIW      0.161300
     14 N2          4.3640   -0.9220   -4.0080 n3        1 LIW     -0.728600
     15 C10         3.0010   -0.5110   -4.3130 c3        1 LIW      0.161300
     16 C11         2.2350   -0.0250   -3.0660 c3        1 LIW      0.191300
     17 C12         5.0740   -1.3660   -5.2040 c3        1 LIW      0.207100
     18 O          -0.7400    0.2290    3.6070 o         1 LIW     -0.590100
     19 O1         -4.8680   -0.9660    2.9570 o         1 LIW     -0.644800
     20 O2         -3.2670   -1.3530    4.6940 o         1 LIW     -0.644800
     21 C13        -2.9490    1.6070    4.9870 ca        1 LIW      0.122000
     22 C14        -3.0970    2.9400    5.4050 ca        1 LIW     -0.310200
     23 C15        -4.1700    3.7600    4.8960 ca        1 LIW      0.334600
     24 C16        -5.0330    3.1260    3.9430 ca        1 LIW     -0.264000
     25 C17        -4.8560    1.8230    3.5520 ca        1 LIW      0.057000
     26 N3         -2.1040    3.4320    6.3860 no        1 LIW      0.325200
     27 O3         -1.4840    2.6280    7.0290 o         1 LIW     -0.220000
     28 O4         -1.9160    4.6170    6.5280 o         1 LIW     -0.220000
     29 N4         -4.3580    5.0410    5.3120 nh        1 LIW     -0.746600
     30 C18        -5.4230    5.9690    4.9240 c3        1 LIW      0.261200
     31 C19        -5.2320    7.2890    5.7130 c3        1 LIW     -0.116600
     32 C20        -5.3440    6.3270    3.4250 c3        1 LIW     -0.064300
     33 S1         -6.8370    7.1500    2.9480 ss        1 LIW     -0.176000
     34 C21        -6.5130    7.7970    1.4130 ca        1 LIW     -0.008100
     35 C22        -5.3750    7.5490    0.6430 ca        1 LIW     -0.130000
     36 C23        -5.2370    8.1310   -0.6170 ca        1 LIW     -0.113000
     37 C24        -6.2360    8.9610   -1.1210 ca        1 LIW     -0.134000
     38 C25        -7.3780    9.2100   -0.3570 ca        1 LIW     -0.113000
     39 C26        -7.5160    8.6360    0.9020 ca        1 LIW     -0.130000
     40 C27        -6.8240    5.4480    5.2840 c3        1 LIW     -0.116600
     41 C28         8.5730   -2.8800   -5.2910 ca        1 LIW     -0.121000
     42 C29         9.3200   -1.8640   -4.7020 ca        1 LIW     -0.129000
     43 C30         8.6840   -0.7050   -4.2570 ca        1 LIW     -0.132000
     44 C31         7.3080   -0.5670   -4.4080 ca        1 LIW     -0.113000
     45 C32         6.5450   -1.5860   -4.9940 ca        1 LIW     -0.074300
     46 C33         7.1820   -2.7570   -5.4360 cp        1 LIW     -0.037000
     47 C34         5.5430   -4.6330   -5.3170 ca        1 LIW     -0.119500
     48 C35         4.8830   -5.7080   -5.9090 ca        1 LIW     -0.131000
     49 C36         5.1270   -6.0300   -7.2450 ca        1 LIW     -0.127000
     50 C37         6.0350   -5.2760   -7.9860 ca        1 LIW     -0.131000
     51 C38         6.7000   -4.2020   -7.3970 ca        1 LIW     -0.119500
     52 C39         6.4550   -3.8700   -6.0580 cp        1 LIW     -0.043000
     53 H          -0.3030   -0.2560   -2.0680 ha        1 LIW      0.141500
     54 H2          2.9760   -1.0630    0.7020 ha        1 LIW      0.141500
     55 H3          1.4220   -0.7680    2.5860 ha        1 LIW      0.145000
     56 H5         -1.8080    0.0510   -0.1790 ha        1 LIW      0.145000
     57 HN1        -2.7880   -0.8860    1.5160 hn        1 LIW      0.336500
     58 H81         4.2600   -0.6230   -1.1670 h1        1 LIW      0.047450
     59 H82         3.5780   -2.3100   -0.9740 h1        1 LIW      0.047450
     60 H91         3.9650   -2.8930   -3.2560 h1        1 LIW      0.044450
     61 H92         5.4760   -2.0660   -2.6520 h1        1 LIW      0.044450
     62 H101        3.0490    0.3510   -5.0360 h1        1 LIW      0.044450
     63 H102        2.4110   -1.3410   -4.8010 h1        1 LIW      0.044450
     64 H111        2.6430    0.9830   -2.7600 h1        1 LIW      0.047450
     65 H112        1.1610    0.1110   -3.3710 h1        1 LIW      0.047450
     66 H121        4.6080   -2.3040   -5.6310 h1        1 LIW      0.049700
     67 H122        4.9620   -0.5510   -5.9790 h1        1 LIW      0.049700
     68 H13        -2.1130    0.9960    5.3980 ha        1 LIW      0.204000
     69 H16        -5.8700    3.6910    3.5060 ha        1 LIW      0.155000
     70 H17        -5.5590    1.3720    2.8240 ha        1 LIW      0.164000
     71 HN4        -3.6770    5.4500    5.9220 hn        1 LIW      0.473800
     72 H191       -5.3710    7.1160    6.8060 hc        1 LIW      0.059533
     73 H192       -5.9980    8.0220    5.3600 hc        1 LIW      0.059533
     74 H193       -4.2180    7.7230    5.5380 hc        1 LIW      0.059533
     75 H201       -4.4600    6.9920    3.2540 h1        1 LIW      0.078200
     76 H202       -5.1980    5.4190    2.7920 h1        1 LIW      0.078200
     77 H22        -4.5780    6.8900    1.0190 ha        1 LIW      0.136000
     78 H23        -4.3340    7.9300   -1.2130 ha        1 LIW      0.135000
     79 H24        -6.1260    9.4190   -2.1140 ha        1 LIW      0.135000
     80 H25        -8.1710    9.8640   -0.7500 ha        1 LIW      0.135000
     81 H26        -8.4160    8.8370    1.5050 ha        1 LIW      0.136000
     82 H271       -7.5750    6.2550    5.0850 hc        1 LIW      0.059533
     83 H272       -7.1100    4.5500    4.6910 hc        1 LIW      0.059533
     84 H273       -6.8720    5.1870    6.3690 hc        1 LIW      0.059533
     85 H29        10.4080   -1.9760   -4.5890 ha        1 LIW      0.134000
     86 H30         9.2700    0.1010   -3.7900 ha        1 LIW      0.134000
     87 H31         6.8070    0.3520   -4.0640 ha        1 LIW      0.146000
     88 H34         5.3510   -4.3790   -4.2630 ha        1 LIW      0.136000
     89 H35         4.1710   -6.3040   -5.3200 ha        1 LIW      0.133500
     90 H36         4.6050   -6.8790   -7.7100 ha        1 LIW      0.133000
     91 H37         6.2300   -5.5280   -9.0390 ha        1 LIW      0.133500
     92 H38         7.4210   -3.6110   -7.9810 ha        1 LIW      0.136000
     93 H28         9.0720   -3.7950   -5.6460 ha        1 LIW      0.137000
@<TRIPOS>BOND
     1    1    2 ar  
     2    1    6 ar  
     3    1   53 1   
     4    2    3 ar  
     5    2    7 1   
     6    3    4 ar  
     7    3   54 1   
     8    4    5 ar  
     9    4   55 1   
    10    5    6 ar  
    11    5    8 1   
    12    6   56 1   
    13    7   12 1   
    14    7   16 1   
    15    8    9 1   
    16    8   18 2   
    17    9   10 1   
    18    9   57 1   
    19   10   11 1   
    20   10   19 2   
    21   10   20 2   
    22   11   21 ar  
    23   11   25 ar  
    24   12   13 1   
    25   12   58 1   
    26   12   59 1   
    27   13   14 1   
    28   13   60 1   
    29   13   61 1   
    30   14   15 1   
    31   14   17 1   
    32   15   16 1   
    33   15   62 1   
    34   15   63 1   
    35   16   64 1   
    36   16   65 1   
    37   17   45 1   
    38   17   66 1   
    39   17   67 1   
    40   21   22 ar  
    41   21   68 1   
    42   22   23 ar  
    43   22   26 1   
    44   23   24 ar  
    45   23   29 1   
    46   24   25 ar  
    47   24   69 1   
    48   25   70 1   
    49   26   27 1   
    50   26   28 1   
    51   29   30 1   
    52   29   71 1   
    53   30   31 1   
    54   30   32 1   
    55   30   40 1   
    56   31   72 1   
    57   31   73 1   
    58   31   74 1   
    59   32   33 1   
    60   32   75 1   
    61   32   76 1   
    62   33   34 1   
    63   34   35 ar  
    64   34   39 ar  
    65   35   36 ar  
    66   35   77 1   
    67   36   37 ar  
    68   36   78 1   
    69   37   38 ar  
    70   37   79 1   
    71   38   39 ar  
    72   38   80 1   
    73   39   81 1   
    74   40   82 1   
    75   40   83 1   
    76   40   84 1   
    77   41   42 ar  
    78   41   46 ar  
    79   41   93 1   
    80   42   43 ar  
    81   42   85 1   
    82   43   44 ar  
    83   43   86 1   
    84   44   45 ar  
    85   44   87 1   
    86   45   46 ar  
    87   46   52 1   
    88   47   48 ar  
    89   47   52 ar  
    90   47   88 1   
    91   48   49 ar  
    92   48   89 1   
    93   49   50 ar  
    94   49   90 1   
    95   50   51 ar  
    96   50   91 1   
    97   51   52 ar  
    98   51   92 1   
@<TRIPOS>SUBSTRUCTURE
     1 LIW         1 TEMP              0 ****  ****    0 ROOT
