@<TRIPOS>MOLECULE
LIX
   82    81     1     0     0
SMALL
bcc


@<TRIPOS>ATOM
      1 N1          0.2090    0.8040   -0.0170 n2        1 LIX     -0.291000
      2 N3          2.3420    1.4470   -0.8400 nh        1 LIX     -0.335000
      3 C4          2.1990    0.2690    1.3050 c2        1 LIX     -0.255000
      4 C5          1.9840   -1.0690    3.3860 c2        1 LIX     -0.153000
      5 C6          1.5080   -2.1590    3.9890 c2        1 LIX     -0.154000
      6 C7          4.2130    1.6050    1.8480 ca        1 LIX     -0.146000
      7 C8          5.5900    1.7200    2.0080 ca        1 LIX     -0.121000
      8 C10         5.8460   -0.6700    1.5030 ca        1 LIX      0.025000
      9 C15         8.0690   -1.5750    1.4950 c2        1 LIX     -0.145000
     10 C20         0.4390   -1.0300   -4.8390 c1        1 LIX      0.073000
     11 C21        -0.6020   -1.6580   -5.3090 c2        1 LIX     -0.486000
     12 C24         3.9170    0.5450   -7.9690 c2        1 LIX     -0.202000
     13 C26         5.8260   -0.5000   -6.8340 ca        1 LIX     -0.090000
     14 C28         6.1940    0.8710   -8.8600 c3        1 LIX     -0.214000
     15 O5          1.8140   -2.7890   -4.4540 o         1 LIX     -0.943500
     16 O4          3.7140   -3.2850   -3.0710 o         1 LIX     -0.943500
     17 C30         3.9990   -1.5950   -4.9360 ca        1 LIX     -0.769000
     18 C29         3.5270   -0.8220   -5.9480 ca        1 LIX      0.005000
     19 C25         4.4010   -0.2380   -6.9440 ca        1 LIX      0.038000
     20 C31         5.4160   -1.8450   -4.8390 ca        1 LIX     -0.098000
     21 C32         6.2830   -1.3280   -5.7390 ca        1 LIX     -0.107000
     22 C27         6.6840    0.0300   -7.7540 c2        1 LIX     -0.085000
     23 C23         4.7620    1.1250   -8.9430 c1        1 LIX     -0.107000
     24 N6          2.6080   -1.1030   -2.8140 n3        1 LIX     -0.951000
     25 C1          1.5620    0.8630    0.1640 c2        1 LIX      0.178000
     26 C3          1.3660   -0.4280    2.2140 c2        1 LIX      0.133000
     27 N2          0.0280   -0.5230    2.0510 n2        1 LIX     -0.251000
     28 C2         -0.5130    0.1210    0.9470 c2        1 LIX      0.187000
     29 N4         -1.9050    0.1360    0.8290 nh        1 LIX     -0.327000
     30 C12         3.6410    0.3750    1.4980 ca        1 LIX     -0.011000
     31 C11         4.4520   -0.7510    1.3180 ca        1 LIX     -0.141000
     32 N5          6.7010   -1.7790    1.3070 nh        1 LIX     -0.158000
     33 C16         6.1550   -3.0600    1.1300 c2        1 LIX      0.010000
     34 C18         5.9590   -5.3280    0.3160 c1        1 LIX      0.050000
     35 O1          5.4860   -5.9210   -0.7150 os        1 LIX     -0.094000
     36 C19         5.4780   -5.3730   -2.0530 c3        1 LIX     -0.167000
     37 C14         8.5820   -0.1760    1.3500 c3        1 LIX      0.007000
     38 O2          7.7620    0.7820    2.0350 os        1 LIX     -0.211000
     39 C9          6.4030    0.5970    1.8320 ca        1 LIX      0.024000
     40 HN3         3.2200    1.7970   -0.5220 hn        1 LIX      0.210500
     41 H51         2.9100   -0.5760    3.7280 ha        1 LIX      0.142000
     42 H52         0.5950   -2.6770    3.6690 ha        1 LIX      0.123500
     43 H61         2.0210   -2.6060    4.8520 ha        1 LIX      0.123500
     44 H62         3.1130   -3.9850    1.9140 ha        1 LIX      0.000667
     45 H63         2.8910   -3.5670    2.4000 ha        1 LIX      0.000667
     46 H7          3.5700    2.4840    2.0060 ha        1 LIX      0.140000
     47 H8          6.0530    2.6810    2.2790 ha        1 LIX      0.152000
     48 H131        8.6100    0.0830    0.2560 h1        1 LIX      0.116500
     49 H132        8.0070   -4.7880   -1.1590 hc        1 LIX      0.085000
     50 H133        7.7320   -2.9930   -1.2220 hc        1 LIX      0.085000
     51 H171        5.3700   -1.8130   -1.8450 ha        1 LIX      0.000667
     52 H172        5.2720   -2.1500   -1.2640 ha        1 LIX      0.000667
     53 H201        1.8660    2.0400   -1.4840 hn        1 LIX      0.210500
     54 H202       -1.5420   -1.1880   -5.6270 ha        1 LIX      0.191000
     55 H211        3.1110   -0.8790   -1.9890 hn        1 LIX      0.266000
     56 H212        1.8470   -0.4840   -2.9840 hn        1 LIX      0.266000
     57 H221       10.3390   -3.2930    3.0790 h4        1 LIX      0.145500
     58 H222        9.5960   -0.0280    1.8020 h1        1 LIX      0.116500
     59 H223       10.2820   -1.3770    3.0650 h4        1 LIX      0.145500
     60 H28         6.7070    1.8810   -8.8250 hc        1 LIX      0.174000
     61 H29         2.4410   -0.6170   -6.0430 ha        1 LIX      0.171000
     62 H31         5.7640   -2.4840   -4.0070 ha        1 LIX      0.159000
     63 H32         7.3640   -1.5220   -5.6690 ha        1 LIX      0.137000
     64 H27         7.7670   -0.1600   -7.6930 ha        1 LIX      0.133000
     65 H23         6.5030    0.4130   -9.8500 hc        1 LIX      0.174000
     66 HN6        -0.5860   -2.7590   -5.4150 ha        1 LIX      0.191000
     67 HN41       -2.4060   -0.5350    1.3640 hn        1 LIX      0.224500
     68 HN42       -2.2790    0.3630   -0.0620 hn        1 LIX      0.224500
     69 H11         3.9780   -1.7050    1.0310 ha        1 LIX      0.154000
     70 H161        8.7330   -3.7050    0.1120 hc        1 LIX      0.085000
     71 H162        5.2340   -3.2440    1.7240 h4        1 LIX      0.154000
     72 H181        3.8750   -3.7990   -0.1820 ha        1 LIX      0.000667
     73 H182        3.5900   -3.9530   -0.7790 ha        1 LIX      0.000667
     74 H191        5.6900   -4.2770   -2.0480 h1        1 LIX      0.101333
     75 H192        4.4470   -5.5540   -2.4440 h1        1 LIX      0.101333
     76 H193        6.2410   -5.9360   -2.6390 h1        1 LIX      0.101333
     77 O3          8.6540   -2.4950    2.3220 os        1 LIX      0.063000
     78 C13         7.8360   -3.8740   -0.5380 c3        1 LIX     -0.173000
     79 C17         6.6210   -4.0190    0.2930 c2        1 LIX     -0.230000
     80 C22         9.8170   -2.3470    2.8890 c2        1 LIX     -0.258000
     81 S1          2.9720   -2.3040   -3.7760 s6        1 LIX      2.865000
     82 H24         2.8350    0.7410   -8.0520 ha        1 LIX      0.150000
@<TRIPOS>BOND
     1    1   25 1   
     2    1   28 1   
     3    2   25 1   
     4    2   40 1   
     5    2   53 1   
     6    3   25 1   
     7    3   26 1   
     8    3   30 1   
     9    4    5 1   
    10    4   26 1   
    11    4   41 1   
    12    5   42 1   
    13    5   43 1   
    14    6    7 1   
    15    6   30 1   
    16    6   46 1   
    17    7   39 1   
    18    7   47 1   
    19    8   31 1   
    20    8   32 1   
    21    8   39 1   
    22    9   32 1   
    23    9   37 1   
    24    9   77 1   
    25   10   11 1   
    26   11   54 1   
    27   11   66 1   
    28   12   19 1   
    29   12   23 1   
    30   12   82 1   
    31   13   19 1   
    32   13   21 1   
    33   13   22 1   
    34   14   22 1   
    35   14   23 1   
    36   14   60 1   
    37   14   65 1   
    38   15   81 1   
    39   16   81 1   
    40   17   18 1   
    41   17   20 1   
    42   17   81 1   
    43   18   19 1   
    44   18   61 1   
    45   20   21 1   
    46   20   62 1   
    47   21   63 1   
    48   22   64 1   
    49   24   55 1   
    50   24   56 1   
    51   24   81 1   
    52   26   27 1   
    53   27   28 1   
    54   28   29 1   
    55   29   67 1   
    56   29   68 1   
    57   30   31 1   
    58   31   69 1   
    59   32   33 1   
    60   33   71 1   
    61   33   79 1   
    62   34   35 1   
    63   34   79 1   
    64   35   36 1   
    65   36   74 1   
    66   36   75 1   
    67   36   76 1   
    68   37   38 1   
    69   37   48 1   
    70   37   58 1   
    71   38   39 1   
    72   44   45 1   
    73   49   78 1   
    74   50   78 1   
    75   51   52 1   
    76   57   80 1   
    77   59   80 1   
    78   70   78 1   
    79   72   73 1   
    80   77   80 1   
    81   78   79 1   
@<TRIPOS>SUBSTRUCTURE
     1 LIX         1 TEMP              0 ****  ****    0 ROOT
