@<TRIPOS>MOLECULE
LIX
   83    83     1     0     0
SMALL
bcc


@<TRIPOS>ATOM
      1 N1         -0.0230    0.6030    0.1060 n2        1 LIX     -0.284000
      2 N3          2.1460    0.9940   -0.8290 nh        1 LIX     -0.070000
      3 C4          1.9590   -0.1260    1.3490 c2        1 LIX     -0.163000
      4 C5          1.6810   -1.3480    3.5060 c2        1 LIX     -0.182000
      5 C6          1.0430   -1.6180    4.6480 c2        1 LIX     -0.107000
      6 C7          4.0910    0.8830    2.0990 ca        1 LIX     -0.090000
      7 C8          5.4680    0.8320    2.2660 ca        1 LIX     -0.137000
      8 C10         5.5130   -1.3680    1.1880 ca        1 LIX     -0.010000
      9 C15         7.6600   -2.5180    1.0190 c2        1 LIX      0.247000
     10 C20         1.7910    1.9700   -1.6260 c2        1 LIX      0.157000
     11 C21         2.6350    2.4820   -2.7290 c3        1 LIX     -0.271000
     12 C24         3.0070   -1.1690   -7.6950 c2        1 LIX     -0.185000
     13 C26         5.4500   -1.1110   -7.4910 ca        1 LIX     -0.097000
     14 C28         4.4000   -0.9310   -9.7230 c3        1 LIX     -0.213000
     15 O5          6.2830   -0.8220   -2.4070 o         1 LIX     -0.993500
     16 O4          3.9900   -0.3570   -2.5560 o         1 LIX     -0.993500
     17 C30         5.1420   -1.2000   -4.6540 ca        1 LIX     -0.797000
     18 C29         4.0390   -1.1640   -5.4510 ca        1 LIX      0.024000
     19 C25         4.1280   -1.1370   -6.8910 ca        1 LIX      0.006000
     20 C31         6.4490   -1.1960   -5.2640 ca        1 LIX     -0.118000
     21 C32         6.5940   -1.1570   -6.6100 ca        1 LIX     -0.076000
     22 C27         5.5780   -1.0760   -8.8530 c2        1 LIX     -0.069000
     23 C23         3.0950   -0.9380   -9.0830 c1        1 LIX     -0.085000
     24 N6          4.6990   -2.7260   -2.6670 n3        1 LIX     -0.975000
     25 C1          1.3260    0.4810    0.2440 c2        1 LIX      0.100000
     26 C3          1.0800   -0.6660    2.3540 c2        1 LIX      0.152000
     27 N2         -0.2540   -0.5750    2.2610 n2        1 LIX     -0.210000
     28 C2         -0.7840    0.0750    1.1410 c2        1 LIX      0.222000
     29 N4         -2.1520    0.2120    1.0680 nh        1 LIX     -0.334000
     30 C12         3.4100   -0.1790    1.4840 ca        1 LIX     -0.102000
     31 C11         4.1150   -1.3000    1.0360 ca        1 LIX     -0.082000
     32 N5          6.2460   -2.5160    0.7460 n         1 LIX     -0.139000
     33 C16         5.5730   -3.4710    0.1050 c1        1 LIX     -0.094000
     34 C18         5.0540   -5.6670   -0.7810 c1        1 LIX      0.052000
     35 O1          4.9150   -5.5970   -2.0990 os        1 LIX     -0.233000
     36 C19         3.8960   -6.4620   -2.6430 c3        1 LIX     -0.066000
     37 C14         8.3450   -1.1790    1.3120 c3        1 LIX      0.077000
     38 O2          7.5240   -0.3060    2.1120 os        1 LIX     -0.187000
     39 C9          6.1810   -0.2920    1.8190 ca        1 LIX      0.088000
     40 HN3         3.0370    0.5060   -0.9570 hn        1 LIX      0.327000
     41 H51        -0.0060   -1.3510    4.8400 ha        1 LIX      0.136000
     42 H52         2.7390   -1.6330    3.3600 ha        1 LIX      0.153000
     43 H61         4.0780   -4.8300    1.5200 ha        1 LIX      0.002333
     44 H62         1.5530   -2.1330    5.4760 ha        1 LIX      0.136000
     45 H63         3.8850   -4.2700    1.8510 ha        1 LIX      0.002333
     46 H7          3.5310    1.7560    2.4680 ha        1 LIX      0.148000
     47 H8          6.0160    1.6500    2.7590 ha        1 LIX      0.171000
     48 H131        9.4200   -1.1260   -0.5700 hc        1 LIX      0.110667
     49 H132        7.7610   -0.3830   -0.6470 hc        1 LIX      0.110667
     50 H133        9.1150    0.5000    0.1840 hc        1 LIX      0.110667
     51 H171        5.5220    1.3650   -1.5090 ha        1 LIX      0.002333
     52 H172        5.0160    1.8100   -1.4300 ha        1 LIX      0.002333
     53 H201        3.1380    3.4270   -2.3890 hc        1 LIX      0.153333
     54 H202        3.4280    1.7540   -3.0520 hc        1 LIX      0.153333
     55 H211        1.9810    2.7240   -3.6060 hc        1 LIX      0.153333
     56 H212        4.7930   -3.4860   -3.2970 hn        1 LIX      0.271000
     57 H221        9.3220   -1.8150    3.1540 hc        1 LIX      0.110667
     58 H222       10.1280   -0.4320    2.2960 hc        1 LIX      0.110667
     59 H223       10.2650   -2.1270    1.6280 hc        1 LIX      0.110667
     60 H29         3.0240   -1.1500   -5.0120 ha        1 LIX      0.146000
     61 H31         7.3270   -1.2070   -4.5950 ha        1 LIX      0.164000
     62 H32         7.5950   -1.1460   -7.0730 ha        1 LIX      0.150000
     63 H27         6.5660   -1.1700   -9.3320 ha        1 LIX      0.146000
     64 H23         4.4700    0.0560  -10.2840 hc        1 LIX      0.187500
     65 HN6         4.4410   -3.0510   -1.7540 hn        1 LIX      0.271000
     66 HN41       -2.7230   -0.2130    1.7590 hn        1 LIX      0.258500
     67 HN42       -2.5700    0.5950    0.2550 hn        1 LIX      0.258500
     68 H11         3.5780   -2.1550    0.5830 ha        1 LIX      0.177000
     69 H161        6.6430   -5.3000    0.5660 hc        1 LIX      0.143500
     70 H162        6.9690   -4.6000   -1.0700 hc        1 LIX      0.143500
     71 H181        3.0710   -4.2420   -0.4330 ha        1 LIX      0.002333
     72 H182        2.7920   -4.4940   -1.0000 ha        1 LIX      0.002333
     73 H191        3.1130   -5.7870   -3.0660 h1        1 LIX      0.099667
     74 H192        3.4700   -7.1280   -1.8550 h1        1 LIX      0.099667
     75 H193        4.4020   -7.0510   -3.4460 h1        1 LIX      0.099667
     76 C13         8.6760   -0.5070   -0.0140 c3        1 LIX     -0.230500
     77 C17         6.1580   -4.7650   -0.3030 c3        1 LIX     -0.297000
     78 C22         9.5960   -1.4030    2.1540 c3        1 LIX     -0.230500
     79 S1          5.0560   -1.2170   -2.9720 s6        1 LIX      2.899000
     80 H24         2.0060   -1.3170   -7.2580 ha        1 LIX      0.150000
     81 H621        0.8040    2.4700   -1.4720 h4        1 LIX      0.202000
     82 O3          8.2970   -3.5710    0.9210 o         1 LIX     -0.265000
     83 H28         4.4050   -1.7230  -10.5350 hc        1 LIX      0.187500
@<TRIPOS>BOND
     1    1   25 1   
     2    1   28 1   
     3    2   10 1   
     4    2   25 1   
     5    2   40 1   
     6    3   25 1   
     7    3   26 1   
     8    3   30 1   
     9    4    5 1   
    10    4   26 1   
    11    4   42 1   
    12    5   41 1   
    13    5   44 1   
    14    6    7 1   
    15    6   30 1   
    16    6   46 1   
    17    7   39 1   
    18    7   47 1   
    19    8   31 1   
    20    8   32 1   
    21    8   39 1   
    22    9   32 1   
    23    9   37 1   
    24    9   82 1   
    25   10   11 1   
    26   10   81 1   
    27   11   53 1   
    28   11   54 1   
    29   11   55 1   
    30   12   19 1   
    31   12   23 1   
    32   12   80 1   
    33   13   19 1   
    34   13   21 1   
    35   13   22 1   
    36   14   22 1   
    37   14   23 1   
    38   14   64 1   
    39   14   83 1   
    40   15   79 1   
    41   16   79 1   
    42   17   18 1   
    43   17   20 1   
    44   17   79 1   
    45   18   19 1   
    46   18   60 1   
    47   20   21 1   
    48   20   61 1   
    49   21   62 1   
    50   22   63 1   
    51   24   56 1   
    52   24   65 1   
    53   24   79 1   
    54   26   27 1   
    55   27   28 1   
    56   28   29 1   
    57   29   66 1   
    58   29   67 1   
    59   30   31 1   
    60   31   68 1   
    61   32   33 1   
    62   33   77 1   
    63   34   35 1   
    64   34   77 1   
    65   35   36 1   
    66   36   73 1   
    67   36   74 1   
    68   36   75 1   
    69   37   38 1   
    70   37   76 1   
    71   37   78 1   
    72   38   39 1   
    73   43   45 1   
    74   48   76 1   
    75   49   76 1   
    76   50   76 1   
    77   51   52 1   
    78   57   78 1   
    79   58   78 1   
    80   59   78 1   
    81   69   77 1   
    82   70   77 1   
    83   71   72 1   
@<TRIPOS>SUBSTRUCTURE
     1 LIX         1 TEMP              0 ****  ****    0 ROOT
