@<TRIPOS>MOLECULE
LIX
   82    86     1     0     0
SMALL
bcc


@<TRIPOS>ATOM
      1 N1          3.7430    2.0730    2.5120 nb        1 LIX     -0.818000
      2 N3          3.2010   -0.0140    3.5380 nh        1 LIX     -0.845900
      3 C4          1.7500    0.8560    1.7720 cp        1 LIX     -0.389600
      4 C5          0.2240    1.8960    0.0380 c3        1 LIX     -0.140700
      5 C6          0.5740    1.7710   -1.4240 c3        1 LIX     -0.087100
      6 C7          0.2090   -0.6540    2.9980 ca        1 LIX     -0.130000
      7 C8         -0.5530   -1.8170    3.0680 ca        1 LIX     -0.128000
      8 C10         0.0840   -2.3710    0.7610 ca        1 LIX      0.022600
      9 C15        -0.5970   -4.5100   -0.1450 c         1 LIX      0.682500
     10 C20         4.4910   -0.1130    4.1730 c3        1 LIX      0.179800
     11 C21         4.4660   -0.9770    5.4570 c3        1 LIX      0.219800
     12 C24         6.5480   -3.7680   10.2960 ca        1 LIX     -0.099000
     13 C26         4.5470   -5.0210    9.6340 ca        1 LIX      0.011000
     14 C28         5.3150   -5.0520   11.9340 ca        1 LIX     -0.102000
     15 O5          6.3680   -3.2280    5.1620 o         1 LIX     -0.653300
     16 O4          4.5070   -4.6300    4.5270 o         1 LIX     -0.653300
     17 C30         4.8610   -4.1200    6.9720 ca        1 LIX     -0.383500
     18 C29         5.7580   -3.7320    7.9450 ca        1 LIX      0.027000
     19 C25         5.6260   -4.1660    9.2890 ca        1 LIX     -0.073000
     20 C31         3.7930   -4.9860    7.3300 ca        1 LIX     -0.048000
     21 C32         3.6360   -5.4240    8.6190 ca        1 LIX     -0.133000
     22 C27         4.4110   -5.4540   10.9810 ca        1 LIX     -0.133000
     23 C23         6.3940   -4.2020   11.5890 ca        1 LIX     -0.134000
     24 N6          4.0520   -2.3350    5.2780 n3        1 LIX     -0.920100
     25 C1          2.9270    0.9810    2.5970 ca        1 LIX      0.724200
     26 C3          1.4540    1.9350    0.9100 ca        1 LIX      0.524600
     27 N2          2.2280    3.0400    0.8300 nb        1 LIX     -0.786000
     28 C2          3.3450    3.0790    1.6500 ca        1 LIX      0.904900
     29 N4          4.1060    4.2530    1.6480 nh        1 LIX     -0.927500
     30 C12         0.9260   -0.3460    1.8340 cp        1 LIX     -0.015000
     31 C11         0.8680   -1.2040    0.7280 ca        1 LIX     -0.140000
     32 N5         -0.0440   -3.2420   -0.3380 n         1 LIX     -0.366000
     33 C16         0.4500   -2.8590   -1.6430 c3        1 LIX      0.093000
     34 C18         2.3080   -2.6960   -3.2800 c3        1 LIX      0.130400
     35 O1          3.7180   -2.8740   -3.3970 os        1 LIX     -0.418600
     36 C19         4.1990   -2.5560   -4.6910 c3        1 LIX      0.115700
     37 C14        -1.0430   -4.9050    1.2720 c3        1 LIX      0.096800
     38 O2         -1.4440   -3.7710    2.0660 os        1 LIX     -0.316900
     39 C9         -0.6150   -2.6680    1.9620 ca        1 LIX      0.074100
     40 HN3         2.7600   -0.8880    3.3370 hn        1 LIX      0.422800
     41 H51        -0.4220    1.0320    0.3490 hc        1 LIX      0.065200
     42 H52        -0.3710    2.8350    0.2030 hc        1 LIX      0.065200
     43 H61         1.1990    2.6320   -1.7610 hc        1 LIX      0.038700
     44 H62        -0.3630    1.7530   -2.0340 hc        1 LIX      0.038700
     45 H63         1.1380    0.8260   -1.6170 hc        1 LIX      0.038700
     46 H7          0.2490    0.0280    3.8600 ha        1 LIX      0.149000
     47 H8         -1.1210   -2.0700    3.9750 ha        1 LIX      0.152000
     48 H131        0.9920   -4.9640    2.0540 hc        1 LIX      0.060033
     49 H132       -0.2100   -5.9690    2.9680 hc        1 LIX      0.060033
     50 H133        0.3930   -6.5290    1.3450 hc        1 LIX      0.060033
     51 H171        2.5710   -2.6070   -1.1300 hc        1 LIX      0.067700
     52 H172        2.1410   -4.2410   -1.7700 hc        1 LIX      0.067700
     53 H201        5.2590   -0.5320    3.4600 h1        1 LIX      0.065200
     54 H202        4.8360    0.9120    4.4900 h1        1 LIX      0.065200
     55 H211        5.5220   -0.9700    5.8590 h1        1 LIX      0.060700
     56 H212        3.7970   -0.4770    6.2150 h1        1 LIX      0.060700
     57 H221       -2.0780   -6.6520    0.5280 hc        1 LIX      0.060033
     58 H222       -2.5620   -6.1370    2.2130 hc        1 LIX      0.060033
     59 H223       -3.1420   -5.1960    0.7740 hc        1 LIX      0.060033
     60 H28         5.2130   -5.3860   12.9780 ha        1 LIX      0.138000
     61 H29         6.6100   -3.0780    7.6810 ha        1 LIX      0.154000
     62 H31         3.1010   -5.3190    6.5370 ha        1 LIX      0.150000
     63 H32         2.8080   -6.0970    8.8890 ha        1 LIX      0.141000
     64 H27         3.5710   -6.1160   11.2410 ha        1 LIX      0.139000
     65 H23         7.1050   -3.8970   12.3720 ha        1 LIX      0.139000
     66 HN6         3.0810   -2.4380    5.1040 hn        1 LIX      0.446800
     67 HN41        3.9890    4.8560    0.8670 hn        1 LIX      0.426800
     68 HN42        5.0230    4.1930    2.0250 hn        1 LIX      0.426800
     69 H11         1.4460   -0.9420   -0.1730 ha        1 LIX      0.150000
     70 H161        0.2530   -1.7580   -1.7880 h1        1 LIX      0.066200
     71 H162       -0.1510   -3.4260   -2.4140 h1        1 LIX      0.066200
     72 H181        1.7800   -3.3130   -4.0550 h1        1 LIX      0.026700
     73 H182        2.0550   -1.6140   -3.4400 h1        1 LIX      0.026700
     74 H191        3.7330   -3.2200   -5.4610 h1        1 LIX      0.033367
     75 H192        5.3010   -2.7390   -4.6310 h1        1 LIX      0.033367
     76 H193        3.9920   -1.4850   -4.9370 h1        1 LIX      0.033367
     77 O3         -0.7100   -5.3040   -1.0950 o         1 LIX     -0.613500
     78 C13         0.1070   -5.6360    1.9500 c3        1 LIX     -0.102600
     79 C17         1.9330   -3.1450   -1.8780 c3        1 LIX     -0.109400
     80 C22        -2.2890   -5.7800    1.1920 c3        1 LIX     -0.102600
     81 S1          5.0280   -3.6230    5.3670 sy        1 LIX      1.514200
     82 H24         7.3840   -3.1090   10.0160 ha        1 LIX      0.139000
@<TRIPOS>BOND
     1    1   25 ar  
     2    1   28 ar  
     3    2   10 1   
     4    2   25 1   
     5    2   40 1   
     6    3   25 ar  
     7    3   26 ar  
     8    3   30 1   
     9    4    5 1   
    10    4   26 1   
    11    4   41 1   
    12    4   42 1   
    13    5   43 1   
    14    5   44 1   
    15    5   45 1   
    16    6    7 ar  
    17    6   30 ar  
    18    6   46 1   
    19    7   39 ar  
    20    7   47 1   
    21    8   31 ar  
    22    8   32 1   
    23    8   39 ar  
    24    9   32 1   
    25    9   37 1   
    26    9   77 2   
    27   10   11 1   
    28   10   53 1   
    29   10   54 1   
    30   11   24 1   
    31   11   55 1   
    32   11   56 1   
    33   12   19 ar  
    34   12   23 ar  
    35   12   82 1   
    36   13   19 ar  
    37   13   21 ar  
    38   13   22 ar  
    39   14   22 ar  
    40   14   23 ar  
    41   14   60 1   
    42   15   81 2   
    43   16   81 2   
    44   17   18 ar  
    45   17   20 ar  
    46   17   81 1   
    47   18   19 ar  
    48   18   61 1   
    49   20   21 ar  
    50   20   62 1   
    51   21   63 1   
    52   22   64 1   
    53   23   65 1   
    54   24   66 1   
    55   24   81 1   
    56   26   27 ar  
    57   27   28 ar  
    58   28   29 1   
    59   29   67 1   
    60   29   68 1   
    61   30   31 ar  
    62   31   69 1   
    63   32   33 1   
    64   33   70 1   
    65   33   71 1   
    66   33   79 1   
    67   34   35 1   
    68   34   72 1   
    69   34   73 1   
    70   34   79 1   
    71   35   36 1   
    72   36   74 1   
    73   36   75 1   
    74   36   76 1   
    75   37   38 1   
    76   37   78 1   
    77   37   80 1   
    78   38   39 1   
    79   48   78 1   
    80   49   78 1   
    81   50   78 1   
    82   51   79 1   
    83   52   79 1   
    84   57   80 1   
    85   58   80 1   
    86   59   80 1   
@<TRIPOS>SUBSTRUCTURE
     1 LIX         1 TEMP              0 ****  ****    0 ROOT
