@<TRIPOS>MOLECULE
LIY
   62    65     1     0     0
SMALL
bcc


@<TRIPOS>ATOM
      1 N1          0.1040   -0.3190   -0.1310 nb        1 LIY     -0.824000
      2 N3          2.2020   -0.2890   -1.2210 nv        1 LIY     -0.951500
      3 C4          2.1370   -0.0220    1.2110 cp        1 LIY     -0.394600
      4 C6          1.9410    0.3580    3.7060 c3        1 LIY     -0.139700
      5 C7          4.2510    1.2540    1.4840 ca        1 LIY     -0.162000
      6 C8          5.6410    1.2900    1.5010 ca        1 LIY     -0.096000
      7 C10         5.7550   -1.1070    1.0780 ca        1 LIY      0.179600
      8 C13         7.8850    0.2330    1.3520 c3        1 LIY     -0.030100
      9 C15         7.9400   -2.2500    0.9340 c3        1 LIY      0.271800
     10 C17         5.2530   -4.1480   -0.2880 c3        1 LIY     -0.093400
     11 C20         1.7310   -0.8180    4.6270 c3        1 LIY     -0.086100
     12 C21         8.4780   -2.7020    2.2750 ca        1 LIY     -0.117300
     13 C22         9.5880   -3.5560    2.3030 ca        1 LIY     -0.122000
     14 C24         9.5540   -3.5490    4.7190 ca        1 LIY     -0.127000
     15 C26         7.9130   -2.2760    3.4810 ca        1 LIY     -0.122000
     16 C1          1.4680   -0.2320   -0.0490 ca        1 LIY      0.727200
     17 C3          1.3200    0.1240    2.3520 ca        1 LIY      0.524600
     18 N2         -0.0290    0.0650    2.2970 nb        1 LIY     -0.791000
     19 C2         -0.5940   -0.1800    1.0540 ca        1 LIY      0.899900
     20 N4         -1.9830   -0.3660    1.0020 nv        1 LIY     -0.925500
     21 C12         3.5950    0.0380    1.2610 cp        1 LIY      0.022000
     22 C11         4.3400   -1.1270    1.0540 ca        1 LIY     -0.202000
     23 C9          6.4020    0.1380    1.3050 ca        1 LIY     -0.143300
     24 C14         8.5430   -0.8830    0.5740 c3        1 LIY     -0.075400
     25 C23        10.1240   -3.9750    3.5190 ca        1 LIY     -0.129500
     26 C25         8.4480   -2.7000    4.6970 ca        1 LIY     -0.129500
     27 N5          6.4920   -2.2690    0.8010 nh        1 LIY     -0.669000
     28 C16         5.8690   -3.5650    0.9840 c3        1 LIY      0.206800
     29 C18         6.3140   -4.4790   -1.3210 c3        1 LIY      0.130400
     30 O1          5.6520   -5.1810   -2.3730 os        1 LIY     -0.424600
     31 C19         6.5260   -5.5200   -3.4330 c3        1 LIY      0.116700
     32 HN31        3.1730   -0.4720   -1.1290 hn        1 LIY      0.431300
     33 HN32        1.7550   -0.6030   -2.0500 hn        1 LIY      0.431300
     34 H61         1.4880    1.2800    4.1630 hc        1 LIY      0.061200
     35 H62         3.0390    0.5510    3.5810 hc        1 LIY      0.061200
     36 H7          3.6690    2.1730    1.6390 ha        1 LIY      0.139000
     37 H8          6.1570    2.2490    1.6710 ha        1 LIY      0.130000
     38 H131        8.2220    1.2220    0.9420 hc        1 LIY      0.053200
     39 H132        8.2170    0.1870    2.4270 hc        1 LIY      0.053200
     40 H15         8.3110   -2.9940    0.1570 h1        1 LIY      0.055700
     41 H171        4.7020   -5.0850   -0.0090 hc        1 LIY      0.059700
     42 H172        4.5100   -3.4400   -0.7360 hc        1 LIY      0.059700
     43 H201        0.6440   -0.9850    4.8210 hc        1 LIY      0.039367
     44 H202        2.2400   -0.6260    5.6030 hc        1 LIY      0.039367
     45 H203        2.1580   -1.7490    4.1840 hc        1 LIY      0.039367
     46 H22        10.0410   -3.8980    1.3600 ha        1 LIY      0.136500
     47 H24         9.9760   -3.8810    5.6780 ha        1 LIY      0.133000
     48 H26         7.0420   -1.6010    3.4710 ha        1 LIY      0.136500
     49 HN41       -2.4070   -0.2660    0.1090 hn        1 LIY      0.422300
     50 HN42       -2.5000   -0.0080    1.7710 hn        1 LIY      0.422300
     51 H11         3.7960   -2.0660    0.8720 ha        1 LIY      0.138000
     52 H141        9.6420   -0.9110    0.7920 hc        1 LIY      0.055200
     53 H142        8.4130   -0.7060   -0.5260 hc        1 LIY      0.055200
     54 H23        10.9960   -4.6440    3.5310 ha        1 LIY      0.133000
     55 H25         7.9960   -2.3610    5.6410 ha        1 LIY      0.133000
     56 H161        5.0590   -3.5030    1.7680 h1        1 LIY      0.052200
     57 H162        6.6420   -4.2930    1.3680 h1        1 LIY      0.052200
     58 H181        7.1140   -5.1330   -0.8820 h1        1 LIY      0.028700
     59 H182        6.7880   -3.5470   -1.7290 h1        1 LIY      0.028700
     60 H191        6.9630   -4.6000   -3.8950 h1        1 LIY      0.032033
     61 H192        7.3460   -6.1890   -3.0710 h1        1 LIY      0.032033
     62 H193        5.8780   -6.0580   -4.1700 h1        1 LIY      0.032033
@<TRIPOS>BOND
     1    1   16 ar  
     2    1   19 ar  
     3    2   16 1   
     4    2   32 1   
     5    2   33 1   
     6    3   16 ar  
     7    3   17 ar  
     8    3   21 1   
     9    4   11 1   
    10    4   17 1   
    11    4   34 1   
    12    4   35 1   
    13    5    6 ar  
    14    5   21 ar  
    15    5   36 1   
    16    6   23 ar  
    17    6   37 1   
    18    7   22 ar  
    19    7   23 ar  
    20    7   27 1   
    21    8   23 1   
    22    8   24 1   
    23    8   38 1   
    24    8   39 1   
    25    9   12 1   
    26    9   24 1   
    27    9   27 1   
    28    9   40 1   
    29   10   28 1   
    30   10   29 1   
    31   10   41 1   
    32   10   42 1   
    33   11   43 1   
    34   11   44 1   
    35   11   45 1   
    36   12   13 ar  
    37   12   15 ar  
    38   13   25 ar  
    39   13   46 1   
    40   14   25 ar  
    41   14   26 ar  
    42   14   47 1   
    43   15   26 ar  
    44   15   48 1   
    45   17   18 ar  
    46   18   19 ar  
    47   19   20 1   
    48   20   49 1   
    49   20   50 1   
    50   21   22 ar  
    51   22   51 1   
    52   24   52 1   
    53   24   53 1   
    54   25   54 1   
    55   26   55 1   
    56   27   28 1   
    57   28   56 1   
    58   28   57 1   
    59   29   30 1   
    60   29   58 1   
    61   29   59 1   
    62   30   31 1   
    63   31   60 1   
    64   31   61 1   
    65   31   62 1   
@<TRIPOS>SUBSTRUCTURE
     1 LIY         1 TEMP              0 ****  ****    0 ROOT
