@<TRIPOS>MOLECULE
LIY
   64    67     1     0     0
SMALL
bcc


@<TRIPOS>ATOM
      1 N1          0.4000   -1.5320   -0.1520 nb        1 LIY     -0.670000
      2 N3          2.6480   -1.9040   -0.9640 n4        1 LIY     -0.819300
      3 C4          2.2620   -0.5670    1.1240 cp        1 LIY     -0.102600
      4 C6          1.7750    0.7980    3.2140 c3        1 LIY     -0.152700
      5 C7          4.2530    0.8960    1.3360 ca        1 LIY     -0.121000
      6 C8          5.6470    1.0250    1.3630 ca        1 LIY     -0.092000
      7 C10         5.9260   -1.4050    1.2160 ca        1 LIY      0.225600
      8 C13         7.9560    0.1050    1.3410 c3        1 LIY     -0.055100
      9 C15         8.1880   -2.3890    1.0430 c3        1 LIY      0.268800
     10 C17         5.3430   -4.4340    0.0920 c3        1 LIY     -0.092400
     11 C20         0.8940    0.7200    4.4350 c3        1 LIY     -0.100100
     12 C21         8.8110   -2.7740    2.3640 ca        1 LIY     -0.144300
     13 C22         9.9460   -3.5950    2.3510 ca        1 LIY     -0.123000
     14 C24        10.0660   -3.4860    4.7630 ca        1 LIY     -0.103000
     15 C26         8.3080   -2.3160    3.5850 ca        1 LIY     -0.123000
     16 C1          1.7420   -1.3180    0.0390 ca        1 LIY      0.485200
     17 C3          1.2930   -0.0130    2.0440 ca        1 LIY      0.526600
     18 N2         -0.0260   -0.2100    1.8710 nb        1 LIY     -0.641000
     19 C2         -0.4060   -0.9620    0.7790 ca        1 LIY      0.720900
     20 N4         -1.8770   -1.1650    0.6170 n4        1 LIY     -0.813300
     21 C12         3.6940   -0.3780    1.2670 cp        1 LIY     -0.126000
     22 C11         4.5190   -1.5200    1.2650 ca        1 LIY     -0.266000
     23 C9          6.4820   -0.0800    1.2970 ca        1 LIY     -0.063300
     24 C14         8.6770   -1.0000    0.6080 c3        1 LIY     -0.082400
     25 C23        10.5710   -3.9460    3.5460 ca        1 LIY     -0.118000
     26 C25         8.9330   -2.6720    4.7800 ca        1 LIY     -0.118000
     27 N5          6.7280   -2.5120    1.0030 nh        1 LIY     -0.650000
     28 C16         6.2150   -3.8510    1.2070 c3        1 LIY      0.196800
     29 C18         5.7950   -4.1420   -1.3260 c3        1 LIY      0.138400
     30 O1          4.8670   -3.1930   -1.8810 os        1 LIY     -0.528600
     31 C19         5.2090   -2.8280   -3.2140 c3        1 LIY      0.114700
     32 HN31        2.7000   -2.9310   -0.8600 hn        1 LIY      0.494800
     33 HN32        2.3380   -1.6850   -1.9180 hn        1 LIY      0.494800
     34 H61         1.8510    1.8690    2.8690 hc        1 LIY      0.102700
     35 H62         2.8160    0.4530    3.4730 hc        1 LIY      0.102700
     36 H7          3.6220    1.7970    1.3490 ha        1 LIY      0.148000
     37 H8          6.0890    2.0350    1.4330 ha        1 LIY      0.171000
     38 H131        8.2810    0.1170    2.4210 hc        1 LIY      0.084700
     39 H132        8.2400    1.0990    0.9000 hc        1 LIY      0.084700
     40 H15         8.5590   -3.1250    0.2590 h1        1 LIY      0.071700
     41 H171        4.2800   -4.0920    0.2100 hc        1 LIY      0.046700
     42 H172        5.3400   -5.5490    0.2420 hc        1 LIY      0.046700
     43 H201        0.7400   -0.3390    4.7530 hc        1 LIY      0.064700
     44 H202       -0.1020    1.1900    4.2540 hc        1 LIY      0.064700
     45 H203        1.3900    1.2700    5.2750 hc        1 LIY      0.064700
     46 H22        10.3550   -3.9610    1.3960 ha        1 LIY      0.129000
     47 H24        10.5610   -3.7630    5.7060 ha        1 LIY      0.154000
     48 H26         7.4190   -1.6690    3.6110 ha        1 LIY      0.129000
     49 HN41       -2.0760   -1.7430   -0.2120 hn        1 LIY      0.494133
     50 HN42       -2.2460   -1.6310    1.4600 hn        1 LIY      0.494133
     51 H11         4.0500   -2.5080    1.3800 ha        1 LIY      0.134000
     52 H141        9.7790   -0.9370    0.8120 hc        1 LIY      0.074200
     53 H142        8.5270   -0.8850   -0.4970 hc        1 LIY      0.074200
     54 H23        11.4670   -4.5870    3.5280 ha        1 LIY      0.149000
     55 H25         8.5340   -2.3050    5.7380 ha        1 LIY      0.149000
     56 H161        5.6170   -3.8920    2.1650 h1        1 LIY      0.073700
     57 H162        7.1010   -4.5410    1.3440 h1        1 LIY      0.073700
     58 H181        6.8300   -3.7130   -1.3680 h1        1 LIY      0.061700
     59 H182        5.7590   -5.0730   -1.9550 h1        1 LIY      0.061700
     60 H191        5.2030   -3.7270   -3.8780 h1        1 LIY      0.048367
     61 H192        6.2120   -2.3360   -3.2370 h1        1 LIY      0.048367
     62 H193        4.4110   -2.1070   -3.5220 h1        1 LIY      0.048367
     63 H33         3.6190   -1.5430   -0.8270 hn        1 LIY      0.494800
     64 H43        -2.3320   -0.2450    0.5140 hn        1 LIY      0.494133
@<TRIPOS>BOND
     1    1   16 ar  
     2    1   19 ar  
     3    2   16 1   
     4    2   32 1   
     5    2   33 1   
     6    2   63 1   
     7    3   16 ar  
     8    3   17 ar  
     9    3   21 1   
    10    4   11 1   
    11    4   17 1   
    12    4   34 1   
    13    4   35 1   
    14    5    6 ar  
    15    5   21 ar  
    16    5   36 1   
    17    6   23 ar  
    18    6   37 1   
    19    7   22 ar  
    20    7   23 ar  
    21    7   27 1   
    22    8   23 1   
    23    8   24 1   
    24    8   38 1   
    25    8   39 1   
    26    9   12 1   
    27    9   24 1   
    28    9   27 1   
    29    9   40 1   
    30   10   28 1   
    31   10   29 1   
    32   10   41 1   
    33   10   42 1   
    34   11   43 1   
    35   11   44 1   
    36   11   45 1   
    37   12   13 ar  
    38   12   15 ar  
    39   13   25 ar  
    40   13   46 1   
    41   14   25 ar  
    42   14   26 ar  
    43   14   47 1   
    44   15   26 ar  
    45   15   48 1   
    46   17   18 ar  
    47   18   19 ar  
    48   19   20 1   
    49   20   49 1   
    50   20   50 1   
    51   20   64 1   
    52   21   22 ar  
    53   22   51 1   
    54   24   52 1   
    55   24   53 1   
    56   25   54 1   
    57   26   55 1   
    58   27   28 1   
    59   28   56 1   
    60   28   57 1   
    61   29   30 1   
    62   29   58 1   
    63   29   59 1   
    64   30   31 1   
    65   31   60 1   
    66   31   61 1   
    67   31   62 1   
@<TRIPOS>SUBSTRUCTURE
     1 LIY         1 TEMP              0 ****  ****    0 ROOT
