@<TRIPOS>MOLECULE
LIY
   62    65     1     0     0
SMALL
bcc


@<TRIPOS>ATOM
      1 N1         -1.7170   -0.9920    1.8510 nb        1 LIY     -0.824000
      2 N3         -0.2770    0.8480    2.2110 nh        1 LIY     -0.951500
      3 C4         -0.2540   -0.2550    0.0250 cp        1 LIY     -0.394600
      4 C6         -0.2320   -1.5420   -2.1540 c3        1 LIY     -0.139700
      5 C7          2.0690    0.3260   -0.6400 ca        1 LIY     -0.162000
      6 C8          2.9950    1.2640   -1.0840 ca        1 LIY     -0.096000
      7 C10         1.2680    2.9800   -1.2020 ca        1 LIY      0.179600
      8 C13         3.6500    3.5320   -1.8600 c3        1 LIY     -0.030100
      9 C15         1.8210    5.2590   -1.9790 c3        1 LIY      0.271800
     10 C17        -1.2920    5.0120   -0.3770 c3        1 LIY     -0.093400
     11 C20        -1.3140   -1.2990   -3.1770 c3        1 LIY     -0.086100
     12 C21         1.7490    5.4210   -3.4830 ca        1 LIY     -0.117300
     13 C22         1.8150    6.7110   -4.0250 ca        1 LIY     -0.122000
     14 C24         1.6630    5.7980   -6.2570 ca        1 LIY     -0.127000
     15 C26         1.6390    4.3230   -4.3420 ca        1 LIY     -0.122000
     16 C1         -0.7750   -0.1280    1.3630 ca        1 LIY      0.727200
     17 C3         -0.7350   -1.3310   -0.7490 ca        1 LIY      0.524600
     18 N2         -1.6490   -2.2120   -0.2850 nb        1 LIY     -0.791000
     19 C2         -2.1300   -1.9980    0.9980 ca        1 LIY      0.899900
     20 N4         -3.1670   -2.8290    1.4450 nh        1 LIY     -0.925500
     21 C12         0.7320    0.7040   -0.4670 cp        1 LIY      0.022000
     22 C11         0.3400    2.0170   -0.7390 ca        1 LIY     -0.202000
     23 C9          2.6220    2.5770   -1.3690 ca        1 LIY     -0.143300
     24 C14         3.2710    4.9650   -1.5640 c3        1 LIY     -0.075400
     25 C23         1.7750    6.8970   -5.4060 ca        1 LIY     -0.129500
     26 C25         1.5950    4.5120   -5.7230 ca        1 LIY     -0.129500
     27 N5          0.8770    4.3120   -1.4060 nh        1 LIY     -0.669000
     28 C16        -0.5220    4.6140   -1.6360 c3        1 LIY      0.206800
     29 C18        -0.8000    6.3330    0.1830 c3        1 LIY      0.130400
     30 O1         -1.7030    6.6930    1.2280 os        1 LIY     -0.424600
     31 C19        -1.3360    7.9000    1.8710 c3        1 LIY      0.116700
     32 HN31       -0.7570    1.0350    3.0580 hn        1 LIY      0.431300
     33 HN32        0.2070    1.6020    1.7840 hn        1 LIY      0.431300
     34 H61         0.6320   -0.8510   -2.3450 hc        1 LIY      0.061200
     35 H62         0.1510   -2.5930   -2.2540 hc        1 LIY      0.061200
     36 H7          2.3830   -0.7040   -0.4190 ha        1 LIY      0.139000
     37 H8          4.0480    0.9680   -1.2150 ha        1 LIY      0.130000
     38 H131        4.6440    3.3050   -1.3890 hc        1 LIY      0.053200
     39 H132        3.7690    3.3970   -2.9710 hc        1 LIY      0.053200
     40 H15         1.5390    6.2610   -1.5210 h1        1 LIY      0.055700
     41 H171       -2.3770    5.1060   -0.6490 hc        1 LIY      0.059700
     42 H172       -1.2090    4.2220    0.4120 hc        1 LIY      0.059700
     43 H201       -2.1550   -2.0220   -3.0480 hc        1 LIY      0.039367
     44 H202       -0.8940   -1.4220   -4.2050 hc        1 LIY      0.039367
     45 H203       -1.7220   -0.2640   -3.0830 hc        1 LIY      0.039367
     46 H22         1.9020    7.5830   -3.3600 ha        1 LIY      0.136500
     47 H24         1.6290    5.9460   -7.3460 ha        1 LIY      0.133000
     48 H26         1.5890    3.3040   -3.9260 ha        1 LIY      0.136500
     49 HN41       -3.3140   -2.8580    2.4270 hn        1 LIY      0.422300
     50 HN42       -3.2720   -3.6920    0.9640 hn        1 LIY      0.422300
     51 H11        -0.7160    2.2870   -0.5850 ha        1 LIY      0.138000
     52 H141        3.3830    5.1680   -0.4670 hc        1 LIY      0.055200
     53 H142        3.9480    5.6660   -2.1160 hc        1 LIY      0.055200
     54 H23         1.8290    7.9130   -5.8230 ha        1 LIY      0.133000
     55 H25         1.5060    3.6420   -6.3910 ha        1 LIY      0.133000
     56 H161       -1.0430    3.7240   -2.0980 h1        1 LIY      0.052200
     57 H162       -0.5980    5.4600   -2.3800 h1        1 LIY      0.052200
     58 H181        0.2390    6.2370    0.5980 h1        1 LIY      0.028200
     59 H182       -0.8050    7.1330   -0.6060 h1        1 LIY      0.028200
     60 H191       -0.3280    7.8050    2.3450 h1        1 LIY      0.032033
     61 H192       -2.1230    8.0520    2.6520 h1        1 LIY      0.032033
     62 H193       -1.3350    8.7500    1.1450 h1        1 LIY      0.032033
@<TRIPOS>BOND
     1    1   16 ar  
     2    1   19 ar  
     3    2   16 1   
     4    2   32 1   
     5    2   33 1   
     6    3   16 ar  
     7    3   17 ar  
     8    3   21 1   
     9    4   11 1   
    10    4   17 1   
    11    4   34 1   
    12    4   35 1   
    13    5    6 ar  
    14    5   21 ar  
    15    5   36 1   
    16    6   23 ar  
    17    6   37 1   
    18    7   22 ar  
    19    7   23 ar  
    20    7   27 1   
    21    8   23 1   
    22    8   24 1   
    23    8   38 1   
    24    8   39 1   
    25    9   12 1   
    26    9   24 1   
    27    9   27 1   
    28    9   40 1   
    29   10   28 1   
    30   10   29 1   
    31   10   41 1   
    32   10   42 1   
    33   11   43 1   
    34   11   44 1   
    35   11   45 1   
    36   12   13 ar  
    37   12   15 ar  
    38   13   25 ar  
    39   13   46 1   
    40   14   25 ar  
    41   14   26 ar  
    42   14   47 1   
    43   15   26 ar  
    44   15   48 1   
    45   17   18 ar  
    46   18   19 ar  
    47   19   20 1   
    48   20   49 1   
    49   20   50 1   
    50   21   22 ar  
    51   22   51 1   
    52   24   52 1   
    53   24   53 1   
    54   25   54 1   
    55   26   55 1   
    56   27   28 1   
    57   28   56 1   
    58   28   57 1   
    59   29   30 1   
    60   29   58 1   
    61   29   59 1   
    62   30   31 1   
    63   31   60 1   
    64   31   61 1   
    65   31   62 1   
@<TRIPOS>SUBSTRUCTURE
     1 LIY         1 TEMP              0 ****  ****    0 ROOT
