@<TRIPOS>MOLECULE
LIY
   62    56     1     0     0
SMALL
bcc


@<TRIPOS>ATOM
      1 N1         -4.8040    1.1200    0.9510 n1        1 LIY     -0.296000
      2 N3         -2.7550    0.9750    2.1780 n3        1 LIY     -0.343000
      3 C4         -2.7690    1.6710   -0.1100 c1        1 LIY     -0.269000
      4 C6         -2.6930    2.5930   -2.4960 c3        1 LIY     -0.122000
      5 C7         -0.7180    3.0430    0.3090 c1        1 LIY     -0.169000
      6 C8          0.7150    3.1430    0.3960 c1        1 LIY     -0.095000
      7 C10         0.8620    0.7640   -0.2640 c1        1 LIY      0.101000
      8 C13         3.0720    2.1670   -0.0430 c3        1 LIY     -0.114000
      9 C15         3.1550   -0.2360   -0.4530 c3        1 LIY      0.067000
     10 C17         0.6540   -2.5170   -1.0400 c3        1 LIY     -0.199000
     11 C20        -3.6300    2.6740   -3.6910 c3        1 LIY     -0.200000
     12 C21         3.4650   -0.6370    1.0940 c2        1 LIY     -0.088000
     13 C22         4.6220   -1.3340    1.4080 c2        1 LIY     -0.131000
     14 C24         4.1720   -1.0380    3.7540 c1        1 LIY     -0.131500
     15 C26         2.6600   -0.1390    2.1090 c1        1 LIY     -0.106000
     16 C1         -3.4480    1.2460    0.9920 c1        1 LIY      0.199000
     17 C3         -3.4580    1.9750   -1.2690 c1        1 LIY      0.103000
     18 N2         -4.8070    1.8490   -1.3070 n1        1 LIY     -0.257000
     19 C2         -5.4860    1.4220   -0.1980 c1        1 LIY      0.180000
     20 N4         -6.9260    1.2300   -0.2580 n3        1 LIY     -0.323000
     21 C12        -1.3410    1.7810   -0.0710 c1        1 LIY      0.014000
     22 C11        -0.5520    0.6710   -0.3490 c1        1 LIY     -0.194000
     23 C9          1.4970    2.0490    0.1230 c1        1 LIY     -0.135000
     24 C14         3.7020    1.1170   -0.6890 c3        1 LIY     -0.161000
     25 C23         4.9750   -1.5350    2.7400 c1        1 LIY     -0.132000
     26 C25         3.0150   -0.3410    3.4410 c1        1 LIY     -0.131500
     27 N5          1.8020   -0.4090   -0.6670 n3        1 LIY     -0.269000
     28 C16         1.3700   -1.6150   -0.0190 c3        1 LIY     -0.028000
     29 C18         0.6150   -3.9960   -0.5010 c3        1 LIY     -0.019000
     30 O1         -0.1980   -4.7960   -1.3680 os        1 LIY     -0.278000
     31 C19        -0.8740   -5.8090   -0.7240 c3        1 LIY     -0.074000
     32 HN31       -3.1640    0.5270    2.8480 hn        1 LIY      0.220000
     33 HN32       -1.8850    1.2810    2.2870 hn        1 LIY      0.220000
     34 H61        -1.9060    2.0140   -2.7260 hc        1 LIY      0.102000
     35 H62        -2.3870    3.4720   -2.2700 hc        1 LIY      0.102000
     36 H7         -1.2430    3.8060    0.4150 ha        1 LIY      0.136000
     37 H8          1.1370    4.0000    0.6530 ha        1 LIY      0.130000
     38 H131        3.4810    2.2570    0.8860 hc        1 LIY      0.092500
     39 H132        3.2670    3.0060   -0.5520 hc        1 LIY      0.092500
     40 H15         3.6340   -0.8590   -1.0310 h1        1 LIY      0.086000
     41 H171       -0.3010   -2.1810   -1.1810 hc        1 LIY      0.102500
     42 H172        1.1490   -2.4930   -1.9130 hc        1 LIY      0.102500
     43 H201       -4.5020    2.9640   -3.3970 hc        1 LIY      0.078333
     44 H202       -3.2630    3.3350   -4.3630 hc        1 LIY      0.078333
     45 H203       -3.7080    1.7500   -4.1280 hc        1 LIY      0.078333
     46 H22         5.1940   -1.6890    0.6880 ha        1 LIY      0.130000
     47 H24         4.4240   -1.1810    4.6980 ha        1 LIY      0.131500
     48 H26         1.8430    0.3520    1.8890 ha        1 LIY      0.144000
     49 HN41       -7.4230    1.6300   -0.9400 hn        1 LIY      0.217500
     50 HN42       -7.3580    0.7170    0.3990 hn        1 LIY      0.217500
     51 H11        -0.9660   -0.1670   -0.5690 ha        1 LIY      0.144000
     52 H141        4.6140    1.1140   -0.4190 hc        1 LIY      0.095000
     53 H142        3.6710    1.2920   -1.6520 hc        1 LIY      0.095000
     54 H23         5.7660   -2.0110    2.9540 ha        1 LIY      0.131000
     55 H25         2.4630    0.0010    4.1380 ha        1 LIY      0.131500
     56 H161        2.1750   -2.1030    0.3570 h1        1 LIY      0.096000
     57 H162        0.7440   -1.3870    0.7200 h1        1 LIY      0.096000
     58 H181        0.2240   -4.0060    0.4370 h1        1 LIY      0.066000
     59 H182        1.5230   -4.3590   -0.4800 h1        1 LIY      0.066000
     60 H191       -1.3110   -5.4530    0.0700 h1        1 LIY      0.072333
     61 H192       -1.5580   -6.1910   -1.3350 h1        1 LIY      0.072333
     62 H193       -0.2270   -6.5250   -0.4570 h1        1 LIY      0.072333
@<TRIPOS>BOND
     1    1   19 1   
     2    2   16 1   
     3    2   32 1   
     4    2   33 1   
     5    3   16 1   
     6    4   11 1   
     7    4   17 1   
     8    4   34 1   
     9    4   35 1   
    10    5   21 1   
    11    5   36 1   
    12    6   23 1   
    13    6   37 1   
    14    7   22 1   
    15    7   27 1   
    16    8   23 1   
    17    8   24 1   
    18    8   38 1   
    19    8   39 1   
    20    9   12 1   
    21    9   24 1   
    22    9   27 1   
    23    9   40 1   
    24   10   28 1   
    25   10   29 1   
    26   10   41 1   
    27   10   42 1   
    28   11   43 1   
    29   11   44 1   
    30   11   45 1   
    31   12   13 1   
    32   12   15 1   
    33   13   25 1   
    34   13   46 1   
    35   14   26 1   
    36   14   47 1   
    37   15   48 1   
    38   17   18 1   
    39   19   20 1   
    40   20   49 1   
    41   20   50 1   
    42   22   51 1   
    43   24   52 1   
    44   24   53 1   
    45   25   54 1   
    46   26   55 1   
    47   27   28 1   
    48   28   56 1   
    49   28   57 1   
    50   29   30 1   
    51   29   58 1   
    52   29   59 1   
    53   30   31 1   
    54   31   60 1   
    55   31   61 1   
    56   31   62 1   
@<TRIPOS>SUBSTRUCTURE
     1 LIY         1 TEMP              0 ****  ****    0 ROOT
