@<TRIPOS>MOLECULE
LIZ
   93    94     1     0     0
SMALL
bcc


@<TRIPOS>ATOM
      1 N1         -0.0550   -0.0540    1.8730 n4        1 LIZ     -0.643400
      2 N3          1.3860   -1.3660   -3.9120 n4        1 LIZ     -0.653400
      3 C4         -0.7830   -1.3290    1.5850 c3        1 LIZ     -0.035200
      4 C5          3.8060   -0.4620   -1.2350 c         1 LIZ      0.917600
      5 C6          2.9460    0.8010   -1.5980 c3        1 LIZ     -0.070200
      6 C7         -0.8120   -1.8750   -2.7220 c         1 LIZ      0.910100
      7 C8          0.1350   -2.1730   -3.9120 c3        1 LIZ     -0.033200
      8 C10         2.3640   -1.8520   -4.9380 c3        1 LIZ     -0.033200
      9 C13         0.7200    0.8570   -2.7420 c3        1 LIZ      0.117500
     10 C15         0.7800    2.3660   -3.0150 c3        1 LIZ     -0.095400
     11 C17         0.0550    1.9340   -5.3670 c3        1 LIZ     -0.084400
     12 C20         3.6460   -1.2710    2.4690 ca        1 LIZ     -0.116500
     13 C21         2.4690   -1.1060    5.0070 ca        1 LIZ     -0.109000
     14 C22         3.1660   -2.2720    4.6170 ca        1 LIZ     -0.087400
     15 C24         2.2930   -0.0770    4.0900 ca        1 LIZ     -0.116500
     16 C26         2.2350   -4.4120    5.4010 c         1 LIZ      0.401400
     17 C28         1.4840   -5.8470    3.3950 c3        1 LIZ      0.035200
     18 O7         -0.2950   -1.5720   -1.5980 o         1 LIZ     -0.813300
     19 O8         -2.0420   -1.9550   -2.9290 o         1 LIZ     -0.813300
     20 C9          2.3010   -1.1320   -6.3260 c         1 LIZ      0.910100
     21 O10         2.8750   -0.0130   -6.4010 o         1 LIZ     -0.813300
     22 O9          1.6890   -1.7290   -7.2430 o         1 LIZ     -0.813300
     23 C14         1.1420    0.1140   -4.0510 c3        1 LIZ      0.127500
     24 C18         0.0460    0.4490   -5.0800 c3        1 LIZ     -0.098400
     25 C16        -0.1980    2.7370   -4.1100 c3        1 LIZ     -0.080400
     26 N2          1.4990    0.4690   -1.5140 n4        1 LIZ     -0.674400
     27 O6          4.7360   -0.2950   -0.4160 o         1 LIZ     -0.792300
     28 O5          3.4500   -1.5380   -1.7900 o         1 LIZ     -0.792300
     29 C12         0.8320    0.9870   -0.2810 c3        1 LIZ      0.112800
     30 C11         1.1460    0.1200    0.9660 c3        1 LIZ      0.130500
     31 C3         -0.1230   -2.5020    2.3200 c         1 LIZ      0.906100
     32 O4          0.9910   -2.9490    1.9050 o         1 LIZ     -0.818300
     33 O3         -0.6750   -2.9900    3.3510 o         1 LIZ     -0.818300
     34 C2         -0.9840    1.1090    1.9150 c3        1 LIZ     -0.035200
     35 C1         -0.2140    2.4130    2.3310 c         1 LIZ      0.906100
     36 O2          0.2690    2.4090    3.4910 o         1 LIZ     -0.818300
     37 O1         -0.1160    3.3040    1.4550 o         1 LIZ     -0.818300
     38 C25         2.3530    0.7260    1.7160 c3        1 LIZ     -0.091100
     39 C19         2.7990   -0.2040    2.7880 ca        1 LIZ     -0.064300
     40 C23         3.8310   -2.3110    3.3780 ca        1 LIZ     -0.109000
     41 S1          1.9570   -5.3910    6.6420 s         1 LIZ     -0.461400
     42 N5          1.4500   -4.5340    4.1450 n4        1 LIZ     -0.633800
     43 C29         2.8060   -6.0110    2.5960 c3        1 LIZ      0.119400
     44 O11         3.2850   -4.8040    2.0640 oh        1 LIZ     -0.598133
     45 C30         1.3240   -7.1120    4.2630 c3        1 LIZ      0.119400
     46 O12         0.0330   -7.1960    4.8160 oh        1 LIZ     -0.598133
     47 C27         0.3000   -5.8110    2.3610 c3        1 LIZ      0.119400
     48 O13         0.1200   -7.0900    1.8090 oh        1 LIZ     -0.598133
     49 H4         -1.8440   -1.2240    1.9440 hx        1 LIZ      0.107200
     50 H4A        -0.7840   -1.5310    0.4690 hx        1 LIZ      0.107200
     51 H6          3.1920    1.6590   -0.9200 hx        1 LIZ      0.090700
     52 H6A         3.2100    1.0900   -2.6510 hx        1 LIZ      0.090700
     53 H8         -0.4060   -2.0260   -4.8860 hx        1 LIZ      0.090700
     54 H8A         0.4280   -3.2570   -3.8320 hx        1 LIZ      0.090700
     55 H10         3.3910   -1.6900   -4.5060 hx        1 LIZ      0.090700
     56 H10A        2.1890   -2.9490   -5.0950 hx        1 LIZ      0.090700
     57 H13        -0.3570    0.5600   -2.5250 hx        1 LIZ      0.128700
     58 H15         0.5220    2.9330   -2.0810 hc        1 LIZ      0.064700
     59 H15A        1.8190    2.6600   -3.3220 hc        1 LIZ      0.064700
     60 H17         1.0460    2.2160   -5.8170 hc        1 LIZ      0.064700
     61 H17A       -0.7380    2.1630   -6.1260 hc        1 LIZ      0.064700
     62 H20         4.1330   -1.3110    1.4710 ha        1 LIZ      0.202500
     63 H21         2.0310   -1.0180    6.0120 ha        1 LIZ      0.154000
     64 H24         1.7260    0.8350    4.3690 ha        1 LIZ      0.202500
     65 H14         2.1240    0.5520   -4.4310 hx        1 LIZ      0.149700
     66 H18        -0.9580    0.1320   -4.6890 hc        1 LIZ      0.091700
     67 H18A        0.2410   -0.1060   -6.0410 hc        1 LIZ      0.091700
     68 H16        -0.0970    3.8320   -4.3300 hc        1 LIZ      0.049700
     69 H16A       -1.2460    2.5600   -3.7520 hc        1 LIZ      0.049700
     70 H12        -0.2760    0.9660   -0.4980 hx        1 LIZ      0.123200
     71 H12A        1.1290    2.0590   -0.0810 hx        1 LIZ      0.123200
     72 H11         1.4330   -0.9430    0.6570 hx        1 LIZ      0.148700
     73 H2         -1.5010    1.2410    0.9310 hx        1 LIZ      0.107200
     74 H2A        -1.7590    0.8980    2.7020 hx        1 LIZ      0.107200
     75 H25         2.0950    1.7370    2.1380 hc        1 LIZ      0.117200
     76 H25A        3.1870    0.8510    0.9680 hc        1 LIZ      0.117200
     77 H23         4.4470   -3.1790    3.0880 ha        1 LIZ      0.154000
     78 HN4         3.6570   -3.3330    6.3440 hn        1 LIZ      0.359500
     79 HN5         0.4480   -4.3000    4.3530 hn        1 LIZ      0.513800
     80 H29         2.6070   -6.7680    1.7890 h1        1 LIZ      0.083533
     81 H29A        3.6270   -6.3740    3.2720 h1        1 LIZ      0.083533
     82 HO11        2.6660   -4.4830    1.3860 ho        1 LIZ      0.432333
     83 H30         2.1230   -7.1730    5.0490 h1        1 LIZ      0.083533
     84 H30A        1.4140   -8.0030    3.5780 h1        1 LIZ      0.083533
     85 HO12        0.0490   -6.7130    5.6590 ho        1 LIZ      0.432333
     86 H27        -0.6380   -5.4360    2.8520 h1        1 LIZ      0.083533
     87 H27A        0.5720   -5.1320    1.5030 h1        1 LIZ      0.083533
     88 HO13       -0.4540   -7.5860    2.4100 ho        1 LIZ      0.432333
     89 H111        0.3260   -0.1200    2.8340 hn        1 LIZ      0.455800
     90 H31         1.8490   -1.5510   -2.9990 hn        1 LIZ      0.468800
     91 H211        1.4190   -0.5820   -1.4400 hn        1 LIZ      0.498800
     92 H52         1.7450   -3.8100    3.4210 hn        1 LIZ      0.513800
     93 N4          3.1590   -3.4090    5.4770 n         1 LIZ     -0.352100
@<TRIPOS>BOND
     1    1    3 1   
     2    1   30 1   
     3    1   34 1   
     4    1   89 1   
     5    2    7 1   
     6    2    8 1   
     7    2   23 1   
     8    2   90 1   
     9    3   31 1   
    10    3   49 1   
    11    3   50 1   
    12    4    5 1   
    13    4   27 1   
    14    4   28 1   
    15    5   26 1   
    16    5   51 1   
    17    5   52 1   
    18    6    7 1   
    19    6   18 1   
    20    6   19 1   
    21    7   53 1   
    22    7   54 1   
    23    8   20 1   
    24    8   55 1   
    25    8   56 1   
    26    9   10 1   
    27    9   23 1   
    28    9   26 1   
    29    9   57 1   
    30   10   25 1   
    31   10   58 1   
    32   10   59 1   
    33   11   24 1   
    34   11   25 1   
    35   11   60 1   
    36   11   61 1   
    37   12   39 ar  
    38   12   40 ar  
    39   12   62 1   
    40   13   14 ar  
    41   13   15 ar  
    42   13   63 1   
    43   14   40 ar  
    44   14   93 1   
    45   15   39 ar  
    46   15   64 1   
    47   16   41 2   
    48   16   42 1   
    49   16   93 1   
    50   17   42 1   
    51   17   43 1   
    52   17   45 1   
    53   17   47 1   
    54   20   21 1   
    55   20   22 1   
    56   23   24 1   
    57   23   65 1   
    58   24   66 1   
    59   24   67 1   
    60   25   68 1   
    61   25   69 1   
    62   26   29 1   
    63   26   91 1   
    64   29   30 1   
    65   29   70 1   
    66   29   71 1   
    67   30   38 1   
    68   30   72 1   
    69   31   32 1   
    70   31   33 1   
    71   34   35 1   
    72   34   73 1   
    73   34   74 1   
    74   35   36 1   
    75   35   37 1   
    76   38   39 1   
    77   38   75 1   
    78   38   76 1   
    79   40   77 1   
    80   42   79 1   
    81   42   92 1   
    82   43   44 1   
    83   43   80 1   
    84   43   81 1   
    85   44   82 1   
    86   45   46 1   
    87   45   83 1   
    88   45   84 1   
    89   46   85 1   
    90   47   48 1   
    91   47   86 1   
    92   47   87 1   
    93   48   88 1   
    94   78   93 1   
@<TRIPOS>SUBSTRUCTURE
     1 LIZ         1 TEMP              0 ****  ****    0 ROOT
