@<TRIPOS>MOLECULE
LIZ
   89    90     1     0     0
SMALL
bcc


@<TRIPOS>ATOM
      1 N1         -0.5470    2.3450    0.0250 n3        1 LIZ     -0.733600
      2 N3          4.2720   -2.1140    0.4590 n3        1 LIZ     -0.710600
      3 C4         -0.9520    2.0020   -1.3320 c3        1 LIZ      0.092800
      4 C5          4.7330    3.4560    0.3210 c         1 LIZ      0.883600
      5 C6          4.2950    2.1930    1.0950 c3        1 LIZ      0.085800
      6 C7          5.2210   -3.7600   -1.2810 c         1 LIZ      0.896600
      7 C8          5.2950   -3.0960    0.1150 c3        1 LIZ      0.076800
      8 C10         3.7600   -2.3290    1.8090 c3        1 LIZ      0.076800
      9 C13         3.3330    0.1620   -0.0700 c3        1 LIZ      0.212500
     10 C15         3.1960    0.2940   -1.5950 c3        1 LIZ     -0.097400
     11 C17         5.6360    0.8240   -1.5800 c3        1 LIZ     -0.069400
     12 C20        -0.8370   -1.1150    1.9200 ca        1 LIZ     -0.108000
     13 C21        -2.0180   -1.8530    1.8610 ca        1 LIZ     -0.139500
     14 C22        -3.2600   -1.1970    1.9350 ca        1 LIZ     -0.082400
     15 C24        -2.1070    0.9220    2.1980 ca        1 LIZ     -0.108000
     16 C26        -5.3920   -1.7570    0.7960 c         1 LIZ      0.648400
     17 C28        -5.9200   -0.3690   -1.2810 c3        1 LIZ      0.025400
     18 O7          4.3670   -4.6680   -1.5140 o         1 LIZ     -0.890550
     19 O8          6.1270   -3.4850   -2.1340 o         1 LIZ     -0.890550
     20 C9          4.7100   -2.7380    2.9560 c         1 LIZ      0.896600
     21 O10         5.9180   -2.3590    2.9930 o         1 LIZ     -0.890550
     22 O9          4.2170   -3.4540    3.8890 o         1 LIZ     -0.890550
     23 C14         4.6330   -0.6960    0.2270 c3        1 LIZ      0.202500
     24 C18         5.6600   -0.5280   -0.9080 c3        1 LIZ     -0.091400
     25 C16         4.2930    1.1320   -2.2100 c3        1 LIZ     -0.083400
     26 N2          3.1540    1.3830    0.7160 n3        1 LIZ     -0.758600
     27 O6          4.0850    3.9270   -0.6590 o         1 LIZ     -0.882300
     28 O5          5.7980    4.0210    0.7390 o         1 LIZ     -0.882300
     29 C12         2.0030    2.2080    0.3570 c3        1 LIZ      0.166800
     30 C11         0.5970    1.5480    0.4980 c3        1 LIZ      0.208500
     31 C3         -2.4630    2.0300   -1.6070 c         1 LIZ      0.915600
     32 O4         -2.9320    2.8140   -2.4940 o         1 LIZ     -0.891300
     33 O3         -3.2630    1.1980   -1.0610 o         1 LIZ     -0.891300
     34 C2         -0.5220    3.7830    0.2460 c3        1 LIZ      0.092800
     35 C1         -1.1220    4.3590    1.5500 c         1 LIZ      0.915600
     36 O2         -1.0490    3.7780    2.6740 o         1 LIZ     -0.891300
     37 O1         -1.6510    5.5140    1.4500 o         1 LIZ     -0.891300
     38 C25         0.3730    1.0990    1.9600 c3        1 LIZ     -0.063100
     39 C19        -0.8660    0.2780    2.0530 ca        1 LIZ     -0.001300
     40 C23        -3.2900    0.2010    2.1310 ca        1 LIZ     -0.139500
     41 S1         -6.8350   -2.6040    1.0250 s         1 LIZ     -0.894400
     42 N5         -5.0500   -1.0390   -0.3090 n         1 LIZ     -0.462900
     43 C29        -7.3430   -0.9400   -1.4580 c3        1 LIZ      0.137733
     44 O11        -7.3780   -2.2470   -1.9900 oh        1 LIZ     -0.649467
     45 C30        -6.0740    1.1390   -0.8640 c3        1 LIZ      0.137733
     46 O12        -5.8270    2.0170   -1.9300 oh        1 LIZ     -0.649467
     47 C27        -5.2050   -0.4670   -2.6710 c3        1 LIZ      0.137733
     48 O13        -6.0200    0.0380   -3.7100 oh        1 LIZ     -0.649467
     49 H4         -0.4630    2.6810   -2.0920 h1        1 LIZ      0.026950
     50 H4A        -0.6340    0.9480   -1.5740 h1        1 LIZ      0.026950
     51 H6          5.2120    1.5500    1.1730 h1        1 LIZ      0.034200
     52 H6A         4.0630    2.5600    2.1410 h1        1 LIZ      0.034200
     53 H8          6.3330   -2.6730    0.2370 h1        1 LIZ      0.028950
     54 H8A         5.2160   -3.9570    0.8430 h1        1 LIZ      0.028950
     55 H10         3.2250   -1.4010    2.1550 h1        1 LIZ      0.028950
     56 H10A        2.9940   -3.1510    1.7150 h1        1 LIZ      0.028950
     57 H13         2.4440   -0.4690    0.2560 h1        1 LIZ      0.045700
     58 H15         3.2250   -0.7450   -2.0200 hc        1 LIZ      0.033700
     59 H15A        2.1970    0.7350   -1.8530 hc        1 LIZ      0.033700
     60 H17         5.8870    1.6310   -0.8390 hc        1 LIZ      0.022700
     61 H17A        6.4350    0.8480   -2.3690 hc        1 LIZ      0.022700
     62 H20         0.1330   -1.6310    1.8230 ha        1 LIZ      0.187500
     63 H21        -1.9680   -2.9430    1.7270 ha        1 LIZ      0.111000
     64 H24        -2.1170    2.0290    2.3050 ha        1 LIZ      0.187500
     65 H14         5.1160   -0.3070    1.1740 h1        1 LIZ      0.042700
     66 H18         5.5070   -1.3200   -1.6940 hc        1 LIZ      0.053200
     67 H18A        6.6840   -0.6910   -0.4750 hc        1 LIZ      0.053200
     68 H16         4.3320    0.9360   -3.3140 hc        1 LIZ      0.034700
     69 H16A        4.0590    2.2230   -2.0590 hc        1 LIZ      0.034700
     70 H12         2.0300    3.1010    1.0460 h1        1 LIZ      0.049700
     71 H12A        2.0970    2.5980   -0.6980 h1        1 LIZ      0.049700
     72 H11         0.6240    0.5940   -0.1150 h1        1 LIZ      0.035700
     73 H2          0.5250    4.1980    0.1880 h1        1 LIZ      0.026950
     74 H2A        -1.1140    4.2720   -0.5840 h1        1 LIZ      0.026950
     75 H25         1.2620    0.5000    2.2880 hc        1 LIZ      0.085200
     76 H25A        0.2780    2.0130    2.6110 hc        1 LIZ      0.085200
     77 H23        -4.2500    0.7350    2.1770 ha        1 LIZ      0.111000
     78 HN4        -4.6820   -2.6230    2.4840 hn        1 LIZ      0.329500
     79 HN5        -4.1300   -0.5880   -0.3130 hn        1 LIZ      0.391500
     80 H29        -7.9040   -0.9000   -0.4850 h1        1 LIZ      0.057200
     81 H29A       -7.8520   -0.3060   -2.2360 h1        1 LIZ      0.057200
     82 HO11       -7.0750   -2.8380   -1.2780 ho        1 LIZ      0.449333
     83 H30        -7.1400    1.3270   -0.5580 h1        1 LIZ      0.057200
     84 H30A       -5.3860    1.3830   -0.0070 h1        1 LIZ      0.057200
     85 HO12       -4.8520    2.1830   -1.9630 ho        1 LIZ      0.449333
     86 H27        -4.2250    0.0890   -2.6220 h1        1 LIZ      0.057200
     87 H27A       -5.0560   -1.5480   -2.9330 h1        1 LIZ      0.057200
     88 HO13       -5.9710    1.0020   -3.6690 ho        1 LIZ      0.449333
     89 N4         -4.4780   -1.9180    1.8130 n         1 LIZ     -0.412100
@<TRIPOS>BOND
     1    1    3 1   
     2    1   30 1   
     3    1   34 1   
     4    2    7 1   
     5    2    8 1   
     6    2   23 1   
     7    3   31 1   
     8    3   49 1   
     9    3   50 1   
    10    4    5 1   
    11    4   27 1   
    12    4   28 1   
    13    5   26 1   
    14    5   51 1   
    15    5   52 1   
    16    6    7 1   
    17    6   18 1   
    18    6   19 1   
    19    7   53 1   
    20    7   54 1   
    21    8   20 1   
    22    8   55 1   
    23    8   56 1   
    24    9   10 1   
    25    9   23 1   
    26    9   26 1   
    27    9   57 1   
    28   10   25 1   
    29   10   58 1   
    30   10   59 1   
    31   11   24 1   
    32   11   25 1   
    33   11   60 1   
    34   11   61 1   
    35   12   13 ar  
    36   12   39 ar  
    37   12   62 1   
    38   13   14 ar  
    39   13   63 1   
    40   14   40 ar  
    41   14   89 1   
    42   15   39 ar  
    43   15   40 ar  
    44   15   64 1   
    45   16   41 2   
    46   16   42 1   
    47   16   89 1   
    48   17   42 1   
    49   17   43 1   
    50   17   45 1   
    51   17   47 1   
    52   20   21 1   
    53   20   22 1   
    54   23   24 1   
    55   23   65 1   
    56   24   66 1   
    57   24   67 1   
    58   25   68 1   
    59   25   69 1   
    60   26   29 1   
    61   29   30 1   
    62   29   70 1   
    63   29   71 1   
    64   30   38 1   
    65   30   72 1   
    66   31   32 1   
    67   31   33 1   
    68   34   35 1   
    69   34   73 1   
    70   34   74 1   
    71   35   36 1   
    72   35   37 1   
    73   38   39 1   
    74   38   75 1   
    75   38   76 1   
    76   40   77 1   
    77   42   79 1   
    78   43   44 1   
    79   43   80 1   
    80   43   81 1   
    81   44   82 1   
    82   45   46 1   
    83   45   83 1   
    84   45   84 1   
    85   46   85 1   
    86   47   48 1   
    87   47   86 1   
    88   47   87 1   
    89   48   88 1   
    90   78   89 1   
@<TRIPOS>SUBSTRUCTURE
     1 LIZ         1 TEMP              0 ****  ****    0 ROOT
