@<TRIPOS>MOLECULE
LJ1
   33    34     1     0     0
SMALL
bcc


@<TRIPOS>ATOM
      1 CAA        -4.0420    2.3770   -0.0830 c3        1 LJ1     -0.048300
      2 CAM        -3.1240    1.2180   -0.0410 ca        1 LJ1     -0.127800
      3 CAK        -1.7440    1.3840    0.0430 ca        1 LJ1     -0.088000
      4 CAQ        -3.6460   -0.0940   -0.0860 ca        1 LJ1      0.127100
      5 OAC        -5.0170   -0.1890   -0.1680 oh        1 LJ1     -0.497100
      6 CAN        -2.7980   -1.2150   -0.0450 ca        1 LJ1     -0.127800
      7 CAB        -3.3470   -2.5900   -0.0850 c3        1 LJ1     -0.048300
      8 CAL        -1.4180   -1.0100    0.0350 ca        1 LJ1     -0.088000
      9 CAP        -0.8770    0.2790    0.0750 ca        1 LJ1     -0.085800
     10 CAE         0.5540    0.5150    0.1620 ce        1 LJ1     -0.095200
     11 CAD         1.5010   -0.3800   -0.1640 cf        1 LJ1     -0.113200
     12 CAO         2.9320   -0.1410   -0.0740 ca        1 LJ1     -0.052800
     13 CAI         3.8040   -1.2420   -0.0220 ca        1 LJ1     -0.120500
     14 CAG         5.1800   -1.0500    0.0650 ca        1 LJ1     -0.130000
     15 CAF         5.7070    0.2410    0.0950 ca        1 LJ1     -0.128000
     16 CAH         4.8510    1.3400    0.0350 ca        1 LJ1     -0.130000
     17 CAJ         3.4730    1.1520   -0.0490 ca        1 LJ1     -0.120500
     18 HAA        -4.6390    2.3580   -1.0300 hc        1 LJ1      0.045700
     19 HAAA       -4.7600    2.3270    0.7730 hc        1 LJ1      0.045700
     20 HAAB       -3.4820    3.3420   -0.0290 hc        1 LJ1      0.045700
     21 HAK        -1.3270    2.4030    0.0800 ha        1 LJ1      0.134500
     22 HOAC       -5.2570   -1.1260   -0.1920 ho        1 LJ1      0.420000
     23 HAB        -3.9220   -2.7570   -1.0310 hc        1 LJ1      0.045700
     24 HABA       -2.5300   -3.3510   -0.0390 hc        1 LJ1      0.045700
     25 HABB       -4.0330   -2.7650    0.7820 hc        1 LJ1      0.045700
     26 HAL        -0.7510   -1.8850    0.0760 ha        1 LJ1      0.134500
     27 HAE         0.8340    1.5220    0.5220 ha        1 LJ1      0.126000
     28 HAD         1.2240   -1.3870   -0.5250 ha        1 LJ1      0.126000
     29 HAI         3.3930   -2.2620   -0.0460 ha        1 LJ1      0.131500
     30 HAG         5.8520   -1.9190    0.1100 ha        1 LJ1      0.131000
     31 HAF         6.7950    0.3910    0.1630 ha        1 LJ1      0.131000
     32 HAH         5.2630    2.3600    0.0540 ha        1 LJ1      0.131000
     33 HAJ         2.8080    2.0270   -0.1040 ha        1 LJ1      0.131500
@<TRIPOS>BOND
     1    1    2 1   
     2    1   18 1   
     3    1   19 1   
     4    1   20 1   
     5    2    3 ar  
     6    2    4 ar  
     7    3    9 ar  
     8    3   21 1   
     9    4    5 1   
    10    4    6 ar  
    11    5   22 1   
    12    6    7 1   
    13    6    8 ar  
    14    7   23 1   
    15    7   24 1   
    16    7   25 1   
    17    8    9 ar  
    18    8   26 1   
    19    9   10 1   
    20   10   11 2   
    21   10   27 1   
    22   11   12 1   
    23   11   28 1   
    24   12   13 ar  
    25   12   17 ar  
    26   13   14 ar  
    27   13   29 1   
    28   14   15 ar  
    29   14   30 1   
    30   15   16 ar  
    31   15   31 1   
    32   16   17 ar  
    33   16   32 1   
    34   17   33 1   
@<TRIPOS>SUBSTRUCTURE
     1 LJ1         1 TEMP              0 ****  ****    0 ROOT
