@<TRIPOS>MOLECULE
LJ1
   33    34     1     0     0
SMALL
bcc


@<TRIPOS>ATOM
      1 CAA        -0.0080    0.0380    0.0410 c3        1 LJ1     -0.048300
      2 CAM         1.4720    0.0160    0.0110 ca        1 LJ1     -0.127800
      3 CAK         2.2240    0.1110    1.1780 ca        1 LJ1     -0.088000
      4 CAQ         2.1480   -0.1020   -1.2230 ca        1 LJ1      0.127100
      5 OAC         1.3460   -0.1910   -2.3380 oh        1 LJ1     -0.497100
      6 CAN         3.5530   -0.1230   -1.2820 ca        1 LJ1     -0.127800
      7 CAB         4.2620   -0.2400   -2.5770 c3        1 LJ1     -0.048300
      8 CAL         4.2760   -0.0290   -0.0900 ca        1 LJ1     -0.088000
      9 CAP         3.6280    0.0830    1.1450 ca        1 LJ1     -0.085800
     10 CAE         4.3600    0.1850    2.3960 ce        1 LJ1     -0.095200
     11 CAD         5.6390   -0.1890    2.5700 cf        1 LJ1     -0.113200
     12 CAO         6.3680   -0.0850    3.8230 ca        1 LJ1     -0.052800
     13 CAI         7.7730   -0.0930    3.7950 ca        1 LJ1     -0.120500
     14 CAG         8.5040    0.0060    4.9760 ca        1 LJ1     -0.130000
     15 CAF         7.8460    0.1080    6.2020 ca        1 LJ1     -0.128000
     16 CAH         6.4520    0.1100    6.2400 ca        1 LJ1     -0.130000
     17 CAJ         5.7170    0.0130    5.0610 ca        1 LJ1     -0.120500
     18 HAA        -0.3890    0.8890   -0.5780 hc        1 LJ1      0.045700
     19 HAAA       -0.3930    0.1470    1.0830 hc        1 LJ1      0.045700
     20 HAAB       -0.4120   -0.9090   -0.3980 hc        1 LJ1      0.045700
     21 HAK         1.7070    0.2060    2.1460 ha        1 LJ1      0.134500
     22 HOAC        1.9150   -0.2680   -3.1180 ho        1 LJ1      0.420000
     23 HAB         5.3700   -0.2350   -2.4310 hc        1 LJ1      0.045700
     24 HABA        3.9850   -1.1940   -3.0920 hc        1 LJ1      0.045700
     25 HABB        3.9980    0.6150   -3.2490 hc        1 LJ1      0.045700
     26 HAL         5.3770   -0.0370   -0.1320 ha        1 LJ1      0.134500
     27 HAE         3.7780    0.6010    3.2380 ha        1 LJ1      0.126000
     28 HAD         6.2230   -0.6060    1.7300 ha        1 LJ1      0.126000
     29 HAI         8.2970   -0.1750    2.8310 ha        1 LJ1      0.131500
     30 HAG         9.6030    0.0020    4.9410 ha        1 LJ1      0.131000
     31 HAF         8.4250    0.1850    7.1330 ha        1 LJ1      0.131000
     32 HAH         5.9290    0.1850    7.2050 ha        1 LJ1      0.131000
     33 HAJ         4.6170    0.0060    5.1060 ha        1 LJ1      0.131500
@<TRIPOS>BOND
     1    1    2 1   
     2    1   18 1   
     3    1   19 1   
     4    1   20 1   
     5    2    3 ar  
     6    2    4 ar  
     7    3    9 ar  
     8    3   21 1   
     9    4    5 1   
    10    4    6 ar  
    11    5   22 1   
    12    6    7 1   
    13    6    8 ar  
    14    7   23 1   
    15    7   24 1   
    16    7   25 1   
    17    8    9 ar  
    18    8   26 1   
    19    9   10 1   
    20   10   11 2   
    21   10   27 1   
    22   11   12 1   
    23   11   28 1   
    24   12   13 ar  
    25   12   17 ar  
    26   13   14 ar  
    27   13   29 1   
    28   14   15 ar  
    29   14   30 1   
    30   15   16 ar  
    31   15   31 1   
    32   16   17 ar  
    33   16   32 1   
    34   17   33 1   
@<TRIPOS>SUBSTRUCTURE
     1 LJ1         1 TEMP              0 ****  ****    0 ROOT
