@<TRIPOS>MOLECULE
LJ1
   33    34     1     0     0
SMALL
bcc


@<TRIPOS>ATOM
      1 CAA        -0.0070    0.0480    0.0390 c3        1 LJ1     -0.048300
      2 CAM         1.4720    0.0230    0.0100 ca        1 LJ1     -0.127800
      3 CAK         2.2240    0.1170    1.1770 ca        1 LJ1     -0.088000
      4 CAQ         2.1490   -0.0970   -1.2240 ca        1 LJ1      0.127100
      5 OAC         1.3480   -0.1840   -2.3390 oh        1 LJ1     -0.497100
      6 CAN         3.5540   -0.1210   -1.2820 ca        1 LJ1     -0.127800
      7 CAB         4.2630   -0.2390   -2.5770 c3        1 LJ1     -0.048300
      8 CAL         4.2770   -0.0280   -0.0900 ca        1 LJ1     -0.088000
      9 CAP         3.6290    0.0860    1.1450 ca        1 LJ1     -0.085800
     10 CAE         4.3600    0.1860    2.3960 ce        1 LJ1     -0.095200
     11 CAD         5.6370   -0.1940    2.5710 cf        1 LJ1     -0.113200
     12 CAO         6.3670   -0.0900    3.8240 ca        1 LJ1     -0.052800
     13 CAI         7.7710   -0.1080    3.7970 ca        1 LJ1     -0.120500
     14 CAG         8.5030   -0.0110    4.9770 ca        1 LJ1     -0.130000
     15 CAF         7.8450    0.1000    6.2030 ca        1 LJ1     -0.128000
     16 CAH         6.4520    0.1110    6.2410 ca        1 LJ1     -0.130000
     17 CAJ         5.7160    0.0160    5.0610 ca        1 LJ1     -0.120500
     18 HAA        -0.3870    0.8980   -0.5820 hc        1 LJ1      0.045700
     19 HAAA       -0.3930    0.1600    1.0810 hc        1 LJ1      0.045700
     20 HAAB       -0.4130   -0.8990   -0.3980 hc        1 LJ1      0.045700
     21 HAK         1.7070    0.2130    2.1450 ha        1 LJ1      0.134500
     22 HOAC        1.9160   -0.2620   -3.1190 ho        1 LJ1      0.420000
     23 HAB         5.3710   -0.2360   -2.4300 hc        1 LJ1      0.045700
     24 HABA        3.9840   -1.1930   -3.0920 hc        1 LJ1      0.045700
     25 HABB        4.0010    0.6170   -3.2490 hc        1 LJ1      0.045700
     26 HAL         5.3770   -0.0380   -0.1310 ha        1 LJ1      0.134500
     27 HAE         3.7800    0.6070    3.2370 ha        1 LJ1      0.126000
     28 HAD         6.2190   -0.6150    1.7320 ha        1 LJ1      0.126000
     29 HAI         8.2950   -0.1970    2.8330 ha        1 LJ1      0.131500
     30 HAG         9.6020   -0.0220    4.9430 ha        1 LJ1      0.131000
     31 HAF         8.4240    0.1750    7.1340 ha        1 LJ1      0.131000
     32 HAH         5.9290    0.1930    7.2050 ha        1 LJ1      0.131000
     33 HAJ         4.6160    0.0160    5.1060 ha        1 LJ1      0.131500
@<TRIPOS>BOND
     1    1    2 1   
     2    1   18 1   
     3    1   19 1   
     4    1   20 1   
     5    2    3 ar  
     6    2    4 ar  
     7    3    9 ar  
     8    3   21 1   
     9    4    5 1   
    10    4    6 ar  
    11    5   22 1   
    12    6    7 1   
    13    6    8 ar  
    14    7   23 1   
    15    7   24 1   
    16    7   25 1   
    17    8    9 ar  
    18    8   26 1   
    19    9   10 1   
    20   10   11 2   
    21   10   27 1   
    22   11   12 1   
    23   11   28 1   
    24   12   13 ar  
    25   12   17 ar  
    26   13   14 ar  
    27   13   29 1   
    28   14   15 ar  
    29   14   30 1   
    30   15   16 ar  
    31   15   31 1   
    32   16   17 ar  
    33   16   32 1   
    34   17   33 1   
@<TRIPOS>SUBSTRUCTURE
     1 LJ1         1 TEMP              0 ****  ****    0 ROOT
