@<TRIPOS>MOLECULE
LJ2
   27    28     1     0     0
SMALL
bcc


@<TRIPOS>ATOM
      1 CAK        -0.0220    1.2260    0.3640 ca        1 LJ2     -0.046500
      2 CAM         0.9500    0.2530    0.1330 ca        1 LJ2     -0.091900
      3 BRAB        2.1670    0.5370   -1.2630 br        1 LJ2     -0.067100
      4 CAO         0.9840   -0.8960    0.9530 ca        1 LJ2      0.187100
      5 OAA         1.9600   -1.8210    0.6910 oh        1 LJ2     -0.474100
      6 CAN         0.0370   -1.0480    1.9870 ca        1 LJ2     -0.091900
      7 BRAC        0.0390   -2.5500    3.1110 br        1 LJ2     -0.067100
      8 CAL        -0.9310   -0.0650    2.1910 ca        1 LJ2     -0.046500
      9 CAQ        -0.9720    1.0770    1.3840 ca        1 LJ2     -0.093800
     10 CAE        -1.9400    2.1390    1.6080 ce        1 LJ2     -0.108200
     11 CAD        -3.2200    2.0300    1.9880 cf        1 LJ2     -0.096200
     12 CAP        -3.9940    0.8200    2.2170 ca        1 LJ2     -0.070800
     13 CAI        -4.8630    0.7620    3.3180 ca        1 LJ2     -0.117500
     14 CAG        -5.6470   -0.3680    3.5370 ca        1 LJ2     -0.130500
     15 CAF        -5.5840   -1.4470    2.6550 ca        1 LJ2     -0.124000
     16 CAH        -4.7300   -1.3940    1.5540 ca        1 LJ2     -0.130500
     17 CAJ        -3.9370   -0.2690    1.3360 ca        1 LJ2     -0.117500
     18 HAK        -0.0520    2.1300   -0.2660 ha        1 LJ2      0.158500
     19 HOAA        1.8730   -2.5510    1.3280 ho        1 LJ2      0.437000
     20 HAL        -1.6810   -0.1810    2.9920 ha        1 LJ2      0.158500
     21 HAE        -1.5280    3.1530    1.4410 ha        1 LJ2      0.130000
     22 HAD        -3.7970    2.9600    2.1530 ha        1 LJ2      0.130000
     23 HAI        -4.9220    1.6150    4.0110 ha        1 LJ2      0.136500
     24 HAG        -6.3200   -0.4070    4.4060 ha        1 LJ2      0.134000
     25 HAF        -6.2070   -2.3370    2.8270 ha        1 LJ2      0.133000
     26 HAH        -4.6800   -2.2410    0.8550 ha        1 LJ2      0.134000
     27 HAJ        -3.2600   -0.2290    0.4690 ha        1 LJ2      0.136500
@<TRIPOS>BOND
     1    1    2 ar  
     2    1    9 ar  
     3    1   18 1   
     4    2    3 1   
     5    2    4 ar  
     6    4    5 1   
     7    4    6 ar  
     8    5   19 1   
     9    6    7 1   
    10    6    8 ar  
    11    8    9 ar  
    12    8   20 1   
    13    9   10 1   
    14   10   11 2   
    15   10   21 1   
    16   11   12 1   
    17   11   22 1   
    18   12   13 ar  
    19   12   17 ar  
    20   13   14 ar  
    21   13   23 1   
    22   14   15 ar  
    23   14   24 1   
    24   15   16 ar  
    25   15   25 1   
    26   16   17 ar  
    27   16   26 1   
    28   17   27 1   
@<TRIPOS>SUBSTRUCTURE
     1 LJ2         1 TEMP              0 ****  ****    0 ROOT
