@<TRIPOS>MOLECULE
LJ2
   27    28     1     0     0
SMALL
bcc


@<TRIPOS>ATOM
      1 CAK        -0.3980   -1.4530    0.0140 ca        1 LJ2     -0.049500
      2 CAM        -1.7700   -1.2270    0.1030 ca        1 LJ2     -0.089400
      3 BRAB       -2.9060   -2.7150    0.1960 br        1 LJ2     -0.066600
      4 CAO        -2.2510    0.1010    0.1200 ca        1 LJ2      0.187100
      5 OAA        -3.6060    0.2740    0.2090 oh        1 LJ2     -0.473100
      6 CAN        -1.3410    1.1760    0.0430 ca        1 LJ2     -0.089400
      7 BRAC       -1.9200    2.9610    0.0520 br        1 LJ2     -0.066600
      8 CAL         0.0280    0.9220   -0.0430 ca        1 LJ2     -0.049500
      9 CAQ         0.5150   -0.3890   -0.0530 ca        1 LJ2     -0.087800
     10 CAE         1.9350   -0.6850   -0.1450 ce        1 LJ2     -0.109200
     11 CAD         2.9150    0.1690    0.1930 cf        1 LJ2     -0.095200
     12 CAP         4.3350   -0.1240    0.1000 ca        1 LJ2     -0.060800
     13 CAI         5.2490    0.9430    0.0710 ca        1 LJ2     -0.116000
     14 CAG         6.6170    0.7000   -0.0190 ca        1 LJ2     -0.130000
     15 CAF         7.0940   -0.6110   -0.0730 ca        1 LJ2     -0.123000
     16 CAH         6.1960   -1.6760   -0.0360 ca        1 LJ2     -0.130000
     17 CAJ         4.8260   -1.4370    0.0510 ca        1 LJ2     -0.116000
     18 HAK        -0.0150   -2.4880   -0.0020 ha        1 LJ2      0.153000
     19 HOAA       -3.7980    1.2280    0.2090 ho        1 LJ2      0.437000
     20 HAL         0.7360    1.7650   -0.1130 ha        1 LJ2      0.153000
     21 HAE         2.1720   -1.6980   -0.5180 ha        1 LJ2      0.132000
     22 HAD         2.6760    1.1810    0.5680 ha        1 LJ2      0.127000
     23 HAI         4.8780    1.9780    0.1150 ha        1 LJ2      0.132000
     24 HAG         7.3220    1.5430   -0.0450 ha        1 LJ2      0.133000
     25 HAF         8.1750   -0.8010   -0.1420 ha        1 LJ2      0.133000
     26 HAH         6.5680   -2.7110   -0.0730 ha        1 LJ2      0.133000
     27 HAJ         4.1280   -2.2870    0.0880 ha        1 LJ2      0.132000
@<TRIPOS>BOND
     1    1    2 ar  
     2    1    9 ar  
     3    1   18 1   
     4    2    3 1   
     5    2    4 ar  
     6    4    5 1   
     7    4    6 ar  
     8    5   19 1   
     9    6    7 1   
    10    6    8 ar  
    11    8    9 ar  
    12    8   20 1   
    13    9   10 1   
    14   10   11 2   
    15   10   21 1   
    16   11   12 1   
    17   11   22 1   
    18   12   13 ar  
    19   12   17 ar  
    20   13   14 ar  
    21   13   23 1   
    22   14   15 ar  
    23   14   24 1   
    24   15   16 ar  
    25   15   25 1   
    26   16   17 ar  
    27   16   26 1   
    28   17   27 1   
@<TRIPOS>SUBSTRUCTURE
     1 LJ2         1 TEMP              0 ****  ****    0 ROOT
