@<TRIPOS>MOLECULE
LJ2
   27    28     1     0     0
SMALL
bcc


@<TRIPOS>ATOM
      1 CAK        -0.1190    1.2040    0.2060 ca        1 LJ2     -0.046500
      2 CAM         0.8180    0.2200   -0.1060 ca        1 LJ2     -0.091900
      3 BrAB        1.9280    0.4970   -1.5890 br        1 LJ2     -0.067100
      4 CAO         0.8970   -0.9370    0.7010 ca        1 LJ2      0.187100
      5 OAA         1.8350   -1.8740    0.3590 oh        1 LJ2     -0.474100
      6 CAN         0.0290   -1.0830    1.8030 ca        1 LJ2     -0.091900
      7 BrAC        0.0930   -2.5940    2.9140 br        1 LJ2     -0.067100
      8 CAL        -0.9050   -0.0880    2.0880 ca        1 LJ2     -0.046500
      9 CAQ        -0.9910    1.0610    1.2950 ca        1 LJ2     -0.093800
     10 CAE        -1.9210    2.1360    1.6000 ce        1 LJ2     -0.108200
     11 CAD        -3.1700    2.0420    2.0760 cf        1 LJ2     -0.096200
     12 CAP        -3.9420    0.8420    2.3570 ca        1 LJ2     -0.070800
     13 CAI        -4.7240    0.7880    3.5220 ca        1 LJ2     -0.117500
     14 CAG        -5.5050   -0.3320    3.7940 ca        1 LJ2     -0.130500
     15 CAF        -5.5280   -1.4050    2.9020 ca        1 LJ2     -0.124000
     16 CAH        -4.7620   -1.3550    1.7380 ca        1 LJ2     -0.130500
     17 CAJ        -3.9710   -0.2400    1.4660 ca        1 LJ2     -0.117500
     18 HAK        -0.1830    2.1140   -0.4140 ha        1 LJ2      0.158500
     19 HOAA        1.7850   -2.6080    0.9960 ho        1 LJ2      0.437000
     20 HAL        -1.5940   -0.1990    2.9430 ha        1 LJ2      0.158500
     21 HAE        -1.5080    3.1450    1.4070 ha        1 LJ2      0.130000
     22 HAD        -3.7190    2.9800    2.2920 ha        1 LJ2      0.130000
     23 HAI        -4.7140    1.6360    4.2230 ha        1 LJ2      0.136500
     24 HAG        -6.1090   -0.3680    4.7130 ha        1 LJ2      0.134000
     25 HAF        -6.1490   -2.2860    3.1160 ha        1 LJ2      0.133000
     26 HAH        -4.7800   -2.1970    1.0300 ha        1 LJ2      0.134000
     27 HAJ        -3.3640   -0.2030    0.5490 ha        1 LJ2      0.136500
@<TRIPOS>BOND
     1    1    2 ar  
     2    1    9 ar  
     3    1   18 1   
     4    2    3 1   
     5    2    4 ar  
     6    4    5 1   
     7    4    6 ar  
     8    5   19 1   
     9    6    7 1   
    10    6    8 ar  
    11    8    9 ar  
    12    8   20 1   
    13    9   10 1   
    14   10   11 2   
    15   10   21 1   
    16   11   12 1   
    17   11   22 1   
    18   12   13 ar  
    19   12   17 ar  
    20   13   14 ar  
    21   13   23 1   
    22   14   15 ar  
    23   14   24 1   
    24   15   16 ar  
    25   15   25 1   
    26   16   17 ar  
    27   16   26 1   
    28   17   27 1   
@<TRIPOS>SUBSTRUCTURE
     1 LJ2         1 TEMP              0 ****  ****    0 ROOT
