@<TRIPOS>MOLECULE
LJ3
   23    24     1     0     0
SMALL
bcc


@<TRIPOS>ATOM
      1 CAI         0.6190   -1.1780   -0.3770 ca        1 LJ3     -0.048500
      2 CAL        -0.7750   -1.2180   -0.3610 ca        1 LJ3     -0.090400
      3 BRAB       -1.6180   -2.7910   -0.9320 br        1 LJ3     -0.066600
      4 CAK        -1.4930   -0.0840    0.0790 ca        1 LJ3      0.187100
      5 OAA        -2.8600   -0.1710    0.0770 oh        1 LJ3     -0.474100
      6 CAM        -0.7960    1.0690    0.4940 ca        1 LJ3     -0.090400
      7 BRAC       -1.6950    2.6040    1.0900 br        1 LJ3     -0.066600
      8 CAJ         0.5990    1.0840    0.4680 ca        1 LJ3     -0.048500
      9 CAO         1.3170   -0.0350    0.0350 cp        1 LJ3     -0.070000
     10 CAN         2.7780   -0.0130    0.0110 cp        1 LJ3     -0.040000
     11 CAG         3.4630    1.1270   -0.4330 ca        1 LJ3     -0.118000
     12 CAE         4.8560    1.1450   -0.4550 ca        1 LJ3     -0.128000
     13 CAD         5.5790    0.0290   -0.0340 ca        1 LJ3     -0.124000
     14 CAF         4.9040   -1.1080    0.4090 ca        1 LJ3     -0.128000
     15 CAH         3.5110   -1.1320    0.4320 ca        1 LJ3     -0.118000
     16 HAI         1.1890   -2.0570   -0.7240 ha        1 LJ3      0.156500
     17 HOAA       -3.2240    0.6710    0.4000 ho        1 LJ3      0.437000
     18 HAJ         1.1480    1.9820    0.7970 ha        1 LJ3      0.156500
     19 HAG         2.8970    2.0070   -0.7730 ha        1 LJ3      0.135500
     20 HAE         5.3850    2.0430   -0.8070 ha        1 LJ3      0.134500
     21 HAD         6.6780    0.0450   -0.0510 ha        1 LJ3      0.134000
     22 HAF         5.4710   -1.9890    0.7440 ha        1 LJ3      0.134500
     23 HAH         2.9820   -2.0290    0.7890 ha        1 LJ3      0.135500
@<TRIPOS>BOND
     1    1    2 ar  
     2    1    9 ar  
     3    1   16 1   
     4    2    3 1   
     5    2    4 ar  
     6    4    5 1   
     7    4    6 ar  
     8    5   17 1   
     9    6    7 1   
    10    6    8 ar  
    11    8    9 ar  
    12    8   18 1   
    13    9   10 1   
    14   10   11 ar  
    15   10   15 ar  
    16   11   12 ar  
    17   11   19 1   
    18   12   13 ar  
    19   12   20 1   
    20   13   14 ar  
    21   13   21 1   
    22   14   15 ar  
    23   14   22 1   
    24   15   23 1   
@<TRIPOS>SUBSTRUCTURE
     1 LJ3         1 TEMP              0 ****  ****    0 ROOT
