@<TRIPOS>MOLECULE
LJ3
   23    17     1     0     0
SMALL
bcc


@<TRIPOS>ATOM
      1 CAI         1.0810    0.0310   -1.2060 c1        1 LJ3     -0.085000
      2 CAL         2.4660    0.0800   -1.2280 c1        1 LJ3     -0.201000
      3 BRAB        3.3960    0.0780   -2.8980 br        1 LJ3      0.085000
      4 CAK         3.1780    0.1100   -0.0390 c1        1 LJ3      0.142000
      5 OAA         4.5820    0.1860   -0.0610 o         1 LJ3     -0.228000
      6 CAM         2.5040    0.0910    1.1730 c2        1 LJ3     -0.260000
      7 BRAC        3.4830    0.1780    2.8120 br        1 LJ3      0.062000
      8 CAJ         1.1190    0.0420    1.1950 c1        1 LJ3     -0.045000
      9 CAO         0.4080    0.0120    0.0060 c1        1 LJ3     -0.055000
     10 CAN        -0.9780   -0.0020    0.0270 c1        1 LJ3     -0.055000
     11 CAG        -1.6840    1.1890   -0.0440 c1        1 LJ3     -0.124500
     12 CAE        -3.0700    1.1740   -0.0490 c1        1 LJ3     -0.124500
     13 CAD        -3.7500   -0.0320    0.0170 c1        1 LJ3     -0.124500
     14 CAF        -3.0440   -1.2230    0.0890 c1        1 LJ3     -0.124500
     15 CAH        -1.6580   -1.2080    0.0940 c1        1 LJ3     -0.085000
     16 HAI         0.5800    0.0090   -2.0430 ha        1 LJ3      0.146000
     17 HOAA        4.9250   -0.6320    0.0020 ho        1 LJ3      0.236000
     18 HAJ         0.6450    0.0290    2.0480 ha        1 LJ3      0.156000
     19 HAG        -1.2050    2.0380   -0.0910 ha        1 LJ3      0.134750
     20 HAE        -3.5670    2.0120   -0.0990 ha        1 LJ3      0.134750
     21 HAD        -4.7260   -0.0430    0.0140 ha        1 LJ3      0.134750
     22 HAF        -3.5230   -2.0720    0.1360 ha        1 LJ3      0.134750
     23 HAH        -1.1610   -2.0460    0.1440 ha        1 LJ3      0.146000
@<TRIPOS>BOND
     1    1    9 1   
     2    1   16 1   
     3    2    3 1   
     4    2    4 1   
     5    4    6 1   
     6    5   17 1   
     7    6    7 1   
     8    6    8 1   
     9    8   18 1   
    10   10   15 1   
    11   11   12 1   
    12   11   19 1   
    13   12   20 1   
    14   13   14 1   
    15   13   21 1   
    16   14   22 1   
    17   15   23 1   
@<TRIPOS>SUBSTRUCTURE
     1 LJ3         1 TEMP              0 ****  ****    0 ROOT
