@<TRIPOS>MOLECULE
LJ3
   23    24     1     0     0
SMALL
bcc


@<TRIPOS>ATOM
      1 CAI        -0.0060    0.3490    0.0200 ca        1 LJ3     -0.048500
      2 CAL         1.3880    0.3300   -0.0210 ca        1 LJ3     -0.090400
      3 BRAB        2.2300    0.8660   -1.6070 br        1 LJ3     -0.066600
      4 CAK         2.1070   -0.0880    1.1210 ca        1 LJ3      0.187100
      5 OAA         3.4730   -0.0910    1.0320 oh        1 LJ3     -0.474100
      6 CAM         1.4100   -0.4770    2.2840 ca        1 LJ3     -0.090400
      7 BRAC        2.3100   -1.0420    3.8300 br        1 LJ3     -0.066600
      8 CAJ         0.0160   -0.4470    2.3000 ca        1 LJ3     -0.048500
      9 CAO        -0.7030   -0.0360    1.1730 cp        1 LJ3     -0.070000
     10 CAN        -2.1640   -0.0090    1.1960 cp        1 LJ3     -0.040000
     11 CAG        -2.8460    0.4610    2.3280 ca        1 LJ3     -0.118000
     12 CAE        -4.2390    0.4860    2.3470 ca        1 LJ3     -0.128000
     13 CAD        -4.9650    0.0430    1.2410 ca        1 LJ3     -0.124000
     14 CAF        -4.2920   -0.4260    0.1130 ca        1 LJ3     -0.128000
     15 CAH        -2.8990   -0.4520    0.0870 ca        1 LJ3     -0.118000
     16 HAI        -0.5770    0.6790   -0.8650 ha        1 LJ3      0.156500
     17 HOAA        3.8380   -0.3970    1.8800 ho        1 LJ3      0.437000
     18 HAJ        -0.5330   -0.7560    3.2050 ha        1 LJ3      0.156500
     19 HAG        -2.2780    0.8180    3.2000 ha        1 LJ3      0.135500
     20 HAE        -4.7660    0.8590    3.2380 ha        1 LJ3      0.134500
     21 HAD        -6.0640    0.0640    1.2590 ha        1 LJ3      0.134000
     22 HAF        -4.8610   -0.7780   -0.7600 ha        1 LJ3      0.134500
     23 HAH        -2.3730   -0.8290   -0.8030 ha        1 LJ3      0.135500
@<TRIPOS>BOND
     1    1    2 ar  
     2    1    9 ar  
     3    1   16 1   
     4    2    3 1   
     5    2    4 ar  
     6    4    5 1   
     7    4    6 ar  
     8    5   17 1   
     9    6    7 1   
    10    6    8 ar  
    11    8    9 ar  
    12    8   18 1   
    13    9   10 1   
    14   10   11 ar  
    15   10   15 ar  
    16   11   12 ar  
    17   11   19 1   
    18   12   13 ar  
    19   12   20 1   
    20   13   14 ar  
    21   13   21 1   
    22   14   15 ar  
    23   14   22 1   
    24   15   23 1   
@<TRIPOS>SUBSTRUCTURE
     1 LJ3         1 TEMP              0 ****  ****    0 ROOT
