@<TRIPOS>MOLECULE
LJ4
   24    25     1     0     0
SMALL
bcc


@<TRIPOS>ATOM
      1 CAI         0.3720    0.2460   -0.1310 ca        1 LJ4     -0.080500
      2 CAL         1.6710   -0.2130    0.0900 ca        1 LJ4     -0.073400
      3 BRAB        2.8000   -0.4310   -1.3910 br        1 LJ4     -0.059100
      4 CAP         2.1030   -0.4950    1.4030 ca        1 LJ4      0.172100
      5 OAA         3.3650   -0.9470    1.6900 oh        1 LJ4     -0.474100
      6 CAM         1.2230   -0.3200    2.4940 ca        1 LJ4     -0.073400
      7 BRAC        1.7240   -0.6730    4.2650 br        1 LJ4     -0.059100
      8 CAJ        -0.0760    0.1280    2.2630 ca        1 LJ4     -0.080500
      9 CAO        -0.4900    0.4120    0.9540 ca        1 LJ4      0.065100
     10 OAK        -1.7580    0.9720    0.8230 os        1 LJ4     -0.243200
     11 CAN        -2.5370    0.5050   -0.2340 ca        1 LJ4      0.099100
     12 CAG        -2.4590   -0.8010   -0.7290 ca        1 LJ4     -0.159000
     13 CAE        -3.3450   -1.1960   -1.7310 ca        1 LJ4     -0.105000
     14 CAD        -4.2930   -0.3010   -2.2270 ca        1 LJ4     -0.149000
     15 CAF        -4.3610    0.9990   -1.7230 ca        1 LJ4     -0.105000
     16 CAH        -3.4830    1.4180   -0.7270 ca        1 LJ4     -0.159000
     17 HAI         0.0150    0.4750   -1.1490 ha        1 LJ4      0.169500
     18 HOAA        3.8690   -1.0080    0.8610 ho        1 LJ4      0.436000
     19 HAJ        -0.7860    0.2770    3.0940 ha        1 LJ4      0.169500
     20 HAG        -1.7120   -1.5020   -0.3300 ha        1 LJ4      0.149500
     21 HAE        -3.2940   -2.2210   -2.1270 ha        1 LJ4      0.137000
     22 HAD        -4.9890   -0.6200   -3.0160 ha        1 LJ4      0.136000
     23 HAF        -5.1110    1.7020   -2.1160 ha        1 LJ4      0.137000
     24 HAH        -3.5250    2.4370   -0.3160 ha        1 LJ4      0.149500
@<TRIPOS>BOND
     1    1    2 ar  
     2    1    9 ar  
     3    1   17 1   
     4    2    3 1   
     5    2    4 ar  
     6    4    5 1   
     7    4    6 ar  
     8    5   18 1   
     9    6    7 1   
    10    6    8 ar  
    11    8    9 ar  
    12    8   19 1   
    13    9   10 1   
    14   10   11 1   
    15   11   12 ar  
    16   11   16 ar  
    17   12   13 ar  
    18   12   20 1   
    19   13   14 ar  
    20   13   21 1   
    21   14   15 ar  
    22   14   22 1   
    23   15   16 ar  
    24   15   23 1   
    25   16   24 1   
@<TRIPOS>SUBSTRUCTURE
     1 LJ4         1 TEMP              0 ****  ****    0 ROOT
