@<TRIPOS>MOLECULE
LJ4
   24    25     1     0     0
SMALL
bcc


@<TRIPOS>ATOM
      1 CAI         0.6350    0.4750    0.2720 ca        1 LJ4     -0.080500
      2 CAL        -0.4920    1.1610   -0.1820 ca        1 LJ4     -0.073400
      3 BRAB       -0.3850    3.0250   -0.3620 br        1 LJ4     -0.059100
      4 CAP        -1.6720    0.4510   -0.4860 ca        1 LJ4      0.172100
      5 OAA        -2.8150    1.0620   -0.9330 oh        1 LJ4     -0.474100
      6 CAM        -1.7140   -0.9540   -0.3400 ca        1 LJ4     -0.073400
      7 BRAC       -3.2440   -1.9660   -0.7230 br        1 LJ4     -0.059100
      8 CAJ        -0.5800   -1.6320    0.1030 ca        1 LJ4     -0.080500
      9 CAO         0.5840   -0.9130    0.4100 ca        1 LJ4      0.065100
     10 OAK         1.6280   -1.6490    0.9620 os        1 LJ4     -0.243200
     11 CAN         2.9100   -1.3430    0.5100 ca        1 LJ4      0.099100
     12 CAG         3.9430   -1.6030    1.4250 ca        1 LJ4     -0.159000
     13 CAE         5.2610   -1.4090    1.0190 ca        1 LJ4     -0.105000
     14 CAD         5.5460   -0.9560   -0.2710 ca        1 LJ4     -0.149000
     15 CAF         4.5090   -0.6980   -1.1670 ca        1 LJ4     -0.105000
     16 CAH         3.1820   -0.8910   -0.7860 ca        1 LJ4     -0.159000
     17 HAI         1.5670    1.0110    0.5170 ha        1 LJ4      0.169500
     18 HOAA       -2.6570    2.0210   -0.9740 ho        1 LJ4      0.436000
     19 HAJ        -0.5830   -2.7270    0.2300 ha        1 LJ4      0.169500
     20 HAG         3.7020   -1.9620    2.4350 ha        1 LJ4      0.149500
     21 HAE         6.0810   -1.6120    1.7240 ha        1 LJ4      0.137000
     22 HAD         6.5900   -0.8020   -0.5800 ha        1 LJ4      0.136000
     23 HAF         4.7350   -0.3440   -2.1840 ha        1 LJ4      0.137000
     24 HAH         2.3600   -0.6940   -1.4880 ha        1 LJ4      0.149500
@<TRIPOS>BOND
     1    1    2 ar  
     2    1    9 ar  
     3    1   17 1   
     4    2    3 1   
     5    2    4 ar  
     6    4    5 1   
     7    4    6 ar  
     8    5   18 1   
     9    6    7 1   
    10    6    8 ar  
    11    8    9 ar  
    12    8   19 1   
    13    9   10 1   
    14   10   11 1   
    15   11   12 ar  
    16   11   16 ar  
    17   12   13 ar  
    18   12   20 1   
    19   13   14 ar  
    20   13   21 1   
    21   14   15 ar  
    22   14   22 1   
    23   15   16 ar  
    24   15   23 1   
    25   16   24 1   
@<TRIPOS>SUBSTRUCTURE
     1 LJ4         1 TEMP              0 ****  ****    0 ROOT
