@<TRIPOS>MOLECULE
LJ5
   27    23     1     0     0
SMALL
bcc


@<TRIPOS>ATOM
      1 CAJ         2.2730    0.2470   -1.2320 c1        1 LJ5     -0.085000
      2 CAO         3.6580    0.2290   -1.1990 c1        1 LJ5     -0.175000
      3 BRAC        4.6500   -0.0590   -2.8080 br        1 LJ5      0.090000
      4 CAR         4.3250    0.4430   -0.0030 c1        1 LJ5      0.114000
      5 OAB         5.7310    0.3930    0.0380 o         1 LJ5     -0.228000
      6 CAP         3.6070    0.6740    1.1600 c2        1 LJ5     -0.232000
      7 BRAD        4.5260    0.9190    2.8190 br        1 LJ5      0.061000
      8 CAK         2.2210    0.6920    1.1260 c1        1 LJ5     -0.114000
      9 CAN         1.5540    0.4780   -0.0700 c1        1 LJ5      0.045000
     10 NAL         0.1370    0.5520   -0.1150 n         1 LJ5     -0.324000
     11 CAM        -0.6390   -0.6300    0.0060 c2        1 LJ5      0.355000
     12 OAA        -0.0910   -1.7050    0.1480 o         1 LJ5     -0.340000
     13 CAQ        -2.1500   -0.5440    0.0240 c2        1 LJ5     -0.129000
     14 CAH        -2.8220   -0.4260    1.2300 c2        1 LJ5     -0.105000
     15 CAF        -4.2080   -0.4090    1.2520 c1        1 LJ5     -0.136000
     16 CAE        -4.9220   -0.5080    0.0670 c1        1 LJ5     -0.120000
     17 CAG        -4.2490   -0.6260   -1.1380 c1        1 LJ5     -0.120000
     18 CAI        -2.8630   -0.6440   -1.1600 c1        1 LJ5     -0.076000
     19 HAJ         1.8030    0.0960   -2.0750 ha        1 LJ5      0.193000
     20 HOAB        6.0590    1.2160   -0.0370 ho        1 LJ5      0.233000
     21 HAK         1.7150    0.8550    1.9450 ha        1 LJ5      0.148000
     22 HNAL       -0.2740    1.3570   -0.2420 hn        1 LJ5      0.235000
     23 HAH        -2.3200   -0.3560    2.0640 ha        1 LJ5      0.137000
     24 HAF        -4.6820   -0.3260    2.1010 ha        1 LJ5      0.139000
     25 HAE        -5.8980   -0.4960    0.0830 ha        1 LJ5      0.139500
     26 HAG        -4.7510   -0.6960   -1.9720 ha        1 LJ5      0.139500
     27 HAI        -2.3890   -0.7260   -2.0100 ha        1 LJ5      0.156000
@<TRIPOS>BOND
     1    1    9 1   
     2    1   19 1   
     3    2    3 1   
     4    2    4 1   
     5    4    6 1   
     6    5   20 1   
     7    6    7 1   
     8    6    8 1   
     9    8   21 1   
    10    9   10 1   
    11   10   11 1   
    12   10   22 1   
    13   11   12 1   
    14   11   13 1   
    15   13   14 1   
    16   13   18 1   
    17   14   15 1   
    18   14   23 1   
    19   15   24 1   
    20   16   17 1   
    21   16   25 1   
    22   17   26 1   
    23   18   27 1   
@<TRIPOS>SUBSTRUCTURE
     1 LJ5         1 TEMP              0 ****  ****    0 ROOT
