@<TRIPOS>MOLECULE
LJ5
   27    28     1     0     0
SMALL
bcc


@<TRIPOS>ATOM
      1 CAJ        -0.1560    0.9390   -0.3050 ca        1 LJ5     -0.099000
      2 CAO        -1.5420    1.0810   -0.2780 ca        1 LJ5     -0.062900
      3 BRAC       -2.2570    2.8000   -0.5200 br        1 LJ5     -0.064600
      4 CAR        -2.3730   -0.0380   -0.0760 ca        1 LJ5      0.159100
      5 OAB        -3.7420    0.0360   -0.0410 oh        1 LJ5     -0.476100
      6 CAP        -1.7920   -1.3110    0.1010 ca        1 LJ5     -0.062900
      7 BRAD       -2.8120   -2.8600    0.3730 br        1 LJ5     -0.064600
      8 CAK        -0.4060   -1.4440    0.0770 ca        1 LJ5     -0.099000
      9 CAN         0.4360   -0.3270   -0.1280 ca        1 LJ5      0.036600
     10 NAL         1.8250   -0.5350   -0.1690 n         1 LJ5     -0.469100
     11 CAM         2.8170    0.4330   -0.0630 c         1 LJ5      0.681700
     12 OAA         2.5660    1.6470    0.0500 o         1 LJ5     -0.581100
     13 CAQ         4.2220   -0.0720   -0.0810 ca        1 LJ5     -0.149600
     14 CAH         5.1410    0.5090    0.8000 ca        1 LJ5     -0.090500
     15 CAF         6.4660    0.0770    0.8050 ca        1 LJ5     -0.135500
     16 CAE         6.8770   -0.9260   -0.0730 ca        1 LJ5     -0.105000
     17 CAG         5.9640   -1.4940   -0.9620 ca        1 LJ5     -0.135500
     18 CAI         4.6360   -1.0710   -0.9680 ca        1 LJ5     -0.090500
     19 HAJ         0.4790    1.8310   -0.4630 ha        1 LJ5      0.170500
     20 HOAB       -4.0020    0.9650   -0.1700 ho        1 LJ5      0.435000
     21 HAK         0.0350   -2.4460    0.2200 ha        1 LJ5      0.170500
     22 HNAL        2.1170   -1.4870   -0.1660 hn        1 LJ5      0.321500
     23 HAH         4.8090    1.3140    1.4760 ha        1 LJ5      0.146500
     24 HAF         7.1870    0.5320    1.5000 ha        1 LJ5      0.140000
     25 HAE         7.9240   -1.2650   -0.0700 ha        1 LJ5      0.138000
     26 HAG         6.2920   -2.2770   -1.6630 ha        1 LJ5      0.140000
     27 HAI         3.9290   -1.5130   -1.6870 ha        1 LJ5      0.146500
@<TRIPOS>BOND
     1    1    2 ar  
     2    1    9 ar  
     3    1   19 1   
     4    2    3 1   
     5    2    4 ar  
     6    4    5 1   
     7    4    6 ar  
     8    5   20 1   
     9    6    7 1   
    10    6    8 ar  
    11    8    9 ar  
    12    8   21 1   
    13    9   10 1   
    14   10   11 1   
    15   10   22 1   
    16   11   12 2   
    17   11   13 1   
    18   13   14 ar  
    19   13   18 ar  
    20   14   15 ar  
    21   14   23 1   
    22   15   16 ar  
    23   15   24 1   
    24   16   17 ar  
    25   16   25 1   
    26   17   18 ar  
    27   17   26 1   
    28   18   27 1   
@<TRIPOS>SUBSTRUCTURE
     1 LJ5         1 TEMP              0 ****  ****    0 ROOT
