@<TRIPOS>MOLECULE
LJ5
   28    29     1     0     0
SMALL
bcc


@<TRIPOS>ATOM
      1 CAJ        -0.6110    1.0570    0.6490 ca        1 LJ5     -0.030000
      2 CAO         0.6130    0.9040    0.0030 ca        1 LJ5     -0.091400
      3 BRAC        1.0290    2.0770   -1.3930 br        1 LJ5      0.008400
      4 CAR         1.5030   -0.1170    0.4100 ca        1 LJ5      0.246100
      5 OAB         2.7120   -0.3260   -0.1690 oh        1 LJ5     -0.437100
      6 CAP         1.1480   -0.9900    1.4740 ca        1 LJ5     -0.091400
      7 BRAD        2.2660   -2.3650    2.0670 br        1 LJ5      0.008400
      8 CAK        -0.0760   -0.8260    2.1090 ca        1 LJ5     -0.030000
      9 CAN        -0.9560    0.1970    1.7030 ca        1 LJ5     -0.109400
     10 NAL        -2.2320    0.3640    2.4000 n4        1 LJ5     -0.539200
     11 CAM        -3.1860   -0.7950    2.0970 c         1 LJ5      0.585700
     12 OAA        -3.0410   -1.7670    2.8230 o         1 LJ5     -0.416100
     13 CAQ        -4.1140   -0.5960    0.9870 ca        1 LJ5     -0.198600
     14 CAH        -4.3790   -1.7030    0.1640 ca        1 LJ5     -0.070500
     15 CAF        -5.2760   -1.5750   -0.8950 ca        1 LJ5     -0.120500
     16 CAE        -5.9180   -0.3580   -1.1280 ca        1 LJ5     -0.054000
     17 CAG        -5.6660    0.7380   -0.2960 ca        1 LJ5     -0.120500
     18 CAI        -4.7670    0.6260    0.7590 ca        1 LJ5     -0.070500
     19 HAJ        -1.2980    1.8590    0.3230 ha        1 LJ5      0.173500
     20 HOAB        2.8570    0.3300   -0.8790 ho        1 LJ5      0.462000
     21 HAK        -0.3610   -1.5080    2.9330 ha        1 LJ5      0.173500
     22 HNAL       -2.6590    1.2510    2.1150 hn        1 LJ5      0.459800
     23 HAH        -3.8840   -2.6690    0.3600 ha        1 LJ5      0.148000
     24 HAF        -5.4820   -2.4440   -1.5430 ha        1 LJ5      0.168500
     25 HAE        -6.6310   -0.2610   -1.9640 ha        1 LJ5      0.169000
     26 HAG        -6.1890    1.6920   -0.4720 ha        1 LJ5      0.168500
     27 HAI        -4.6180    1.4920    1.4220 ha        1 LJ5      0.148000
     28 HAL2       -2.0440    0.3870    3.4110 hn        1 LJ5      0.459800
@<TRIPOS>BOND
     1    1    2 ar  
     2    1    9 ar  
     3    1   19 1   
     4    2    3 1   
     5    2    4 ar  
     6    4    5 1   
     7    4    6 ar  
     8    5   20 1   
     9    6    7 1   
    10    6    8 ar  
    11    8    9 ar  
    12    8   21 1   
    13    9   10 1   
    14   10   11 1   
    15   10   22 1   
    16   10   28 1   
    17   11   12 2   
    18   11   13 1   
    19   13   14 ar  
    20   13   18 ar  
    21   14   15 ar  
    22   14   23 1   
    23   15   16 ar  
    24   15   24 1   
    25   16   17 ar  
    26   16   25 1   
    27   17   18 ar  
    28   17   26 1   
    29   18   27 1   
@<TRIPOS>SUBSTRUCTURE
     1 LJ5         1 TEMP              0 ****  ****    0 ROOT
