@<TRIPOS>MOLECULE
LJ5
   27    28     1     0     0
SMALL
bcc


@<TRIPOS>ATOM
      1 CAJ         0.1860    0.1000   -0.0310 ca        1 LJ5     -0.099000
      2 CAO         1.5690    0.1550    0.1340 ca        1 LJ5     -0.062900
      3 BrAC        2.6310    0.3670   -1.4010 br        1 LJ5     -0.064600
      4 CAR         2.1430    0.0560    1.4160 ca        1 LJ5      0.159100
      5 OAB         3.4940    0.1060    1.6420 oh        1 LJ5     -0.476100
      6 CAP         1.3060   -0.1010    2.5400 ca        1 LJ5     -0.062900
      7 BrAD        1.9740   -0.2390    4.2870 br        1 LJ5     -0.064600
      8 CAK        -0.0740   -0.1610    2.3680 ca        1 LJ5     -0.099000
      9 CAN        -0.6590   -0.0600    1.0850 ca        1 LJ5      0.036600
     10 NAL        -2.0600   -0.0990    0.9830 ns        1 LJ5     -0.469100
     11 CAM        -2.8080   -0.3100   -0.1700 c         1 LJ5      0.681700
     12 OAA        -2.2910   -0.4590   -1.2920 o         1 LJ5     -0.581100
     13 CAQ        -4.2880   -0.3600    0.0170 ca        1 LJ5     -0.149600
     14 CAH        -5.0090   -1.3230   -0.6990 ca        1 LJ5     -0.090500
     15 CAF        -6.3940   -1.3940   -0.5650 ca        1 LJ5     -0.135500
     16 CAE        -7.0630   -0.5020    0.2730 ca        1 LJ5     -0.105000
     17 CAG        -6.3450    0.4670    0.9760 ca        1 LJ5     -0.135500
     18 CAI        -4.9580    0.5400    0.8510 ca        1 LJ5     -0.090500
     19 HAJ        -0.2440    0.1760   -1.0470 ha        1 LJ5      0.170500
     20 HOAB        3.9450    0.2110    0.7870 ho        1 LJ5      0.435000
     21 HAK        -0.7160   -0.2880    3.2560 ha        1 LJ5      0.170500
     22 HNAL       -2.5540   -0.0790    1.8480 hn        1 LJ5      0.321500
     23 HAH        -4.4730   -2.0110   -1.3740 ha        1 LJ5      0.146500
     24 HAF        -6.9600   -2.1530   -1.1260 ha        1 LJ5      0.140000
     25 HAE        -8.1570   -0.5580    0.3770 ha        1 LJ5      0.138000
     26 HAG        -6.8740    1.1780    1.6280 ha        1 LJ5      0.140000
     27 HAI        -4.4060    1.3210    1.3950 ha        1 LJ5      0.146500
@<TRIPOS>BOND
     1    1    2 ar  
     2    1    9 ar  
     3    1   19 1   
     4    2    3 1   
     5    2    4 ar  
     6    4    5 1   
     7    4    6 ar  
     8    5   20 1   
     9    6    7 1   
    10    6    8 ar  
    11    8    9 ar  
    12    8   21 1   
    13    9   10 1   
    14   10   11 1   
    15   10   22 1   
    16   11   12 2   
    17   11   13 1   
    18   13   14 ar  
    19   13   18 ar  
    20   14   15 ar  
    21   14   23 1   
    22   15   16 ar  
    23   15   24 1   
    24   16   17 ar  
    25   16   25 1   
    26   17   18 ar  
    27   17   26 1   
    28   18   27 1   
@<TRIPOS>SUBSTRUCTURE
     1 LJ5         1 TEMP              0 ****  ****    0 ROOT
