@<TRIPOS>MOLECULE
LJ9
   49    53     1     0     0
SMALL
bcc


@<TRIPOS>ATOM
      1 C01         0.1720    0.8240   -0.1590 c3        1 LJ9     -0.091100
      2 C02         1.3680   -0.0810    0.0030 c3        1 LJ9     -0.085700
      3 C03         1.9150   -0.0770    1.3810 cc        1 LJ9      0.368900
      4 N04         2.2000    1.0260    2.1070 nd        1 LJ9     -0.505100
      5 N05         2.7140    0.6350    3.3010 na        1 LJ9      0.142800
      6 C06         2.7620   -0.7750    3.3980 ca        1 LJ9      0.003800
      7 C07         3.2350   -1.6340    4.3930 ca        1 LJ9     -0.214000
      8 C08         3.1730   -3.0220    4.1570 ca        1 LJ9      0.189600
      9 C09         2.6380   -3.5070    2.9230 ca        1 LJ9     -0.210000
     10 C10         2.1900   -2.6490    1.9350 ca        1 LJ9     -0.030000
     11 C11         2.2500   -1.2760    2.1470 ca        1 LJ9     -0.251900
     12 N12         3.5420   -3.9280    5.1650 nh        1 LJ9     -0.642000
     13 C13         3.8730   -5.2990    4.7920 c3        1 LJ9      0.189300
     14 C14         4.8210   -5.8720    5.8570 c3        1 LJ9     -0.101200
     15 C15         4.1620   -6.9210    6.7740 c3        1 LJ9      0.150800
     16 N16         3.9040   -6.3290    8.0840 n3        1 LJ9     -0.790200
     17 C17         4.7110   -5.1170    8.1890 c3        1 LJ9      0.150800
     18 C18         5.1820   -4.6890    6.7850 c3        1 LJ9     -0.101200
     19 C19         4.4330   -3.4700    6.2260 c3        1 LJ9      0.189300
     20 C20         2.9870    1.5510    4.3520 ca        1 LJ9      0.039800
     21 C21         2.6490    1.2330    5.6840 ca        1 LJ9     -0.137500
     22 C22         2.9460    2.1300    6.7060 ca        1 LJ9     -0.118500
     23 C23         3.5610    3.3490    6.4250 ca        1 LJ9     -0.139000
     24 C24         3.8790    3.6750    5.1080 ca        1 LJ9     -0.118500
     25 C25         3.6000    2.7900    4.0690 ca        1 LJ9     -0.137500
     26 H01         0.4510    1.8890    0.0290 hc        1 LJ9      0.040367
     27 H01A       -0.6370    0.5420    0.5570 hc        1 LJ9      0.040367
     28 H01B       -0.2280    0.7400   -1.1980 hc        1 LJ9      0.040367
     29 H02         1.0820   -1.1370   -0.2560 hc        1 LJ9      0.052200
     30 H02A        2.1790    0.2320   -0.7110 hc        1 LJ9      0.052200
     31 H07         3.6390   -1.2230    5.3290 ha        1 LJ9      0.146000
     32 H09         2.5670   -4.5910    2.7480 ha        1 LJ9      0.135000
     33 H10         1.7910   -3.0470    0.9900 ha        1 LJ9      0.136000
     34 H13         2.9140   -5.8840    4.7360 h1        1 LJ9      0.048700
     35 H13A        4.3680   -5.3490    3.7810 h1        1 LJ9      0.048700
     36 H14         5.7260   -6.3030    5.3670 hc        1 LJ9      0.069700
     37 H15         4.8760   -7.7770    6.9290 h1        1 LJ9      0.052700
     38 H15A        3.2230   -7.3340    6.3190 h1        1 LJ9      0.052700
     39 HN16        2.9300   -6.1030    8.1730 hn        1 LJ9      0.351800
     40 H17         4.1480   -4.2940    8.7030 h1        1 LJ9      0.052700
     41 H17A        5.6080   -5.3670    8.8200 h1        1 LJ9      0.052700
     42 H18         6.2800   -4.4900    6.7920 hc        1 LJ9      0.069700
     43 H19         5.1760   -2.7110    5.8490 h1        1 LJ9      0.048700
     44 H19A        3.8040   -2.9730    7.0160 h1        1 LJ9      0.048700
     45 H21         2.1410    0.2850    5.9200 ha        1 LJ9      0.150500
     46 H22         2.6820    1.8730    7.7430 ha        1 LJ9      0.135000
     47 H23         3.7890    4.0530    7.2390 ha        1 LJ9      0.135000
     48 H24         4.3560    4.6400    4.8800 ha        1 LJ9      0.135000
     49 H25         3.8540    3.0660    3.0340 ha        1 LJ9      0.150500
@<TRIPOS>BOND
     1    1    2 1   
     2    1   26 1   
     3    1   27 1   
     4    1   28 1   
     5    2    3 1   
     6    2   29 1   
     7    2   30 1   
     8    3    4 2   
     9    3   11 1   
    10    4    5 1   
    11    5    6 1   
    12    5   20 1   
    13    6    7 ar  
    14    6   11 ar  
    15    7    8 ar  
    16    7   31 1   
    17    8    9 ar  
    18    8   12 1   
    19    9   10 ar  
    20    9   32 1   
    21   10   11 ar  
    22   10   33 1   
    23   12   13 1   
    24   12   19 1   
    25   13   14 1   
    26   13   34 1   
    27   13   35 1   
    28   14   15 1   
    29   14   18 1   
    30   14   36 1   
    31   15   16 1   
    32   15   37 1   
    33   15   38 1   
    34   16   17 1   
    35   16   39 1   
    36   17   18 1   
    37   17   40 1   
    38   17   41 1   
    39   18   19 1   
    40   18   42 1   
    41   19   43 1   
    42   19   44 1   
    43   20   21 ar  
    44   20   25 ar  
    45   21   22 ar  
    46   21   45 1   
    47   22   23 ar  
    48   22   46 1   
    49   23   24 ar  
    50   23   47 1   
    51   24   25 ar  
    52   24   48 1   
    53   25   49 1   
@<TRIPOS>SUBSTRUCTURE
     1 LJ9         1 TEMP              0 ****  ****    0 ROOT
