@<TRIPOS>MOLECULE
LJ9
   49    53     1     0     0
SMALL
bcc


@<TRIPOS>ATOM
      1 C01        -4.7250   -3.5480    0.8480 c3        1 LJ9     -0.091100
      2 C02        -3.6000   -3.4580   -0.1540 c3        1 LJ9     -0.085700
      3 C03        -2.8830   -2.1620   -0.1040 cc        1 LJ9      0.368900
      4 N04        -3.4660   -0.9440   -0.1080 nd        1 LJ9     -0.505100
      5 N05        -2.4900    0.0010   -0.0900 na        1 LJ9      0.142800
      6 C06        -1.2080   -0.5920   -0.0520 ca        1 LJ9      0.003800
      7 C07         0.0800   -0.0500   -0.0610 ca        1 LJ9     -0.214000
      8 C08         1.1750   -0.9380   -0.0560 ca        1 LJ9      0.189600
      9 C09         0.9420   -2.3490   -0.0460 ca        1 LJ9     -0.210000
     10 C10        -0.3370   -2.8770   -0.0560 ca        1 LJ9     -0.030000
     11 C11        -1.4290   -2.0170   -0.0680 ca        1 LJ9     -0.251900
     12 N12         2.4860   -0.4430    0.0360 nh        1 LJ9     -0.642000
     13 C13         3.5920   -1.3020   -0.3750 c3        1 LJ9      0.189300
     14 C14         4.7640   -0.4040   -0.8010 c3        1 LJ9     -0.101200
     15 C15         5.9360   -0.3980    0.2010 c3        1 LJ9      0.150800
     16 N16         5.9350    0.8600    0.9440 n3        1 LJ9     -0.790200
     17 C17         5.0990    1.8070    0.2100 c3        1 LJ9      0.150800
     18 C18         4.2170    1.0420   -0.7960 c3        1 LJ9     -0.101200
     19 C19         2.7450    0.9350   -0.3700 c3        1 LJ9      0.189300
     20 C20        -2.7710    1.3860    0.0530 ca        1 LJ9      0.039800
     21 C21        -1.9870    2.1910    0.9050 ca        1 LJ9     -0.137500
     22 C22        -2.2580    3.5520    1.0150 ca        1 LJ9     -0.118500
     23 C23        -3.3100    4.1260    0.3030 ca        1 LJ9     -0.139000
     24 C24        -4.0990    3.3300   -0.5260 ca        1 LJ9     -0.118500
     25 C25        -3.8410    1.9680   -0.6590 ca        1 LJ9     -0.137500
     26 H01        -5.5110   -2.7840    0.6340 hc        1 LJ9      0.040367
     27 H01A       -5.1930   -4.5620    0.8010 hc        1 LJ9      0.040367
     28 H01B       -4.3450   -3.3800    1.8850 hc        1 LJ9      0.040367
     29 H02        -2.8550   -4.2780    0.0380 hc        1 LJ9      0.052200
     30 H02A       -4.0060   -3.6090   -1.1920 hc        1 LJ9      0.052200
     31 H07         0.2180    1.0400   -0.0700 ha        1 LJ9      0.146000
     32 H09         1.7950   -3.0420   -0.0180 ha        1 LJ9      0.135000
     33 H10        -0.4890   -3.9670   -0.0570 ha        1 LJ9      0.136000
     34 H13         3.8680   -1.9540    0.4990 h1        1 LJ9      0.048700
     35 H13A        3.3030   -1.9750   -1.2310 h1        1 LJ9      0.048700
     36 H14         5.1260   -0.7060   -1.8130 hc        1 LJ9      0.069700
     37 H15         5.8920   -1.2810    0.8920 h1        1 LJ9      0.052700
     38 H15A        6.9070   -0.4510   -0.3650 h1        1 LJ9      0.052700
     39 HN16        5.5630    0.7150    1.8650 hn        1 LJ9      0.351800
     40 H17         4.4820    2.4330    0.9070 h1        1 LJ9      0.052700
     41 H17A        5.7900    2.4940   -0.3520 h1        1 LJ9      0.052700
     42 H18         4.2870    1.5140   -1.8050 hc        1 LJ9      0.069700
     43 H19         2.0810    1.2500   -1.2240 h1        1 LJ9      0.048700
     44 H19A        2.5180    1.6020    0.5070 h1        1 LJ9      0.048700
     45 H21        -1.1680    1.7490    1.4940 ha        1 LJ9      0.150500
     46 H22        -1.6390    4.1740    1.6790 ha        1 LJ9      0.135000
     47 H23        -3.5190    5.2020    0.3980 ha        1 LJ9      0.135000
     48 H24        -4.9360    3.7770   -1.0830 ha        1 LJ9      0.135000
     49 H25        -4.4780    1.3530   -1.3140 ha        1 LJ9      0.150500
@<TRIPOS>BOND
     1    1    2 1   
     2    1   26 1   
     3    1   27 1   
     4    1   28 1   
     5    2    3 1   
     6    2   29 1   
     7    2   30 1   
     8    3    4 2   
     9    3   11 1   
    10    4    5 1   
    11    5    6 1   
    12    5   20 1   
    13    6    7 ar  
    14    6   11 ar  
    15    7    8 ar  
    16    7   31 1   
    17    8    9 ar  
    18    8   12 1   
    19    9   10 ar  
    20    9   32 1   
    21   10   11 ar  
    22   10   33 1   
    23   12   13 1   
    24   12   19 1   
    25   13   14 1   
    26   13   34 1   
    27   13   35 1   
    28   14   15 1   
    29   14   18 1   
    30   14   36 1   
    31   15   16 1   
    32   15   37 1   
    33   15   38 1   
    34   16   17 1   
    35   16   39 1   
    36   17   18 1   
    37   17   40 1   
    38   17   41 1   
    39   18   19 1   
    40   18   42 1   
    41   19   43 1   
    42   19   44 1   
    43   20   21 ar  
    44   20   25 ar  
    45   21   22 ar  
    46   21   45 1   
    47   22   23 ar  
    48   22   46 1   
    49   23   24 ar  
    50   23   47 1   
    51   24   25 ar  
    52   24   48 1   
    53   25   49 1   
@<TRIPOS>SUBSTRUCTURE
     1 LJ9         1 TEMP              0 ****  ****    0 ROOT
