@<TRIPOS>MOLECULE
LJ9
   49    53     1     0     0
SMALL
bcc


@<TRIPOS>ATOM
      1 C01         0.1710    0.8280   -0.1530 c3        1 LJ9     -0.091100
      2 C02         1.3720   -0.0720    0.0050 c3        1 LJ9     -0.085700
      3 C03         1.9180   -0.0700    1.3830 cc        1 LJ9      0.368900
      4 N04         2.2030    1.0310    2.1110 nd        1 LJ9     -0.505100
      5 N05         2.7160    0.6370    3.3050 na        1 LJ9      0.142800
      6 C06         2.7640   -0.7720    3.3990 ca        1 LJ9      0.003800
      7 C07         3.2350   -1.6330    4.3940 ca        1 LJ9     -0.214000
      8 C08         3.1720   -3.0220    4.1550 ca        1 LJ9      0.189600
      9 C09         2.6390   -3.5030    2.9190 ca        1 LJ9     -0.210000
     10 C10         2.1920   -2.6430    1.9330 ca        1 LJ9     -0.030000
     11 C11         2.2520   -1.2710    2.1470 ca        1 LJ9     -0.251900
     12 N12         3.5400   -3.9290    5.1620 nh        1 LJ9     -0.642000
     13 C13         3.8710   -5.3000    4.7860 c3        1 LJ9      0.189300
     14 C14         4.8180   -5.8740    5.8510 c3        1 LJ9     -0.101200
     15 C15         4.1580   -6.9260    6.7640 c3        1 LJ9      0.150800
     16 N16         3.8980   -6.3370    8.0750 n3        1 LJ9     -0.790200
     17 C17         4.7050   -5.1240    8.1850 c3        1 LJ9      0.150800
     18 C18         5.1780   -4.6940    6.7820 c3        1 LJ9     -0.101200
     19 C19         4.4300   -3.4730    6.2250 c3        1 LJ9      0.189300
     20 C20         2.9900    1.5520    4.3570 ca        1 LJ9      0.039800
     21 C21         2.6510    1.2330    5.6890 ca        1 LJ9     -0.137500
     22 C22         2.9500    2.1280    6.7130 ca        1 LJ9     -0.118500
     23 C23         3.5660    3.3460    6.4330 ca        1 LJ9     -0.139000
     24 C24         3.8850    3.6730    5.1160 ca        1 LJ9     -0.118500
     25 C25         3.6050    2.7900    4.0770 ca        1 LJ9     -0.137500
     26 H01        -0.2270    0.7470   -1.1940 hc        1 LJ9      0.040367
     27 H01A       -0.6370    0.5370    0.5600 hc        1 LJ9      0.040367
     28 H01B        0.4440    1.8930    0.0400 hc        1 LJ9      0.040367
     29 H02         1.0930   -1.1270   -0.2600 hc        1 LJ9      0.052200
     30 H02A        2.1820    0.2500   -0.7070 hc        1 LJ9      0.052200
     31 H07         3.6380   -1.2240    5.3300 ha        1 LJ9      0.146000
     32 H09         2.5670   -4.5870    2.7420 ha        1 LJ9      0.135000
     33 H10         1.7940   -3.0400    0.9860 ha        1 LJ9      0.136000
     34 H13         2.9120   -5.8840    4.7280 h1        1 LJ9      0.048700
     35 H13A        4.3670   -5.3470    3.7750 h1        1 LJ9      0.048700
     36 H14         5.7240   -6.3050    5.3610 hc        1 LJ9      0.069700
     37 H15         3.2200   -7.3380    6.3080 h1        1 LJ9      0.052700
     38 H15A        4.8720   -7.7820    6.9190 h1        1 LJ9      0.052700
     39 HN16        2.9240   -6.1110    8.1640 hn        1 LJ9      0.351800
     40 H17         5.6010   -5.3760    8.8160 h1        1 LJ9      0.052700
     41 H17A        4.1410   -4.3020    8.6990 h1        1 LJ9      0.052700
     42 H18         6.2760   -4.4950    6.7920 hc        1 LJ9      0.069700
     43 H19         3.8010   -2.9780    7.0150 h1        1 LJ9      0.048700
     44 H19A        5.1740   -2.7140    5.8490 h1        1 LJ9      0.048700
     45 H21         2.1420    0.2850    5.9240 ha        1 LJ9      0.150500
     46 H22         2.6860    1.8690    7.7490 ha        1 LJ9      0.135000
     47 H23         3.7950    4.0480    7.2480 ha        1 LJ9      0.135000
     48 H24         4.3640    4.6380    4.8900 ha        1 LJ9      0.135000
     49 H25         3.8590    3.0670    3.0420 ha        1 LJ9      0.150500
@<TRIPOS>BOND
     1    1    2 1   
     2    1   26 1   
     3    1   27 1   
     4    1   28 1   
     5    2    3 1   
     6    2   29 1   
     7    2   30 1   
     8    3    4 2   
     9    3   11 1   
    10    4    5 1   
    11    5    6 1   
    12    5   20 1   
    13    6    7 ar  
    14    6   11 ar  
    15    7    8 ar  
    16    7   31 1   
    17    8    9 ar  
    18    8   12 1   
    19    9   10 ar  
    20    9   32 1   
    21   10   11 ar  
    22   10   33 1   
    23   12   13 1   
    24   12   19 1   
    25   13   14 1   
    26   13   34 1   
    27   13   35 1   
    28   14   15 1   
    29   14   18 1   
    30   14   36 1   
    31   15   16 1   
    32   15   37 1   
    33   15   38 1   
    34   16   17 1   
    35   16   39 1   
    36   17   18 1   
    37   17   40 1   
    38   17   41 1   
    39   18   19 1   
    40   18   42 1   
    41   19   43 1   
    42   19   44 1   
    43   20   21 ar  
    44   20   25 ar  
    45   21   22 ar  
    46   21   45 1   
    47   22   23 ar  
    48   22   46 1   
    49   23   24 ar  
    50   23   47 1   
    51   24   25 ar  
    52   24   48 1   
    53   25   49 1   
@<TRIPOS>SUBSTRUCTURE
     1 LJ9         1 TEMP              0 ****  ****    0 ROOT
