@<TRIPOS>MOLECULE
LJ9
   49    53     1     0     0
SMALL
bcc


@<TRIPOS>ATOM
      1 C01         0.1640    0.8310   -0.1480 c3        1 LJ9     -0.091100
      2 C02         1.3640   -0.0700    0.0090 c3        1 LJ9     -0.085700
      3 C03         1.9120   -0.0690    1.3860 cc        1 LJ9      0.368900
      4 N04         2.1960    1.0320    2.1150 nd        1 LJ9     -0.505100
      5 N05         2.7110    0.6380    3.3080 na        1 LJ9      0.142800
      6 C06         2.7610   -0.7720    3.4010 ca        1 LJ9      0.003800
      7 C07         3.2350   -1.6330    4.3940 ca        1 LJ9     -0.214000
      8 C08         3.1740   -3.0210    4.1540 ca        1 LJ9      0.189600
      9 C09         2.6400   -3.5030    2.9180 ca        1 LJ9     -0.210000
     10 C10         2.1900   -2.6420    1.9330 ca        1 LJ9     -0.030000
     11 C11         2.2480   -1.2700    2.1490 ca        1 LJ9     -0.251900
     12 N12         3.5440   -3.9290    5.1590 nh        1 LJ9     -0.642000
     13 C13         3.8770   -5.2990    4.7810 c3        1 LJ9      0.189300
     14 C14         4.8260   -5.8740    5.8440 c3        1 LJ9     -0.101200
     15 C15         4.1690   -6.9270    6.7580 c3        1 LJ9      0.150800
     16 N16         3.9100   -6.3390    8.0700 n7        1 LJ9     -0.790200
     17 C17         4.7160   -5.1260    8.1790 c3        1 LJ9      0.150800
     18 C18         5.1860   -4.6930    6.7760 c3        1 LJ9     -0.101200
     19 C19         4.4350   -3.4730    6.2210 c3        1 LJ9      0.189300
     20 C20         2.9840    1.5510    4.3620 ca        1 LJ9      0.039800
     21 C21         2.6470    1.2300    5.6930 ca        1 LJ9     -0.137500
     22 C22         2.9440    2.1240    6.7180 ca        1 LJ9     -0.118500
     23 C23         3.5570    3.3440    6.4400 ca        1 LJ9     -0.139000
     24 C24         3.8740    3.6740    5.1230 ca        1 LJ9     -0.118500
     25 C25         3.5960    2.7920    4.0820 ca        1 LJ9     -0.137500
     26 H01        -0.6430    0.5410    0.5670 hc        1 LJ9      0.040367
     27 H01A       -0.2360    0.7500   -1.1880 hc        1 LJ9      0.040367
     28 H01B        0.4380    1.8960    0.0450 hc        1 LJ9      0.040367
     29 H02         1.0830   -1.1250   -0.2550 hc        1 LJ9      0.052200
     30 H02A        2.1730    0.2510   -0.7040 hc        1 LJ9      0.052200
     31 H07         3.6390   -1.2250    5.3300 ha        1 LJ9      0.146000
     32 H09         2.5700   -4.5860    2.7400 ha        1 LJ9      0.135000
     33 H10         1.7910   -3.0380    0.9870 ha        1 LJ9      0.136000
     34 H13         2.9180   -5.8850    4.7240 h1        1 LJ9      0.048700
     35 H13A        4.3720   -5.3450    3.7700 h1        1 LJ9      0.048700
     36 H14         5.7320   -6.3030    5.3530 hc        1 LJ9      0.069700
     37 H15         3.2310   -7.3400    6.3020 h1        1 LJ9      0.052700
     38 H15A        4.8840   -7.7820    6.9100 h1        1 LJ9      0.052700
     39 HN16        2.9360   -6.1150    8.1600 hn        1 LJ9      0.351800
     40 H17         5.6140   -5.3770    8.8090 h1        1 LJ9      0.052700
     41 H17A        4.1520   -4.3050    8.6950 h1        1 LJ9      0.052700
     42 H18         6.2840   -4.4930    6.7840 hc        1 LJ9      0.069700
     43 H19         5.1780   -2.7130    5.8460 h1        1 LJ9      0.048700
     44 H19A        3.8070   -2.9800    7.0120 h1        1 LJ9      0.048700
     45 H21         2.1400    0.2810    5.9270 ha        1 LJ9      0.150500
     46 H22         2.6810    1.8640    7.7540 ha        1 LJ9      0.135000
     47 H23         3.7850    4.0460    7.2550 ha        1 LJ9      0.135000
     48 H24         4.3510    4.6400    4.8980 ha        1 LJ9      0.135000
     49 H25         3.8490    3.0700    3.0470 ha        1 LJ9      0.150500
@<TRIPOS>BOND
     1    1    2 1   
     2    1   26 1   
     3    1   27 1   
     4    1   28 1   
     5    2    3 1   
     6    2   29 1   
     7    2   30 1   
     8    3    4 2   
     9    3   11 1   
    10    4    5 1   
    11    5    6 1   
    12    5   20 1   
    13    6    7 ar  
    14    6   11 ar  
    15    7    8 ar  
    16    7   31 1   
    17    8    9 ar  
    18    8   12 1   
    19    9   10 ar  
    20    9   32 1   
    21   10   11 ar  
    22   10   33 1   
    23   12   13 1   
    24   12   19 1   
    25   13   14 1   
    26   13   34 1   
    27   13   35 1   
    28   14   15 1   
    29   14   18 1   
    30   14   36 1   
    31   15   16 1   
    32   15   37 1   
    33   15   38 1   
    34   16   17 1   
    35   16   39 1   
    36   17   18 1   
    37   17   40 1   
    38   17   41 1   
    39   18   19 1   
    40   18   42 1   
    41   19   43 1   
    42   19   44 1   
    43   20   21 ar  
    44   20   25 ar  
    45   21   22 ar  
    46   21   45 1   
    47   22   23 ar  
    48   22   46 1   
    49   23   24 ar  
    50   23   47 1   
    51   24   25 ar  
    52   24   48 1   
    53   25   49 1   
@<TRIPOS>SUBSTRUCTURE
     1 LJ9         1 TEMP              0 ****  ****    0 ROOT
