@<TRIPOS>MOLECULE
LJE
   50    41     1     0     0
SMALL
bcc


@<TRIPOS>ATOM
      1 C1          3.6330   -0.1050   -5.9580 c1        1 LJE     -0.116500
      2 F1          2.4270    3.7410   -7.4360 f         1 LJE     -0.162333
      3 N1         -2.4790   -0.5150    5.8620 n1        1 LJE     -0.170000
      4 O1         -1.3350   -0.1970    2.6780 os        1 LJE     -0.155000
      5 C2          3.9150    1.1000   -6.5860 c1        1 LJE     -0.116500
      6 F2          3.9720    4.5770   -6.1370 f         1 LJE     -0.162333
      7 N2         -3.8790    1.2320    6.6130 n1        1 LJE     -0.177500
      8 O2          1.4710    2.1180   -2.3190 o         1 LJE     -0.333000
      9 C3          3.5400    2.2960   -5.9910 c1        1 LJE     -0.168000
     10 F3          4.5350    3.3170   -7.8320 f         1 LJE     -0.162333
     11 N3         -1.7550   -2.4390    1.9190 n1        1 LJE     -0.177500
     12 C4          2.8850    2.2870   -4.7700 c1        1 LJE     -0.032000
     13 N4          1.5540   -0.1680   -2.1650 n         1 LJE     -0.321000
     14 C5          2.6020    1.0820   -4.1420 c1        1 LJE     -0.132000
     15 C6          2.9770   -0.1140   -4.7360 c1        1 LJE     -0.078000
     16 C7          3.6210    3.5180   -6.8740 c3        1 LJE      0.468000
     17 C8          1.8450    1.0720   -2.8120 c2        1 LJE      0.353000
     18 C9         -3.1870   -0.5970    4.7260 c1        1 LJE      0.068000
     19 C10        -2.8190    0.4010    6.8140 c1        1 LJE     -0.030000
     20 C11        -4.5900    1.1520    5.4770 c1        1 LJE     -0.116500
     21 C12        -4.2500    0.2360    4.5240 c1        1 LJE     -0.116500
     22 C13        -3.2640   -3.8500    3.1060 c1        1 LJE     -0.116500
     23 C14        -3.5410   -2.8330    3.9760 c1        1 LJE     -0.116500
     24 C15        -2.9310   -1.6220    3.8240 c1        1 LJE     -0.113000
     25 C16        -2.0300   -1.4240    2.7850 c1        1 LJE      0.145000
     26 C17        -2.3650   -3.6500    2.0700 c1        1 LJE     -0.030000
     27 C18        -0.6060   -0.1690    1.4570 c2        1 LJE      0.023000
     28 C19         0.7810   -0.2540    1.4740 c2        1 LJE     -0.029000
     29 C20         1.4920   -0.2590    0.2790 c1        1 LJE     -0.181000
     30 C21         0.8170   -0.1790   -0.9300 c1        1 LJE      0.079000
     31 C22        -0.5690   -0.0950   -0.9470 c1        1 LJE     -0.149000
     32 C23        -1.2800   -0.0900    0.2480 c1        1 LJE     -0.090000
     33 C24         1.5220   -0.2240    2.7930 c3        1 LJE     -0.181000
     34 H1          3.8970   -0.9470   -6.3760 ha        1 LJE      0.158833
     35 H2          4.3780    1.1060   -7.4480 ha        1 LJE      0.158833
     36 H4          2.6210    3.1280   -4.3530 ha        1 LJE      0.174000
     37 HN4         1.8600   -0.9510   -2.5200 hn        1 LJE      0.233000
     38 H6          2.7790   -0.9590   -4.2960 ha        1 LJE      0.146000
     39 H10        -2.3030    0.4600    7.6410 ha        1 LJE      0.178000
     40 H11        -5.3510    1.7490    5.3330 ha        1 LJE      0.158833
     41 H12        -4.7680    0.1770    3.6960 ha        1 LJE      0.158833
     42 H13        -3.7000   -4.7170    3.2140 ha        1 LJE      0.158833
     43 H14        -4.1750   -2.9730    4.7060 ha        1 LJE      0.158833
     44 H17        -2.1670   -4.3760    1.4490 ha        1 LJE      0.178000
     45 H20         2.4670   -0.3180    0.2910 ha        1 LJE      0.133000
     46 H22        -1.0430   -0.0390   -1.7970 ha        1 LJE      0.176000
     47 H23        -2.2540   -0.0310    0.2360 ha        1 LJE      0.151000
     48 H24         1.0830    0.4080    3.4010 hc        1 LJE      0.091667
     49 H24A        2.4490    0.0590    2.6410 hc        1 LJE      0.091667
     50 H24B        1.5150   -1.1190    3.1920 hc        1 LJE      0.091667
@<TRIPOS>BOND
     1    1    5 1   
     2    1   34 1   
     3    2   16 1   
     4    3   18 1   
     5    4   25 1   
     6    4   27 1   
     7    5   35 1   
     8    6   16 1   
     9    7   19 1   
    10    8   17 1   
    11    9   12 1   
    12    9   16 1   
    13   10   16 1   
    14   11   26 1   
    15   12   36 1   
    16   13   17 1   
    17   13   30 1   
    18   13   37 1   
    19   14   15 1   
    20   14   17 1   
    21   15   38 1   
    22   19   39 1   
    23   20   21 1   
    24   20   40 1   
    25   21   41 1   
    26   22   23 1   
    27   22   42 1   
    28   23   43 1   
    29   24   25 1   
    30   26   44 1   
    31   27   28 1   
    32   27   32 1   
    33   28   29 1   
    34   28   33 1   
    35   29   45 1   
    36   30   31 1   
    37   31   46 1   
    38   32   47 1   
    39   33   48 1   
    40   33   49 1   
    41   33   50 1   
@<TRIPOS>SUBSTRUCTURE
     1 LJE         1 TEMP              0 ****  ****    0 ROOT
