@<TRIPOS>MOLECULE
LJE
   50    53     1     0     0
SMALL
bcc


@<TRIPOS>ATOM
      1 C1         -5.9500   -2.5230   -0.5360 ca        1 LJE     -0.140000
      2 F1         -9.0000    0.3720   -0.0630 f         1 LJE     -0.233967
      3 N1          5.9440   -0.7440    1.5590 nb        1 LJE     -0.668000
      4 O1          3.5950   -0.1020   -0.1830 os        1 LJE     -0.351400
      5 C2         -6.9600   -1.5640   -0.5960 ca        1 LJE     -0.062000
      6 F2         -7.5530    1.9340    0.3510 f         1 LJE     -0.233967
      7 N2          7.7800   -2.2840    1.1150 nb        1 LJE     -0.692000
      8 O2         -2.7540    0.4630    1.2480 o         1 LJE     -0.572100
      9 C3         -6.6540   -0.2220   -0.3550 ca        1 LJE     -0.175300
     10 F3         -7.9510    1.3390   -1.6950 f         1 LJE     -0.233967
     11 N3          3.4260    2.2640   -0.4670 nb        1 LJE     -0.711000
     12 C4         -5.3480    0.1670   -0.0560 ca        1 LJE     -0.032000
     13 N4         -1.9370   -0.8980   -0.4440 n         1 LJE     -0.466100
     14 C5         -4.3370   -0.8000   -0.0140 ca        1 LJE     -0.151600
     15 C6         -4.6380   -2.1440   -0.2480 ca        1 LJE     -0.078000
     16 C7         -7.7570    0.8270   -0.4340 c3        1 LJE      0.689200
     17 C8         -2.9510   -0.3510    0.3290 c         1 LJE      0.678700
     18 C9          6.3150   -0.0060    0.4770 cp        1 LJE      0.508800
     19 C10         6.6980   -1.8430    1.8140 ca        1 LJE      0.629900
     20 C11         8.1320   -1.5320    0.0520 ca        1 LJE      0.424200
     21 C12         7.4290   -0.3690   -0.3160 ca        1 LJE     -0.356600
     22 C13         5.4480    3.5860   -0.2340 ca        1 LJE     -0.284300
     23 C14         6.1890    2.4470    0.0790 ca        1 LJE     -0.049000
     24 C15         5.5550    1.2010    0.1270 cp        1 LJE     -0.287800
     25 C16         4.1620    1.1620   -0.1660 ca        1 LJE      0.655600
     26 C17         4.0740    3.4420   -0.4900 ca        1 LJE      0.441200
     27 C18         2.2010   -0.1910   -0.2690 ca        1 LJE      0.076100
     28 C19         1.6580   -0.8950   -1.3570 ca        1 LJE     -0.041300
     29 C20         0.2810   -1.1100   -1.3870 ca        1 LJE     -0.179000
     30 C21        -0.5600   -0.6270   -0.3550 ca        1 LJE      0.066600
     31 C22         0.0160    0.0840    0.7190 ca        1 LJE     -0.146000
     32 C23         1.3890    0.2990    0.7560 ca        1 LJE     -0.094000
     33 H1         -6.1890   -3.5820   -0.7140 ha        1 LJE      0.149000
     34 H2         -7.9980   -1.8580   -0.8220 ha        1 LJE      0.156000
     35 H4         -5.1110    1.2220    0.1630 ha        1 LJE      0.174000
     36 HN4        -2.2120   -1.4740   -1.2090 hn        1 LJE      0.318500
     37 H6         -3.8520   -2.9130   -0.1890 ha        1 LJE      0.146000
     38 H10         6.3960   -2.4490    2.6940 h5        1 LJE      0.057100
     39 H11         9.0090   -1.8760   -0.5240 h4        1 LJE      0.029100
     40 H12         7.7250    0.2280   -1.1850 ha        1 LJE      0.155000
     41 H13         5.9210    4.5750   -0.2740 ha        1 LJE      0.150000
     42 H14         7.2660    2.5200    0.2960 ha        1 LJE      0.146000
     43 H17         3.4440    4.3180   -0.7320 h4        1 LJE      0.029100
     44 H20        -0.1430   -1.6650   -2.2390 ha        1 LJE      0.132000
     45 H22        -0.6100    0.4790    1.5360 ha        1 LJE      0.176000
     46 H23         1.8380    0.8590    1.5910 ha        1 LJE      0.154000
     47 H24         2.9250   -2.4250   -2.1460 hc        1 LJE      0.049700
     48 H24A        1.9530   -1.5310   -3.3930 hc        1 LJE      0.049700
     49 H24B        3.3900   -0.7380   -2.6120 hc        1 LJE      0.049700
     50 C24         2.5220   -1.4220   -2.4380 c3        1 LJE     -0.050800
@<TRIPOS>BOND
     1    1    5 ar  
     2    1   15 ar  
     3    1   33 1   
     4    2   16 1   
     5    3   18 ar  
     6    3   19 ar  
     7    4   25 1   
     8    4   27 1   
     9    5    9 ar  
    10    5   34 1   
    11    6   16 1   
    12    7   19 ar  
    13    7   20 ar  
    14    8   17 2   
    15    9   12 ar  
    16    9   16 1   
    17   10   16 1   
    18   11   25 ar  
    19   11   26 ar  
    20   12   14 ar  
    21   12   35 1   
    22   13   17 1   
    23   13   30 1   
    24   13   36 1   
    25   14   15 ar  
    26   14   17 1   
    27   15   37 1   
    28   18   21 ar  
    29   18   24 1   
    30   19   38 1   
    31   20   21 ar  
    32   20   39 1   
    33   21   40 1   
    34   22   23 ar  
    35   22   26 ar  
    36   22   41 1   
    37   23   24 ar  
    38   23   42 1   
    39   24   25 ar  
    40   26   43 1   
    41   27   28 ar  
    42   27   32 ar  
    43   28   29 ar  
    44   28   50 1   
    45   29   30 ar  
    46   29   44 1   
    47   30   31 ar  
    48   31   32 ar  
    49   31   45 1   
    50   32   46 1   
    51   47   50 1   
    52   48   50 1   
    53   49   50 1   
@<TRIPOS>SUBSTRUCTURE
     1 LJE         1 TEMP              0 ****  ****    0 ROOT
