@<TRIPOS>MOLECULE
LJE
   50    50     1     0     0
SMALL
bcc


@<TRIPOS>ATOM
      1 C1          2.3220    1.4020    1.7700 c2        1 LJE     -0.072000
      2 F1          2.9450   -1.5680   -1.3400 f         1 LJE     -0.159667
      3 N1         -8.1320    0.9850   10.3860 n2        1 LJE     -0.204000
      4 O1         -5.3700   -0.4520    8.4400 os        1 LJE     -0.141000
      5 C2          1.9210    0.7140    0.7370 c1        1 LJE     -0.164000
      6 F2          2.0960   -2.1910    0.5580 f         1 LJE     -0.159667
      7 N2         -8.7310    3.2240    9.4920 n2        1 LJE     -0.247000
      8 O2         -0.5980    1.9230    4.8330 o         1 LJE     -0.324000
      9 C3          1.4650    0.0340   -0.2760 c2        1 LJE     -0.114000
     10 F3          0.8470   -2.1100   -1.2160 f         1 LJE     -0.159667
     11 N3         -3.7610   -0.9840   10.0450 n2        1 LJE     -0.144000
     12 C4         -0.2060    0.1700    1.7730 c1        1 LJE      0.237000
     13 N4         -1.5930   -0.0990    4.2990 ns        1 LJE     -0.321000
     14 C5          0.1880    0.7930    2.8820 c2        1 LJE     -0.449000
     15 C6          1.5190    1.4640    3.0200 c3        1 LJE     -0.058000
     16 C7          1.8310   -1.4250   -0.5480 c3        1 LJE      0.457000
     17 C8         -0.6850    0.9380    4.0820 c2        1 LJE      0.388000
     18 C9         -6.8360    0.9900   10.4100 c2        1 LJE      0.199000
     19 C10        -8.9200    2.1400   10.1520 c2        1 LJE     -0.005000
     20 C11        -5.2250    3.0390   10.1070 c1        1 LJE     -0.096000
     21 C12        -5.9760    2.1160   10.2440 c1        1 LJE     -0.225000
     22 C13        -2.8080   -1.3470   12.3740 c1        1 LJE     -0.240000
     23 C14        -6.4510   -1.1150   11.6570 c2        1 LJE     -0.121000
     24 C15        -6.1090   -0.2830   10.6670 c2        1 LJE     -0.091000
     25 C16        -4.9700   -0.5820    9.7630 c2        1 LJE      0.208000
     26 C17        -3.3270   -1.1580   11.3060 c1        1 LJE     -0.085000
     27 C18        -4.3640   -0.3680    7.4650 c2        1 LJE     -0.078000
     28 C19        -4.2790   -1.3870    6.5320 c2        1 LJE      0.094000
     29 C20        -3.3410   -1.2660    5.4600 c2        1 LJE     -0.276000
     30 C21        -2.5040   -0.1740    5.3510 c2        1 LJE      0.100000
     31 C22        -2.5830    0.9260    6.3700 c3        1 LJE     -0.180000
     32 C23        -3.5590    0.7850    7.4320 c1        1 LJE     -0.103000
     33 H1          1.3500    2.5400    3.3110 hc        1 LJE      0.132000
     34 H2          3.2670    1.9730    1.7650 ha        1 LJE      0.171000
     35 H4          0.7990    0.4670   -1.0420 ha        1 LJE      0.185000
     36 HN4        -1.5710   -0.8730    3.6680 hn        1 LJE      0.242000
     37 H6          2.0960    0.9780    3.8560 hc        1 LJE      0.132000
     38 H10        -9.9260    2.0020   10.6180 h5        1 LJE      0.173000
     39 H11        -7.8400    3.3600    9.0590 hn        1 LJE      0.148000
     40 H12        -4.5510    3.8480    9.9740 ha        1 LJE      0.233000
     41 H13        -7.2970   -0.9090   12.3280 ha        1 LJE      0.136500
     42 H14        -2.3410   -1.5150   13.3080 ha        1 LJE      0.230000
     43 H17        -5.9010   -2.0470   11.8540 ha        1 LJE      0.136500
     44 H20        -3.3130   -2.0900    4.7300 ha        1 LJE      0.139000
     45 H22        -2.7780    1.9150    5.8520 hc        1 LJE      0.185000
     46 H23        -1.5700    1.0570    6.8670 hc        1 LJE      0.185000
     47 H24        -4.5110   -3.5150    6.4460 hc        1 LJE      0.104333
     48 H24A       -5.8750   -2.5550    5.7300 hc        1 LJE      0.104333
     49 H24B       -5.6940   -2.6590    7.5340 hc        1 LJE      0.104333
     50 C24        -5.1330   -2.5940    6.5680 c3        1 LJE     -0.207000
@<TRIPOS>BOND
     1    1    5 1   
     2    1   15 1   
     3    1   34 1   
     4    2   16 1   
     5    3   18 1   
     6    3   19 1   
     7    4   25 1   
     8    4   27 1   
     9    5    9 1   
    10    6   16 1   
    11    7   19 1   
    12    7   39 1   
    13    8   17 1   
    14    9   16 1   
    15    9   35 1   
    16   10   16 1   
    17   11   25 1   
    18   11   26 1   
    19   12   14 1   
    20   13   17 1   
    21   13   30 1   
    22   13   36 1   
    23   14   15 1   
    24   14   17 1   
    25   15   33 1   
    26   15   37 1   
    27   18   21 1   
    28   18   24 1   
    29   19   38 1   
    30   20   21 1   
    31   20   40 1   
    32   22   26 1   
    33   22   42 1   
    34   23   24 1   
    35   23   41 1   
    36   23   43 1   
    37   24   25 1   
    38   27   28 1   
    39   27   32 1   
    40   28   29 1   
    41   28   50 1   
    42   29   30 1   
    43   29   44 1   
    44   30   31 1   
    45   31   32 1   
    46   31   45 1   
    47   31   46 1   
    48   47   50 1   
    49   48   50 1   
    50   49   50 1   
@<TRIPOS>SUBSTRUCTURE
     1 LJE         1 TEMP              0 ****  ****    0 ROOT
