@<TRIPOS>MOLECULE
LJE
   50    50     1     0     0
SMALL
bcc


@<TRIPOS>ATOM
      1 C1          3.0920    0.0260    1.8470 c2        1 LJE     -0.073000
      2 F1          2.2900   -1.8720   -1.9790 f         1 LJE     -0.160000
      3 N1         -7.6280   -0.4230   10.1770 n2        1 LJE     -0.190000
      4 O1         -4.9800    1.2680    8.1950 os        1 LJE     -0.144000
      5 C2          2.4900   -0.0270    0.6900 c1        1 LJE     -0.164000
      6 F2          1.0370   -2.3640   -0.2750 f         1 LJE     -0.160000
      7 N2         -9.1010   -1.6810   11.7310 n2        1 LJE     -0.243000
      8 O2          0.6480    1.3330    5.0880 o         1 LJE     -0.323000
      9 C3          1.8470   -0.0480   -0.4420 c2        1 LJE     -0.115000
     10 F3          0.2470   -1.1460   -1.8900 f         1 LJE     -0.160000
     11 N3         -4.4620   -0.7220    9.3060 n2        1 LJE     -0.144000
     12 C4          0.3230    0.4850    1.6620 c1        1 LJE      0.236000
     13 N4         -1.2340    0.4070    4.1050 n         1 LJE     -0.321000
     14 C5          0.8770    0.4730    2.8730 c2        1 LJE     -0.449000
     15 C6          2.3300    0.2110    3.1110 c3        1 LJE     -0.058000
     16 C7          1.3660   -1.3320   -1.1170 c3        1 LJE      0.457000
     17 C8          0.1110    0.7800    4.1150 c2        1 LJE      0.387000
     18 C9         -6.9690    0.3950   10.9370 c2        1 LJE      0.179000
     19 C10        -8.7530   -1.1690   10.6060 c2        1 LJE     -0.004000
     20 C11        -7.4860    0.9690   13.4480 c1        1 LJE     -0.133000
     21 C12        -7.2580    0.7060   12.3020 c1        1 LJE     -0.209000
     22 C13        -4.4150   -2.3910   11.2240 c1        1 LJE     -0.244000
     23 C14        -5.4680    2.3630   10.7940 c2        1 LJE     -0.108000
     24 C15        -5.8070    1.1360   10.3820 c2        1 LJE     -0.098000
     25 C16        -5.0310    0.4500    9.3170 c2        1 LJE      0.216000
     26 C17        -4.4810   -1.5570   10.3600 c1        1 LJE     -0.075000
     27 C18        -4.0060    0.9780    7.2280 c2        1 LJE     -0.086000
     28 C19        -4.3920    0.3170    6.0730 c2        1 LJE      0.106000
     29 C20        -3.4360    0.1460    5.0240 c2        1 LJE     -0.278000
     30 C21        -2.1360    0.5910    5.1510 c2        1 LJE      0.102000
     31 C22        -1.7050    1.2720    6.4180 c3        1 LJE     -0.179000
     32 C23        -2.7020    1.4470    7.4560 c1        1 LJE     -0.109000
     33 H1          2.7610    1.0770    3.6900 hc        1 LJE      0.132000
     34 H2          4.1880   -0.0580    1.9420 ha        1 LJE      0.170000
     35 H4          1.6220    0.8630   -1.0240 ha        1 LJE      0.185000
     36 HN4        -1.5750   -0.0710    3.2960 hn        1 LJE      0.242000
     37 H6          2.4440   -0.7090    3.7500 hc        1 LJE      0.132000
     38 H10        -9.4170   -1.3730    9.7310 h5        1 LJE      0.178000
     39 H11        -8.5110   -1.5180   12.5210 hn        1 LJE      0.144000
     40 H12        -7.6900    1.1990   14.4640 ha        1 LJE      0.233000
     41 H13        -6.0140    2.8880   11.5900 ha        1 LJE      0.140000
     42 H14        -4.3490   -3.1340   11.9730 ha        1 LJE      0.229000
     43 H17        -4.6200    2.9040   10.3460 ha        1 LJE      0.140000
     44 H20        -3.7840   -0.3660    4.1120 ha        1 LJE      0.139000
     45 H22        -1.2740    2.2930    6.1790 hc        1 LJE      0.184500
     46 H23        -0.8410    0.6980    6.8810 hc        1 LJE      0.184500
     47 H24        -5.7370   -1.1800    5.3210 hc        1 LJE      0.107333
     48 H24A       -6.3470    0.5300    5.2530 hc        1 LJE      0.107333
     49 H24B       -6.2830   -0.3430    6.8430 hc        1 LJE      0.107333
     50 C24        -5.7600   -0.2030    5.8630 c3        1 LJE     -0.210000
@<TRIPOS>BOND
     1    1    5 1   
     2    1   15 1   
     3    1   34 1   
     4    2   16 1   
     5    3   18 1   
     6    3   19 1   
     7    4   25 1   
     8    4   27 1   
     9    5    9 1   
    10    6   16 1   
    11    7   19 1   
    12    7   39 1   
    13    8   17 1   
    14    9   16 1   
    15    9   35 1   
    16   10   16 1   
    17   11   25 1   
    18   11   26 1   
    19   12   14 1   
    20   13   17 1   
    21   13   30 1   
    22   13   36 1   
    23   14   15 1   
    24   14   17 1   
    25   15   33 1   
    26   15   37 1   
    27   18   21 1   
    28   18   24 1   
    29   19   38 1   
    30   20   21 1   
    31   20   40 1   
    32   22   26 1   
    33   22   42 1   
    34   23   24 1   
    35   23   41 1   
    36   23   43 1   
    37   24   25 1   
    38   27   28 1   
    39   27   32 1   
    40   28   29 1   
    41   28   50 1   
    42   29   30 1   
    43   29   44 1   
    44   30   31 1   
    45   31   32 1   
    46   31   45 1   
    47   31   46 1   
    48   47   50 1   
    49   48   50 1   
    50   49   50 1   
@<TRIPOS>SUBSTRUCTURE
     1 LJE         1 TEMP              0 ****  ****    0 ROOT
