@<TRIPOS>MOLECULE
LJE
   50    50     1     0     0
SMALL
bcc


@<TRIPOS>ATOM
      1 C1          0.2760   -1.3230    4.7030 c2        1 LJE     -0.054000
      2 F1          4.3190   -3.4620    3.2710 f         1 LJE     -0.156333
      3 N1         -6.1660   -0.6550   10.1040 n2        1 LJE     -0.187000
      4 O1         -3.5880    1.0810    7.9840 os        1 LJE     -0.140000
      5 C2          1.2580   -1.9970    3.9630 c1        1 LJE      0.013000
      6 F2          2.7760   -4.5990    2.2530 f         1 LJE     -0.156333
      7 N2         -7.8190   -2.1630   11.1820 n2        1 LJE     -0.242000
      8 O2         -1.0880    2.6580    2.0880 o         1 LJE     -0.316000
      9 C3          2.0990   -2.5900    3.3510 c1        1 LJE     -0.268000
     10 F3          3.4790   -2.7260    1.4110 f         1 LJE     -0.156333
     11 N3         -5.0330   -0.4900    7.0210 n2        1 LJE     -0.146000
     12 C4          0.5640    0.6850    1.9610 cu        1 LJE     -0.160000
     13 N4         -3.4840    4.3140    3.4380 n3        1 LJE     -0.342000
     14 C5         -0.0970    0.5270    3.1360 cu        1 LJE     -0.116000
     15 C6         -0.3390   -0.1820    4.3370 c2        1 LJE     -0.084000
     16 C7          3.1260   -3.3160    2.6030 c3        1 LJE      0.565000
     17 C8         -0.4320    1.6530    2.3030 cu        1 LJE      0.270000
     18 C9         -5.0660   -1.3390   10.0730 c2        1 LJE      0.177000
     19 C10        -7.3120   -1.0320   10.8490 c2        1 LJE     -0.004000
     20 C11        -4.5670   -3.5760   11.3550 c1        1 LJE     -0.133000
     21 C12        -4.8000   -2.5540   10.7770 c1        1 LJE     -0.209000
     22 C13        -6.3140   -2.6780    6.8300 c1        1 LJE     -0.251000
     23 C14        -2.6490   -1.0070    9.6530 c2        1 LJE     -0.116000
     24 C15        -3.9200   -0.8460    9.2660 c2        1 LJE     -0.094000
     25 C16        -4.2540   -0.1350    8.0050 c2        1 LJE      0.208000
     26 C17        -5.6850   -1.6660    6.9910 c1        1 LJE     -0.076000
     27 C18        -3.5970    1.8150    6.7870 c2        1 LJE     -0.122000
     28 C19        -4.5370    2.8560    6.6690 c2        1 LJE      0.153000
     29 C20        -4.4950    3.7060    5.5500 c2        1 LJE     -0.346000
     30 C21        -3.5550    3.5170    4.5290 c2        1 LJE      0.164000
     31 C22        -2.5760    2.3770    4.6410 c3        1 LJE     -0.172000
     32 C23        -2.6480    1.5350    5.8250 c1        1 LJE     -0.206000
     33 H1         -1.1160    0.2690    5.0190 ha        1 LJE      0.235000
     34 H2          0.0090   -1.8030    5.6660 ha        1 LJE      0.165000
     35 H4          1.3060    0.3350    1.2680 ha        1 LJE      0.201000
     36 HN4        -2.8080    4.1240    2.7320 hn        1 LJE      0.244000
     37 H6         -4.1170    5.0640    3.3120 hn        1 LJE      0.244000
     38 H10        -7.8860   -0.1160   11.1340 h5        1 LJE      0.178000
     39 H11        -7.3240   -2.9910   10.9230 hn        1 LJE      0.144000
     40 H12        -4.3640   -4.4830   11.8700 ha        1 LJE      0.233000
     41 H13        -2.3770   -1.5380   10.5760 ha        1 LJE      0.136000
     42 H14        -6.8750   -3.5610    6.6730 ha        1 LJE      0.228000
     43 H17        -1.8140   -0.6030    9.0610 ha        1 LJE      0.136000
     44 H20        -5.2280    4.5240    5.4850 ha        1 LJE      0.137000
     45 H22        -1.5230    2.7860    4.5740 hc        1 LJE      0.157000
     46 H23        -2.7060    1.7000    3.7440 hc        1 LJE      0.157000
     47 H24        -6.1690    2.1410    7.8380 hc        1 LJE      0.108333
     48 H24A       -6.2430    3.9230    7.4640 hc        1 LJE      0.108333
     49 H24B       -5.0590    3.2860    8.6920 hc        1 LJE      0.108333
     50 C24        -5.5610    3.0750    7.7130 c3        1 LJE     -0.216000
@<TRIPOS>BOND
     1    1    5 1   
     2    1   15 1   
     3    1   34 1   
     4    2   16 1   
     5    3   18 1   
     6    3   19 1   
     7    4   25 1   
     8    4   27 1   
     9    5    9 1   
    10    6   16 1   
    11    7   19 1   
    12    7   39 1   
    13    8   17 1   
    14    9   16 1   
    15   10   16 1   
    16   11   25 1   
    17   11   26 1   
    18   12   14 1   
    19   12   17 1   
    20   12   35 1   
    21   13   30 1   
    22   13   36 1   
    23   13   37 1   
    24   14   15 1   
    25   14   17 1   
    26   15   33 1   
    27   18   21 1   
    28   18   24 1   
    29   19   38 1   
    30   20   21 1   
    31   20   40 1   
    32   22   26 1   
    33   22   42 1   
    34   23   24 1   
    35   23   41 1   
    36   23   43 1   
    37   24   25 1   
    38   27   28 1   
    39   27   32 1   
    40   28   29 1   
    41   28   50 1   
    42   29   30 1   
    43   29   44 1   
    44   30   31 1   
    45   31   32 1   
    46   31   45 1   
    47   31   46 1   
    48   47   50 1   
    49   48   50 1   
    50   49   50 1   
@<TRIPOS>SUBSTRUCTURE
     1 LJE         1 TEMP              0 ****  ****    0 ROOT
