@<TRIPOS>MOLECULE
LJF
   59    63     1     0     0
SMALL
bcc


@<TRIPOS>ATOM
      1 C10        -5.7690   -4.3240   -0.1620 c2        1 LJF      0.481100
      2 N4         -6.8390   -3.6380   -0.2960 ne        1 LJF     -0.613700
      3 C1         -6.7820   -2.2490   -0.6620 ca        1 LJF      0.807000
      4 N1         -6.0820   -1.3890    0.1600 nb        1 LJF     -0.679000
      5 N2         -7.5110   -1.8650   -1.7750 nb        1 LJF     -0.652000
      6 C4         -7.5550   -0.5540   -2.0330 ca        1 LJF      0.408200
      7 C3         -6.8910    0.4140   -1.2330 ca        1 LJF     -0.116700
      8 F1         -6.9770    1.7240   -1.5350 f         1 LJF     -0.117900
      9 C2         -6.1360   -0.0690   -0.1230 cp        1 LJF      0.503800
     10 C5         -5.3970    0.8690    0.7330 cp        1 LJF     -0.291800
     11 C6         -6.0700    1.8570    1.4590 ca        1 LJF     -0.036000
     12 C7         -5.3480    2.7160    2.2870 ca        1 LJF     -0.284300
     13 C8         -3.9540    2.5540    2.3670 ca        1 LJF      0.444200
     14 N3         -3.2650    1.6250    1.6820 nb        1 LJF     -0.714000
     15 C9         -3.9810    0.8000    0.8740 ca        1 LJF      0.661600
     16 O1         -3.3560   -0.1590    0.0930 os        1 LJF     -0.357400
     17 C11        -1.9740   -0.3210    0.2340 ca        1 LJF      0.070100
     18 C16        -1.4190   -0.8220    1.4160 ca        1 LJF     -0.097500
     19 C15        -0.0600   -1.0990    1.4640 ca        1 LJF     -0.162000
     20 C12        -1.1810   -0.0870   -0.8930 ca        1 LJF     -0.097500
     21 C13         0.1790   -0.3750   -0.8500 ca        1 LJF     -0.162000
     22 C14         0.7650   -0.8830    0.3300 ca        1 LJF      0.069600
     23 N5          2.1280   -1.2040    0.4330 n         1 LJF     -0.464100
     24 C17         3.1380   -0.9080   -0.4730 c         1 LJF      0.694700
     25 O2          2.9320   -0.3040   -1.5440 o         1 LJF     -0.608100
     26 C18         4.5020   -1.3710   -0.0810 ca        1 LJF     -0.219600
     27 C23         4.6870   -2.6970    0.3180 ca        1 LJF     -0.070000
     28 C22         5.9480   -3.1710    0.6580 ca        1 LJF     -0.181000
     29 C21         7.0450   -2.3100    0.5900 ca        1 LJF     -0.070000
     30 C20         6.8890   -0.9920    0.1890 ca        1 LJF     -0.200000
     31 C19         5.6110   -0.4810   -0.1530 ca        1 LJF      0.226600
     32 N6          5.4050    0.8490   -0.5130 nh        1 LJF     -0.639000
     33 C24         6.4350    1.8080   -0.5650 ca        1 LJF      0.138600
     34 C25         6.5750    2.6280   -1.7080 ca        1 LJF     -0.160500
     35 C26         7.5320    3.6370   -1.7330 ca        1 LJF     -0.108500
     36 C27         8.3700    3.8490   -0.6390 ca        1 LJF     -0.148000
     37 C28         8.2380    3.0470    0.4930 ca        1 LJF     -0.108500
     38 C29         7.2810    2.0380    0.5420 ca        1 LJF     -0.160500
     39 H10        -4.7280   -3.9820   -0.3150 h4        1 LJF      0.002300
     40 H10A       -5.8950   -5.3810    0.1410 h4        1 LJF      0.002300
     41 H4         -8.1390   -0.2430   -2.9200 h4        1 LJF      0.045100
     42 H6         -7.1630    1.9510    1.3680 ha        1 LJF      0.150000
     43 H7         -5.8520    3.5000    2.8660 ha        1 LJF      0.151000
     44 H8         -3.3400    3.2070    3.0160 h4        1 LJF      0.029100
     45 H16        -2.0540   -0.9830    2.2990 ha        1 LJF      0.150500
     46 H15         0.3690   -1.4890    2.4000 ha        1 LJF      0.154500
     47 H12        -1.6350    0.3130   -1.8120 ha        1 LJF      0.150500
     48 H13         0.7910   -0.1910   -1.7490 ha        1 LJF      0.154500
     49 HN5         2.4080   -1.6200    1.2940 hn        1 LJF      0.322500
     50 H23         3.8250   -3.3830    0.3470 ha        1 LJF      0.136000
     51 H22         6.0820   -4.2170    0.9690 ha        1 LJF      0.139000
     52 H21         8.0490   -2.6820    0.8490 ha        1 LJF      0.136000
     53 H20         7.7760   -0.3420    0.1170 ha        1 LJF      0.150000
     54 HN6         4.6460    1.0090   -1.1490 hn        1 LJF      0.455800
     55 H25         5.9230    2.4790   -2.5820 ha        1 LJF      0.141000
     56 H26         7.6280    4.2700   -2.6290 ha        1 LJF      0.133500
     57 H27         9.1270    4.6450   -0.6690 ha        1 LJF      0.134000
     58 H28         8.8910    3.2140    1.3630 ha        1 LJF      0.133500
     59 H29         7.1790    1.4280    1.4530 ha        1 LJF      0.141000
@<TRIPOS>BOND
     1    1    2 2   
     2    1   39 1   
     3    1   40 1   
     4    2    3 1   
     5    3    4 ar  
     6    3    5 ar  
     7    4    9 ar  
     8    5    6 ar  
     9    6    7 ar  
    10    6   41 1   
    11    7    8 1   
    12    7    9 ar  
    13    9   10 1   
    14   10   11 ar  
    15   10   15 ar  
    16   11   12 ar  
    17   11   42 1   
    18   12   13 ar  
    19   12   43 1   
    20   13   14 ar  
    21   13   44 1   
    22   14   15 ar  
    23   15   16 1   
    24   16   17 1   
    25   17   18 ar  
    26   17   20 ar  
    27   18   19 ar  
    28   18   45 1   
    29   19   22 ar  
    30   19   46 1   
    31   20   21 ar  
    32   20   47 1   
    33   21   22 ar  
    34   21   48 1   
    35   22   23 1   
    36   23   24 1   
    37   23   49 1   
    38   24   25 2   
    39   24   26 1   
    40   26   27 ar  
    41   26   31 ar  
    42   27   28 ar  
    43   27   50 1   
    44   28   29 ar  
    45   28   51 1   
    46   29   30 ar  
    47   29   52 1   
    48   30   31 ar  
    49   30   53 1   
    50   31   32 1   
    51   32   33 1   
    52   32   54 1   
    53   33   34 ar  
    54   33   38 ar  
    55   34   35 ar  
    56   34   55 1   
    57   35   36 ar  
    58   35   56 1   
    59   36   37 ar  
    60   36   57 1   
    61   37   38 ar  
    62   37   58 1   
    63   38   59 1   
@<TRIPOS>SUBSTRUCTURE
     1 LJF         1 TEMP              0 ****  ****    0 ROOT
