@<TRIPOS>MOLECULE
LJF
   59    63     1     0     0
SMALL
bcc


@<TRIPOS>ATOM
      1 C10         0.7480    0.3250   -1.0240 c2        1 LJF      0.481100
      2 N4          0.4280   -0.2610    0.0660 ne        1 LJF     -0.613700
      3 C1          1.2050   -0.0690    1.2600 ca        1 LJF      0.807000
      4 N1          2.5440   -0.4030    1.2250 nb        1 LJF     -0.679000
      5 N2          0.5240    0.3620    2.3870 nb        1 LJF     -0.652000
      6 C4          1.2280    0.4160    3.5220 ca        1 LJF      0.408200
      7 C3          2.6030    0.0670    3.5950 ca        1 LJF     -0.116700
      8 F1          3.2610    0.1320    4.7690 f         1 LJF     -0.117900
      9 C2          3.2370   -0.3350    2.3830 cp        1 LJF      0.503800
     10 C5          4.6650   -0.6820    2.3730 cp        1 LJF     -0.291800
     11 C6          5.1450   -1.7570    3.1280 ca        1 LJF     -0.036000
     12 C7          6.5000   -2.0830    3.0790 ca        1 LJF     -0.284300
     13 C8          7.3450   -1.3130    2.2600 ca        1 LJF      0.444200
     14 N3          6.9290   -0.2670    1.5260 nb        1 LJF     -0.714000
     15 C9          5.6070    0.0430    1.5890 ca        1 LJF      0.661600
     16 O1          5.0920    1.1320    0.9040 os        1 LJF     -0.357400
     17 C11         5.9530    1.8450    0.0630 ca        1 LJF      0.070100
     18 C16         6.4710    1.2700   -1.1010 ca        1 LJF     -0.097500
     19 C15         7.2060    2.0560   -1.9790 ca        1 LJF     -0.162000
     20 C12         6.1730    3.1920    0.3630 ca        1 LJF     -0.097500
     21 C13         6.9000    3.9830   -0.5210 ca        1 LJF     -0.162000
     22 C14         7.4320    3.4290   -1.7050 ca        1 LJF      0.069600
     23 N5          8.1640    4.1770   -2.6410 n         1 LJF     -0.464100
     24 C17         8.6590    5.4660   -2.4940 c         1 LJF      0.694700
     25 O2          8.4850    6.1450   -1.4610 o         1 LJF     -0.608100
     26 C18         9.4160    5.9980   -3.6650 ca        1 LJF     -0.219600
     27 C23         8.8470    5.9230   -4.9400 ca        1 LJF     -0.070000
     28 C22         9.5090    6.4360   -6.0480 ca        1 LJF     -0.181000
     29 C21        10.7560    7.0430   -5.8810 ca        1 LJF     -0.070000
     30 C20        11.3370    7.1380   -4.6270 ca        1 LJF     -0.200000
     31 C19        10.6870    6.6120   -3.4810 ca        1 LJF      0.226600
     32 N6         11.2590    6.6420   -2.2110 nh        1 LJF     -0.639000
     33 C24        12.5320    7.1840   -1.9460 ca        1 LJF      0.138600
     34 C25        12.6980    8.0980   -0.8800 ca        1 LJF     -0.160500
     35 C26        13.9650    8.5720   -0.5540 ca        1 LJF     -0.108500
     36 C27        15.0840    8.1590   -1.2750 ca        1 LJF     -0.148000
     37 C28        14.9310    7.2560   -2.3260 ca        1 LJF     -0.108500
     38 C29        13.6740    6.7640   -2.6630 ca        1 LJF     -0.160500
     39 H10         1.5880    1.0260   -1.1890 h4        1 LJF      0.002300
     40 H10A        0.1120    0.1110   -1.9050 h4        1 LJF      0.002300
     41 H4          0.6860    0.7550    4.4240 h4        1 LJF      0.045100
     42 H6          4.4510   -2.3350    3.7570 ha        1 LJF      0.150000
     43 H7          6.9020   -2.9210    3.6620 ha        1 LJF      0.151000
     44 H8          8.4250   -1.5390    2.1830 h4        1 LJF      0.029100
     45 H16         6.3040    0.2030   -1.3120 ha        1 LJF      0.150500
     46 H15         7.6120    1.5930   -2.8910 ha        1 LJF      0.154500
     47 H12         5.7630    3.6260    1.2870 ha        1 LJF      0.150500
     48 H13         7.0610    5.0470   -0.2750 ha        1 LJF      0.154500
     49 HN5         8.4240    3.6910   -3.4720 hn        1 LJF      0.322500
     50 H23         7.8520    5.4670   -5.0660 ha        1 LJF      0.136000
     51 H22         9.0520    6.3730   -7.0450 ha        1 LJF      0.139000
     52 H21        11.2810    7.4610   -6.7540 ha        1 LJF      0.136000
     53 H20        12.3090    7.6460   -4.5200 ha        1 LJF      0.150000
     54 HN6        10.6110    6.6940   -1.4480 hn        1 LJF      0.455800
     55 H25        11.8270    8.4370   -0.2970 ha        1 LJF      0.141000
     56 H26        14.0790    9.2810    0.2800 ha        1 LJF      0.133500
     57 H27        16.0820    8.5410   -1.0140 ha        1 LJF      0.134000
     58 H28        15.8120    6.9200   -2.8930 ha        1 LJF      0.133500
     59 H29        13.5760    6.0360   -3.4830 ha        1 LJF      0.141000
@<TRIPOS>BOND
     1    1    2 2   
     2    1   39 1   
     3    1   40 1   
     4    2    3 1   
     5    3    4 ar  
     6    3    5 ar  
     7    4    9 ar  
     8    5    6 ar  
     9    6    7 ar  
    10    6   41 1   
    11    7    8 1   
    12    7    9 ar  
    13    9   10 1   
    14   10   11 ar  
    15   10   15 ar  
    16   11   12 ar  
    17   11   42 1   
    18   12   13 ar  
    19   12   43 1   
    20   13   14 ar  
    21   13   44 1   
    22   14   15 ar  
    23   15   16 1   
    24   16   17 1   
    25   17   18 ar  
    26   17   20 ar  
    27   18   19 ar  
    28   18   45 1   
    29   19   22 ar  
    30   19   46 1   
    31   20   21 ar  
    32   20   47 1   
    33   21   22 ar  
    34   21   48 1   
    35   22   23 1   
    36   23   24 1   
    37   23   49 1   
    38   24   25 2   
    39   24   26 1   
    40   26   27 ar  
    41   26   31 ar  
    42   27   28 ar  
    43   27   50 1   
    44   28   29 ar  
    45   28   51 1   
    46   29   30 ar  
    47   29   52 1   
    48   30   31 ar  
    49   30   53 1   
    50   31   32 1   
    51   32   33 1   
    52   32   54 1   
    53   33   34 ar  
    54   33   38 ar  
    55   34   35 ar  
    56   34   55 1   
    57   35   36 ar  
    58   35   56 1   
    59   36   37 ar  
    60   36   57 1   
    61   37   38 ar  
    62   37   58 1   
    63   38   59 1   
@<TRIPOS>SUBSTRUCTURE
     1 LJF         1 TEMP              0 ****  ****    0 ROOT
