@<TRIPOS>MOLECULE
LJF
   59    49     1     0     0
SMALL
bcc


@<TRIPOS>ATOM
      1 C10        -3.7340   -3.7560    8.6310 c1        1 LJF     -0.045000
      2 N4         -3.2010   -3.0590    7.6460 n1        1 LJF     -0.143500
      3 C1         -3.0400   -3.6550    6.3490 c1        1 LJF      0.057000
      4 N1         -3.2200   -2.8990    5.2210 n2        1 LJF     -0.127000
      5 N2         -2.6550   -4.9550    6.2440 n1        1 LJF     -0.168000
      6 C4         -2.4480   -5.5020    5.0330 c1        1 LJF     -0.056000
      7 C3         -2.6260   -4.7510    3.9030 c1        1 LJF     -0.001000
      8 F1         -2.5000   -5.3180    2.6960 f         1 LJF     -0.078000
      9 C2         -3.0150   -3.4420    4.0080 c1        1 LJF      0.062000
     10 C5         -3.1870   -2.6750    2.8660 c1        1 LJF     -0.120000
     11 C6         -4.3930   -2.6700    2.2220 c1        1 LJF     -0.128500
     12 C7         -4.5580   -1.9230    1.0960 c1        1 LJF     -0.128500
     13 C8         -3.5060   -1.1680    0.6040 c1        1 LJF     -0.045000
     14 N3         -2.3000   -1.1730    1.2480 n1        1 LJF     -0.143500
     15 C9         -2.1320   -1.9160    2.3710 c1        1 LJF      0.159000
     16 O1         -0.8850   -1.8310    3.1190 os        1 LJF     -0.148000
     17 C11         0.0480   -0.9850    2.4120 c2        1 LJF      0.023000
     18 C16         0.9350   -1.5410    1.4890 c2        1 LJF     -0.096000
     19 C15         1.7970   -0.7130    0.7640 c1        1 LJF     -0.180000
     20 C12         0.0250    0.3890    2.6090 c1        1 LJF     -0.089000
     21 C13         0.8840    1.2120    1.8870 c1        1 LJF     -0.149000
     22 C14         1.7710    0.6580    0.9630 c1        1 LJF      0.078000
     23 N5          2.6250    1.5180    0.1800 n         1 LJF     -0.320000
     24 C17         2.2810    1.8180   -1.2280 c2        1 LJF      0.362000
     25 O2          1.2680    1.3320   -1.7300 o         1 LJF     -0.364000
     26 C18         3.1340    2.8250   -2.0350 c2        1 LJF     -0.204000
     27 C23         3.9350    3.7340   -1.3720 c2        1 LJF     -0.070000
     28 C22         4.8160    4.5420   -2.0920 c1        1 LJF     -0.182000
     29 C21         4.8890    4.4320   -3.4840 c1        1 LJF     -0.128500
     30 C20         4.0850    3.5190   -4.1520 c1        1 LJF     -0.128500
     31 C19         3.2070    2.7140   -3.4400 c1        1 LJF      0.144000
     32 N6          2.5280    1.6330   -4.1080 n3        1 LJF     -0.265000
     33 C24         1.5290    1.9150   -5.0670 c2        1 LJF      0.051000
     34 C25         0.5690    0.9580   -5.3720 c2        1 LJF     -0.144000
     35 C26        -0.3870    1.2200   -6.3420 c1        1 LJF     -0.113000
     36 C27        -0.3850    2.4330   -7.0070 c1        1 LJF     -0.128500
     37 C28         0.5750    3.3910   -6.7030 c1        1 LJF     -0.128500
     38 C29         1.5310    3.1310   -5.7340 c1        1 LJF     -0.163000
     39 H10        -4.0220   -4.6820    8.4780 DU        1 LJF      0.111000
     40 H10A       -3.8440   -3.3480    9.5190 ha        1 LJF      0.156500
     41 H4         -2.1710   -6.4370    4.9610 ha        1 LJF      0.180000
     42 H6         -5.1220   -3.1940    2.5630 ha        1 LJF      0.143000
     43 H7         -5.4300   -1.9190    0.6300 ha        1 LJF      0.143000
     44 H8         -3.6240   -0.6420   -0.1900 ha        1 LJF      0.156500
     45 H16         0.9530   -2.5030    1.3500 ha        1 LJF      0.151000
     46 H15         2.4180   -1.1010    0.1170 ha        1 LJF      0.133000
     47 H12        -0.6040    0.7850    3.2650 ha        1 LJF      0.153000
     48 H13         0.8660    2.1730    2.0270 ha        1 LJF      0.177000
     49 HN5         3.3600    1.9020    0.5620 hn        1 LJF      0.235000
     50 H23         3.8850    3.8120   -0.4020 ha        1 LJF      0.136000
     51 H22         5.3830    5.1850   -1.6220 ha        1 LJF      0.138000
     52 H21         5.5110    5.0020   -3.9890 ha        1 LJF      0.143000
     53 H20         4.1370    3.4410   -5.1360 ha        1 LJF      0.143000
     54 HN6         2.8150    0.7710   -3.9890 hn        1 LJF      0.246000
     55 H25         0.5670    0.1000   -4.9010 ha        1 LJF      0.141000
     56 H26        -1.0660    0.5440   -6.5570 ha        1 LJF      0.134000
     57 H27        -1.0600    2.6170   -7.6910 ha        1 LJF      0.143000
     58 H28         0.5760    4.2480   -7.1720 ha        1 LJF      0.143000
     59 H29         2.2120    3.8110   -5.5180 ha        1 LJF      0.144000
@<TRIPOS>BOND
     1    1    2 1   
     2    1   40 1   
     3    3    4 1   
     4    3    5 1   
     5    4    9 1   
     6    6    7 1   
     7    6   41 1   
     8    7    9 1   
     9   10   15 1   
    10   11   12 1   
    11   11   42 1   
    12   12   43 1   
    13   13   14 1   
    14   13   44 1   
    15   15   16 1   
    16   16   17 1   
    17   17   18 1   
    18   17   20 1   
    19   18   19 1   
    20   18   45 1   
    21   19   46 1   
    22   20   47 1   
    23   21   22 1   
    24   21   48 1   
    25   22   23 1   
    26   23   24 1   
    27   23   49 1   
    28   24   25 1   
    29   24   26 1   
    30   26   27 1   
    31   26   31 1   
    32   27   28 1   
    33   27   50 1   
    34   28   51 1   
    35   29   30 1   
    36   29   52 1   
    37   30   53 1   
    38   31   32 1   
    39   32   33 1   
    40   32   54 1   
    41   33   34 1   
    42   33   38 1   
    43   34   35 1   
    44   34   55 1   
    45   35   56 1   
    46   36   37 1   
    47   36   57 1   
    48   37   58 1   
    49   38   59 1   
@<TRIPOS>SUBSTRUCTURE
     1 LJF         1 TEMP              0 ****  ****    0 ROOT
