@<TRIPOS>MOLECULE
LJF
   61    65     1     0     0
SMALL
bcc


@<TRIPOS>ATOM
      1 C10         0.8700    2.1450    0.1760 c2        1 LJF      0.500100
      2 N4          2.1140    2.0360    0.4600 ne        1 LJF     -0.648700
      3 C1          2.5960    0.9190    1.2280 ca        1 LJF      0.812000
      4 N1          3.7900    0.3700    0.8260 nb        1 LJF     -0.675000
      5 N2          1.8820    0.5180    2.3510 nb        1 LJF     -0.678000
      6 C4          2.4050   -0.4580    3.0900 ca        1 LJF      0.432200
      7 C3          3.6410   -1.0890    2.7570 ca        1 LJF     -0.091700
      8 F1          4.1330   -2.0730    3.5310 f         1 LJF     -0.102900
      9 C2          4.3080   -0.6250    1.5920 cp        1 LJF      0.459800
     10 C5          5.5850   -1.2150    1.1670 cp        1 LJF     -0.225800
     11 C6          5.7500   -2.6070    1.0620 ca        1 LJF     -0.051000
     12 C7          6.9600   -3.1200    0.6000 ca        1 LJF     -0.221300
     13 C8          7.9860   -2.2240    0.2360 ca        1 LJF      0.426200
     14 N3          7.8760   -0.8880    0.3360 nb        1 LJF     -0.692000
     15 C9          6.6980   -0.4170    0.8170 ca        1 LJF      0.583600
     16 O1          6.6360    0.9530    1.1390 os        1 LJF     -0.319400
     17 C11         6.7530    1.8630    0.1290 ca        1 LJF      0.249100
     18 C16         6.7250    1.5610   -1.2460 ca        1 LJF     -0.144500
     19 C15         6.8200    2.5820   -2.1780 ca        1 LJF     -0.065000
     20 C12         6.8650    3.2060    0.5670 ca        1 LJF     -0.144500
     21 C13         6.9530    4.2250   -0.3620 ca        1 LJF     -0.065000
     22 C14         6.9460    3.9160   -1.7390 ca        1 LJF     -0.161400
     23 N5          6.9840    5.0020   -2.7230 n4        1 LJF     -0.507200
     24 C17         8.1840    5.8930   -2.5490 c         1 LJF      0.573700
     25 O2          7.9650    6.9230   -1.9080 o         1 LJF     -0.476100
     26 C18         9.4660    5.5020   -3.1530 ca        1 LJF     -0.169600
     27 C23         9.7240    4.1560   -3.4460 ca        1 LJF     -0.060000
     28 C22        10.9390    3.7520   -4.0040 ca        1 LJF     -0.084000
     29 C21        11.9250    4.6950   -4.2790 ca        1 LJF     -0.033000
     30 C20        11.7020    6.0430   -3.9810 ca        1 LJF     -0.097000
     31 C19        10.4880    6.4580   -3.4140 ca        1 LJF      0.037600
     32 N6         10.3410    7.8930   -3.1180 n4        1 LJF     -0.512800
     33 C24        11.2630    8.3620   -2.0680 ca        1 LJF     -0.071400
     34 C25        10.8850    8.2520   -0.7180 ca        1 LJF     -0.101000
     35 C26        11.7460    8.7350    0.2640 ca        1 LJF     -0.096000
     36 C27        12.9660    9.3180   -0.0870 ca        1 LJF     -0.056000
     37 C28        13.3310    9.4250   -1.4310 ca        1 LJF     -0.096000
     38 C29        12.4890    8.9480   -2.4330 ca        1 LJF     -0.101000
     39 H10         0.0530    1.4440    0.4330 h4        1 LJF      0.011300
     40 H10A        0.5710    3.0480   -0.3930 h4        1 LJF      0.011300
     41 H4          1.8370   -0.7760    3.9860 h4        1 LJF      0.065100
     42 H6          4.9240   -3.2780    1.3520 ha        1 LJF      0.174000
     43 H7          7.1180   -4.2050    0.5160 ha        1 LJF      0.175000
     44 H8          8.9550   -2.5940   -0.1500 h4        1 LJF      0.045100
     45 H16         6.6010    0.5180   -1.5850 ha        1 LJF      0.192000
     46 H15         6.7710    2.3310   -3.2500 ha        1 LJF      0.154000
     47 H12         6.8610    3.4210    1.6490 ha        1 LJF      0.192000
     48 H13         7.0220    5.2700   -0.0150 ha        1 LJF      0.154000
     49 HN5         6.1330    5.5750   -2.5900 hn        1 LJF      0.474300
     50 H23         8.9820    3.3710   -3.2090 ha        1 LJF      0.173000
     51 H22        11.1160    2.6820   -4.2190 ha        1 LJF      0.196000
     52 H21        12.8900    4.3870   -4.7230 ha        1 LJF      0.199000
     53 H20        12.5090    6.7730   -4.1850 ha        1 LJF      0.183000
     54 HN6         9.3810    8.1150   -2.8160 hn        1 LJF      0.471800
     55 H25         9.9190    7.8050   -0.4280 ha        1 LJF      0.155000
     56 H26        11.4560    8.6590    1.3270 ha        1 LJF      0.180500
     57 H27        13.6410    9.7010    0.7000 ha        1 LJF      0.183000
     58 H28        14.2920    9.8940   -1.7080 ha        1 LJF      0.180500
     59 H29        12.7900    9.0530   -3.4880 ha        1 LJF      0.155000
     60 H52         6.9780    4.6030   -3.6700 hn        1 LJF      0.474300
     61 H62        10.5420    8.4180   -3.9830 hn        1 LJF      0.471800
@<TRIPOS>BOND
     1    1    2 2   
     2    1   39 1   
     3    1   40 1   
     4    2    3 1   
     5    3    4 ar  
     6    3    5 ar  
     7    4    9 ar  
     8    5    6 ar  
     9    6    7 ar  
    10    6   41 1   
    11    7    8 1   
    12    7    9 ar  
    13    9   10 1   
    14   10   11 ar  
    15   10   15 ar  
    16   11   12 ar  
    17   11   42 1   
    18   12   13 ar  
    19   12   43 1   
    20   13   14 ar  
    21   13   44 1   
    22   14   15 ar  
    23   15   16 1   
    24   16   17 1   
    25   17   18 ar  
    26   17   20 ar  
    27   18   19 ar  
    28   18   45 1   
    29   19   22 ar  
    30   19   46 1   
    31   20   21 ar  
    32   20   47 1   
    33   21   22 ar  
    34   21   48 1   
    35   22   23 1   
    36   23   24 1   
    37   23   49 1   
    38   23   60 1   
    39   24   25 2   
    40   24   26 1   
    41   26   27 ar  
    42   26   31 ar  
    43   27   28 ar  
    44   27   50 1   
    45   28   29 ar  
    46   28   51 1   
    47   29   30 ar  
    48   29   52 1   
    49   30   31 ar  
    50   30   53 1   
    51   31   32 1   
    52   32   33 1   
    53   32   54 1   
    54   32   61 1   
    55   33   34 ar  
    56   33   38 ar  
    57   34   35 ar  
    58   34   55 1   
    59   35   36 ar  
    60   35   56 1   
    61   36   37 ar  
    62   36   57 1   
    63   37   38 ar  
    64   37   58 1   
    65   38   59 1   
@<TRIPOS>SUBSTRUCTURE
     1 LJF         1 TEMP              0 ****  ****    0 ROOT
