@<TRIPOS>MOLECULE
LJF
   59    63     1     0     0
SMALL
bcc


@<TRIPOS>ATOM
      1 C10         0.7450    0.3320   -1.0200 c2        1 LJF      0.481100
      2 N4          0.4260   -0.2550    0.0690 ne        1 LJF     -0.613700
      3 C1          1.2040   -0.0650    1.2630 ca        1 LJF      0.807000
      4 N1          2.5420   -0.4000    1.2260 nb        1 LJF     -0.679000
      5 N2          0.5250    0.3650    2.3910 nb        1 LJF     -0.652000
      6 C4          1.2300    0.4170    3.5250 ca        1 LJF      0.408200
      7 C3          2.6050    0.0670    3.5970 ca        1 LJF     -0.116700
      8 F1          3.2640    0.1300    4.7700 f         1 LJF     -0.117900
      9 C2          3.2370   -0.3350    2.3840 cp        1 LJF      0.503800
     10 C5          4.6640   -0.6830    2.3720 cp        1 LJF     -0.291800
     11 C6          5.1430   -1.7600    3.1260 ca        1 LJF     -0.036000
     12 C7          6.4980   -2.0870    3.0750 ca        1 LJF     -0.284300
     13 C8          7.3430   -1.3180    2.2560 ca        1 LJF      0.444200
     14 N3          6.9280   -0.2710    1.5230 nb        1 LJF     -0.714000
     15 C9          5.6070    0.0400    1.5870 ca        1 LJF      0.661600
     16 O1          5.0930    1.1300    0.9030 os        1 LJF     -0.357400
     17 C11         5.9540    1.8430    0.0620 ca        1 LJF      0.070100
     18 C16         6.4710    1.2680   -1.1020 ca        1 LJF     -0.097500
     19 C15         7.2070    2.0540   -1.9790 ca        1 LJF     -0.162000
     20 C12         6.1740    3.1900    0.3620 ca        1 LJF     -0.097500
     21 C13         6.9020    3.9810   -0.5210 ca        1 LJF     -0.162000
     22 C14         7.4340    3.4270   -1.7060 ca        1 LJF      0.069600
     23 N5          8.1660    4.1750   -2.6410 ns        1 LJF     -0.464100
     24 C17         8.6600    5.4640   -2.4940 c         1 LJF      0.694700
     25 O2          8.4850    6.1430   -1.4620 o         1 LJF     -0.608100
     26 C18         9.4180    5.9950   -3.6650 ca        1 LJF     -0.219600
     27 C23         8.8500    5.9190   -4.9400 ca        1 LJF     -0.070000
     28 C22         9.5110    6.4320   -6.0490 ca        1 LJF     -0.181000
     29 C21        10.7580    7.0400   -5.8820 ca        1 LJF     -0.070000
     30 C20        11.3390    7.1360   -4.6270 ca        1 LJF     -0.200000
     31 C19        10.6880    6.6110   -3.4810 ca        1 LJF      0.226600
     32 N6         11.2600    6.6420   -2.2110 nu        1 LJF     -0.639000
     33 C24        12.5320    7.1870   -1.9460 ca        1 LJF      0.138600
     34 C25        12.6960    8.1030   -0.8810 ca        1 LJF     -0.160500
     35 C26        13.9620    8.5780   -0.5550 ca        1 LJF     -0.108500
     36 C27        15.0820    8.1650   -1.2740 ca        1 LJF     -0.148000
     37 C28        14.9310    7.2610   -2.3240 ca        1 LJF     -0.108500
     38 C29        13.6750    6.7670   -2.6610 ca        1 LJF     -0.160500
     39 H10         1.5860    1.0320   -1.1850 h4        1 LJF      0.002300
     40 H10A        0.1080    0.1200   -1.9010 h4        1 LJF      0.002300
     41 H4          0.6890    0.7570    4.4280 h4        1 LJF      0.045100
     42 H6          4.4490   -2.3370    3.7560 ha        1 LJF      0.150000
     43 H7          6.8990   -2.9260    3.6580 ha        1 LJF      0.151000
     44 H8          8.4220   -1.5450    2.1790 h4        1 LJF      0.029100
     45 H16         6.3040    0.2020   -1.3130 ha        1 LJF      0.150500
     46 H15         7.6130    1.5910   -2.8920 ha        1 LJF      0.154500
     47 H12         5.7640    3.6230    1.2860 ha        1 LJF      0.150500
     48 H13         7.0630    5.0440   -0.2750 ha        1 LJF      0.154500
     49 HN5         8.4270    3.6880   -3.4710 hn        1 LJF      0.322500
     50 H23         7.8550    5.4620   -5.0670 ha        1 LJF      0.136000
     51 H22         9.0550    6.3680   -7.0460 ha        1 LJF      0.139000
     52 H21        11.2830    7.4580   -6.7550 ha        1 LJF      0.136000
     53 H20        12.3090    7.6450   -4.5200 ha        1 LJF      0.150000
     54 HN6        10.6110    6.6940   -1.4480 hn        1 LJF      0.455800
     55 H25        11.8240    8.4400   -0.2990 ha        1 LJF      0.141000
     56 H26        14.0750    9.2880    0.2780 ha        1 LJF      0.133500
     57 H27        16.0790    8.5490   -1.0140 ha        1 LJF      0.134000
     58 H28        15.8130    6.9250   -2.8910 ha        1 LJF      0.133500
     59 H29        13.5780    6.0380   -3.4800 ha        1 LJF      0.141000
@<TRIPOS>BOND
     1    1    2 2   
     2    1   39 1   
     3    1   40 1   
     4    2    3 1   
     5    3    4 ar  
     6    3    5 ar  
     7    4    9 ar  
     8    5    6 ar  
     9    6    7 ar  
    10    6   41 1   
    11    7    8 1   
    12    7    9 ar  
    13    9   10 1   
    14   10   11 ar  
    15   10   15 ar  
    16   11   12 ar  
    17   11   42 1   
    18   12   13 ar  
    19   12   43 1   
    20   13   14 ar  
    21   13   44 1   
    22   14   15 ar  
    23   15   16 1   
    24   16   17 1   
    25   17   18 ar  
    26   17   20 ar  
    27   18   19 ar  
    28   18   45 1   
    29   19   22 ar  
    30   19   46 1   
    31   20   21 ar  
    32   20   47 1   
    33   21   22 ar  
    34   21   48 1   
    35   22   23 1   
    36   23   24 1   
    37   23   49 1   
    38   24   25 2   
    39   24   26 1   
    40   26   27 ar  
    41   26   31 ar  
    42   27   28 ar  
    43   27   50 1   
    44   28   29 ar  
    45   28   51 1   
    46   29   30 ar  
    47   29   52 1   
    48   30   31 ar  
    49   30   53 1   
    50   31   32 1   
    51   32   33 1   
    52   32   54 1   
    53   33   34 ar  
    54   33   38 ar  
    55   34   35 ar  
    56   34   55 1   
    57   35   36 ar  
    58   35   56 1   
    59   36   37 ar  
    60   36   57 1   
    61   37   38 ar  
    62   37   58 1   
    63   38   59 1   
@<TRIPOS>SUBSTRUCTURE
     1 LJF         1 TEMP              0 ****  ****    0 ROOT
