@<TRIPOS>MOLECULE
LJG
   77    76     1     0     0
SMALL
bcc


@<TRIPOS>ATOM
      1 N1        349.7340 -128.7940   24.4920 ny        1 LJG     -0.746000
      2 C5        349.8770 -129.0350   23.0290 c3        1 LJG      0.042800
      3 C6        351.0250 -130.0190   22.7050 c3        1 LJG      0.158800
      4 C8        351.5100 -129.2420   20.4120 c3        1 LJG      0.152300
      5 C10       353.9630 -129.0420   21.0060 c3        1 LJG     -0.101850
      6 C13       353.4720 -132.8330   20.0730 ca        1 LJG     -0.736000
      7 C15       353.6960 -133.8260   17.8350 ca        1 LJG     -0.229750
      8 C17       355.5850 -132.6000   18.8380 ca        1 LJG     -0.229750
      9 C22       346.1010 -127.1830   26.6370 c3        1 LJG      0.152300
     10 C24       344.9800 -125.0730   25.8370 c3        1 LJG     -0.101850
     11 C28     -1336.0970  491.6280  -89.7570 ca        1 LJG      0.070750
     12 C2        348.6280 -127.8400   24.8010 c3        1 LJG      0.042800
     13 C3        348.4960 -127.5820   26.3370 c3        1 LJG      0.158800
     14 N4        347.4590 -126.6920   26.7140 n7        1 LJG     -0.853700
     15 S26     -1333.8700  490.6500  -90.6210 s4        1 LJG      1.674800
     16 O35     -1333.5050  490.3150  -89.3590 o         1 LJG     -0.432150
     17 O34     -1333.0770  490.3960  -91.6900 o         1 LJG     -0.432150
     18 C27     -1335.2020  491.3270  -90.8410 ca        1 LJG     -0.736000
     19 C32     -1335.6580  491.7110  -92.1490 ca        1 LJG      0.070750
     20 C31     -1336.8550  492.3210  -92.3640 ca        1 LJG     -0.229750
     21 C30     -1337.7410  492.6160  -91.2630 ca        1 LJG      0.337600
     22 N33     -1338.9230  493.2160  -91.4590 nv        1 LJG     -0.761700
     23 C29     -1337.3000  492.2370  -89.9410 ca        1 LJG     -0.229750
     24 C23       345.0440 -126.1100   26.9360 c3        1 LJG     -0.069200
     25 C25       343.7000 -126.7900   27.1040 c3        1 LJG     -0.101850
     26 N7        351.1820 -130.3480   21.3050 n7        1 LJG     -0.853700
     27 S12       352.6680 -132.6340   21.3320 s4        1 LJG      1.674800
     28 O21       351.4120 -133.1530   21.4140 o         1 LJG     -0.432150
     29 O20       353.2430 -132.0560   22.4230 o         1 LJG     -0.432150
     30 C18       354.8210 -132.3530   19.9350 ca        1 LJG      0.070750
     31 C16       355.0650 -133.3710   17.7310 ca        1 LJG      0.337600
     32 N19       355.8140 -133.6490   16.6590 nv        1 LJG     -0.761700
     33 C14       352.9570 -133.5640   18.9450 ca        1 LJG      0.070750
     34 C9        352.6490 -128.3120   20.8480 c3        1 LJG     -0.069200
     35 C11       352.7830 -127.2080   19.8160 c3        1 LJG     -0.101850
     36 HN1       349.5500 -129.6850   24.9700 hn        1 LJG      0.453800
     37 H5        350.0720 -128.0420   22.5300 hx        1 LJG      0.109200
     38 H5A       348.8950 -129.4390   22.6480 hx        1 LJG      0.109200
     39 H6        350.8410 -130.9910   23.2520 h1        1 LJG      0.078700
     40 H6A       352.0030 -129.5940   23.0760 h1        1 LJG      0.078700
     41 H8        350.5990 -128.5980   20.2280 h1        1 LJG      0.046200
     42 H8A       351.7910 -129.7100   19.4240 h1        1 LJG      0.046200
     43 H10       353.9140 -129.7930   21.8320 hc        1 LJG      0.047200
     44 H10A      354.2390 -129.5670   20.0580 hc        1 LJG      0.047200
     45 H10B      354.7760 -128.3130   21.2470 hc        1 LJG      0.047200
     46 H15       353.2540 -134.4010   17.0010 ha        1 LJG      0.179750
     47 H17       356.6200 -132.2160   18.7880 ha        1 LJG      0.179750
     48 H22       346.0000 -128.0100   27.3980 h1        1 LJG      0.046200
     49 H22A      345.8790 -127.6260   25.6200 h1        1 LJG      0.046200
     50 H24       345.9200 -124.4730   25.7880 hc        1 LJG      0.047200
     51 H24A      344.1350 -124.3670   26.0310 hc        1 LJG      0.047200
     52 H24B      344.8090 -125.5550   24.8440 hc        1 LJG      0.047200
     53 H28     -1335.7800  491.3460  -88.7330 ha        1 LJG      0.173750
     54 H2        348.8400 -126.8730   24.2650 hx        1 LJG      0.109200
     55 H2A       347.6690 -128.2750   24.4010 hx        1 LJG      0.109200
     56 H3        348.3240 -128.5740   26.8460 h1        1 LJG      0.078700
     57 H3A       349.4740 -127.1500   26.6990 h1        1 LJG      0.078700
     58 H32     -1334.9950  491.4950  -93.0120 ha        1 LJG      0.173750
     59 H31     -1337.1580  492.5960  -93.3890 ha        1 LJG      0.179750
     60 HN33    -1339.2210  493.4750  -92.3740 hn        1 LJG      0.474050
     61 HN3A    -1339.5290  493.4160  -90.6930 hn        1 LJG      0.474050
     62 H29     -1337.9500  492.4460  -89.0730 ha        1 LJG      0.179750
     63 H23       345.3070 -125.5970   27.9050 hc        1 LJG      0.057200
     64 H25       343.4060 -127.3240   26.1680 hc        1 LJG      0.047200
     65 H25A      343.7340 -127.5280   27.9410 hc        1 LJG      0.047200
     66 H25B      342.9160 -126.0290   27.3370 hc        1 LJG      0.047200
     67 H18       355.2430 -131.7610   20.7720 ha        1 LJG      0.173750
     68 HN19      355.4500 -134.1870   15.9020 hn        1 LJG      0.474050
     69 HN1A      356.7610 -133.3380   16.5980 hn        1 LJG      0.474050
     70 H14       351.9140 -133.9340   19.0030 ha        1 LJG      0.173750
     71 H9        352.3790 -127.8390   21.8340 hc        1 LJG      0.057200
     72 H11       351.8260 -126.6400   19.7150 hc        1 LJG      0.047200
     73 H11A      353.5860 -126.4950   20.1240 hc        1 LJG      0.047200
     74 H11B      353.0520 -127.6300   18.8170 hc        1 LJG      0.047200
     75 H12       350.6140 -128.4160   24.8650 hn        1 LJG      0.453800
     76 H41       347.5700 -125.7610   26.3650 hn        1 LJG      0.396300
     77 H71       350.3370 -130.7880   20.9690 hn        1 LJG      0.396300
@<TRIPOS>BOND
     1    1    2 1   
     2    1   12 1   
     3    1   36 1   
     4    1   75 1   
     5    2    3 1   
     6    2   37 1   
     7    2   38 1   
     8    3   26 1   
     9    3   39 1   
    10    3   40 1   
    11    4   26 1   
    12    4   34 1   
    13    4   41 1   
    14    4   42 1   
    15    5   34 1   
    16    5   43 1   
    17    5   44 1   
    18    5   45 1   
    19    6   27 1   
    20    6   30 ar  
    21    6   33 ar  
    22    7   31 ar  
    23    7   33 ar  
    24    7   46 1   
    25    8   30 ar  
    26    8   31 ar  
    27    8   47 1   
    28    9   14 1   
    29    9   24 1   
    30    9   48 1   
    31    9   49 1   
    32   10   24 1   
    33   10   50 1   
    34   10   51 1   
    35   10   52 1   
    36   11   18 ar  
    37   11   23 ar  
    38   11   53 1   
    39   12   13 1   
    40   12   54 1   
    41   12   55 1   
    42   13   14 1   
    43   13   56 1   
    44   13   57 1   
    45   14   76 1   
    46   15   16 1   
    47   15   17 1   
    48   15   18 1   
    49   18   19 ar  
    50   19   20 ar  
    51   19   58 1   
    52   20   21 ar  
    53   20   59 1   
    54   21   22 1   
    55   21   23 ar  
    56   22   60 1   
    57   22   61 1   
    58   23   62 1   
    59   24   25 1   
    60   24   63 1   
    61   25   64 1   
    62   25   65 1   
    63   25   66 1   
    64   26   77 1   
    65   27   28 1   
    66   27   29 1   
    67   30   67 1   
    68   31   32 1   
    69   32   68 1   
    70   32   69 1   
    71   33   70 1   
    72   34   35 1   
    73   34   71 1   
    74   35   72 1   
    75   35   73 1   
    76   35   74 1   
@<TRIPOS>SUBSTRUCTURE
     1 LJG         1 TEMP              0 ****  ****    0 ROOT
