@<TRIPOS>MOLECULE
LJG
   77    76     1     0     0
SMALL
bcc


@<TRIPOS>ATOM
      1 N1        261.2080   -9.7240  -59.6520 n4        1 LJG     -0.743000
      2 C5        262.3140   -9.1430  -60.4600 c3        1 LJG      0.065800
      3 C6        263.2310  -10.2230  -61.1050 c3        1 LJG      0.153800
      4 C8        265.3800   -9.0420  -61.3290 c3        1 LJG      0.159800
      5 C10       267.0510  -10.9150  -61.5000 c3        1 LJG     -0.095600
      6 C13       515.4940 -255.4580  151.7650 ca        1 LJG     -0.734500
      7 C15       517.4050 -255.3120  153.3030 ca        1 LJG     -0.232000
      8 C17       515.2550 -254.2630  153.8990 ca        1 LJG     -0.232000
      9 C22       258.0790  -10.9180  -57.4620 c3        1 LJG      0.159800
     10 C24       257.7040  -10.7950  -54.9760 c3        1 LJG     -0.095600
     11 C28     -1253.2950  283.6380    8.8070 ca        1 LJG      0.074000
     12 C2        261.6460  -10.1730  -58.2970 c3        1 LJG      0.065800
     13 C3        260.5220  -10.9010  -57.5290 c3        1 LJG      0.153800
     14 N4        259.2960  -10.1340  -57.5310 n3        1 LJG     -0.842700
     15 S26     -1250.8550  282.9470    9.2890 s4        1 LJG      1.659300
     16 O35     -1251.0320  283.1710   10.6140 o         1 LJG     -0.414400
     17 O34     -1249.6720  282.5190    8.7840 o         1 LJG     -0.414400
     18 C27     -1252.0110  283.1840    8.3460 ca        1 LJG     -0.734500
     19 C32     -1251.9000  282.9690    6.9290 ca        1 LJG      0.074000
     20 C31     -1252.9320  283.1790    6.0680 ca        1 LJG     -0.232000
     21 C30     -1254.2140  283.6360    6.5490 ca        1 LJG      0.337600
     22 N33     -1255.2390  283.8470    5.7130 nh        1 LJG     -0.768200
     23 C29     -1254.3450  283.8560    7.9710 ca        1 LJG     -0.232000
     24 C23       257.8370  -11.7130  -56.1710 c3        1 LJG     -0.080700
     25 C25       256.5890  -12.5550  -56.3360 c3        1 LJG     -0.095600
     26 N7        264.2620   -9.7190  -61.9490 n3        1 LJG     -0.842700
     27 S12       514.9000 -255.9350  150.4610 s4        1 LJG      1.659300
     28 O21       515.6760 -256.6460  149.6060 o         1 LJG     -0.414400
     29 O20       513.6080 -255.6370  150.1790 o         1 LJG     -0.414400
     30 C18       514.7340 -254.6990  152.7200 ca        1 LJG      0.074000
     31 C16       516.6260 -254.5500  154.2500 ca        1 LJG      0.337600
     32 N19       517.1530 -254.1270  155.4080 nh        1 LJG     -0.768200
     33 C14       516.8560 -255.7340  152.1320 ca        1 LJG      0.074000
     34 C9        266.3450   -9.9600  -60.5630 c3        1 LJG     -0.080700
     35 C11       267.3500   -9.0980  -59.8250 c3        1 LJG     -0.095600
     36 HN1       260.8040  -10.5260  -60.1500 hn        1 LJG      0.457800
     37 H5        262.9230   -8.4700  -59.7940 hx        1 LJG      0.103450
     38 H5A       261.8440   -8.5160  -61.2720 hx        1 LJG      0.103450
     39 H6        262.5840  -10.9070  -61.7280 h1        1 LJG      0.072200
     40 H6A       263.7040  -10.8290  -60.2810 h1        1 LJG      0.072200
     41 H8        265.9630   -8.5400  -62.1550 h1        1 LJG      0.054200
     42 H8A       265.0270   -8.2330  -60.6220 h1        1 LJG      0.054200
     43 H10       267.7660  -11.5540  -60.9270 hc        1 LJG      0.045117
     44 H10A      267.6260  -10.3510  -62.2740 hc        1 LJG      0.045117
     45 H10B      266.3180  -11.5780  -62.0170 hc        1 LJG      0.045117
     46 H15       518.4570 -255.5510  153.5360 ha        1 LJG      0.178000
     47 H17       514.6280 -253.6830  154.5980 ha        1 LJG      0.178000
     48 H22       257.2260  -10.1940  -57.6050 h1        1 LJG      0.054200
     49 H22A      258.0720  -11.6360  -58.3310 h1        1 LJG      0.054200
     50 H24       257.4270  -11.3850  -54.0680 hc        1 LJG      0.045117
     51 H24A      256.9090  -10.0300  -55.1510 hc        1 LJG      0.045117
     52 H24B      258.6660  -10.2680  -54.7640 hc        1 LJG      0.045117
     53 H28     -1253.4200  283.8150    9.8950 ha        1 LJG      0.176000
     54 H2        262.5180  -10.8750  -58.4180 hx        1 LJG      0.103450
     55 H2A       261.9850   -9.2630  -57.7270 hx        1 LJG      0.103450
     56 H3        260.9330  -11.0910  -56.4930 h1        1 LJG      0.072200
     57 H3A       260.3450  -11.9070  -58.0060 h1        1 LJG      0.072200
     58 H32     -1250.9240  282.6180    6.5350 ha        1 LJG      0.176000
     59 H31     -1252.7930  282.9990    4.9870 ha        1 LJG      0.178000
     60 HN33    -1255.1410  283.6930    4.7330 hn        1 LJG      0.471800
     61 HN3A    -1256.1210  284.1630    6.0520 hn        1 LJG      0.471800
     62 H29     -1255.3100  284.2060    8.3770 ha        1 LJG      0.178000
     63 H23       258.7130  -12.4010  -56.0010 hc        1 LJG      0.031200
     64 H25       256.6950  -13.2490  -57.2030 hc        1 LJG      0.045117
     65 H25A      255.6970  -11.9050  -56.5060 hc        1 LJG      0.045117
     66 H25B      256.4130  -13.1620  -55.4150 hc        1 LJG      0.045117
     67 H18       513.6790 -254.4660  152.4720 ha        1 LJG      0.176000
     68 HN19      516.6100 -253.6010  156.0570 hn        1 LJG      0.471800
     69 HN1A      518.1000 -254.3280  155.6430 hn        1 LJG      0.471800
     70 H14       517.4750 -256.3180  151.4200 ha        1 LJG      0.176000
     71 H9        265.7690  -10.5600  -59.8040 hc        1 LJG      0.031200
     72 H11       266.8380   -8.4250  -59.0960 hc        1 LJG      0.045117
     73 H11A      268.0690   -9.7450  -59.2660 hc        1 LJG      0.045117
     74 H11B      267.9300   -8.4690  -60.5420 hc        1 LJG      0.045117
     75 H12       260.4640   -9.0210  -59.5370 hn        1 LJG      0.457800
     76 H41       259.3100   -9.4530  -56.7910 hn        1 LJG      0.387800
     77 H71       263.9070   -9.2150  -62.7360 hn        1 LJG      0.387800
@<TRIPOS>BOND
     1    1    2 1   
     2    1   12 1   
     3    1   36 1   
     4    1   75 1   
     5    2    3 1   
     6    2   37 1   
     7    2   38 1   
     8    3   26 1   
     9    3   39 1   
    10    3   40 1   
    11    4   26 1   
    12    4   34 1   
    13    4   41 1   
    14    4   42 1   
    15    5   34 1   
    16    5   43 1   
    17    5   44 1   
    18    5   45 1   
    19    6   27 1   
    20    6   30 ar  
    21    6   33 ar  
    22    7   31 ar  
    23    7   33 ar  
    24    7   46 1   
    25    8   30 ar  
    26    8   31 ar  
    27    8   47 1   
    28    9   14 1   
    29    9   24 1   
    30    9   48 1   
    31    9   49 1   
    32   10   24 1   
    33   10   50 1   
    34   10   51 1   
    35   10   52 1   
    36   11   18 ar  
    37   11   23 ar  
    38   11   53 1   
    39   12   13 1   
    40   12   54 1   
    41   12   55 1   
    42   13   14 1   
    43   13   56 1   
    44   13   57 1   
    45   14   76 1   
    46   15   16 1   
    47   15   17 1   
    48   15   18 1   
    49   18   19 ar  
    50   19   20 ar  
    51   19   58 1   
    52   20   21 ar  
    53   20   59 1   
    54   21   22 1   
    55   21   23 ar  
    56   22   60 1   
    57   22   61 1   
    58   23   62 1   
    59   24   25 1   
    60   24   63 1   
    61   25   64 1   
    62   25   65 1   
    63   25   66 1   
    64   26   77 1   
    65   27   28 1   
    66   27   29 1   
    67   30   67 1   
    68   31   32 1   
    69   32   68 1   
    70   32   69 1   
    71   33   70 1   
    72   34   35 1   
    73   34   71 1   
    74   35   72 1   
    75   35   73 1   
    76   35   74 1   
@<TRIPOS>SUBSTRUCTURE
     1 LJG         1 TEMP              0 ****  ****    0 ROOT
