@<TRIPOS>MOLECULE
LJG
   74    68     1     0     0
SMALL
bcc


@<TRIPOS>ATOM
      1 N1         -0.8840   -1.4300    0.9970 n3        1 LJG     -0.291000
      2 C5          0.5900   -1.4730    0.9720 c3        1 LJG     -0.114000
      3 C6          1.1430   -0.5740    2.0990 c3        1 LJG     -0.033500
      4 C8          3.4060   -0.6600    3.2010 c3        1 LJG     -0.017000
      5 C10         4.7720   -2.7800    3.1460 c3        1 LJG     -0.212500
      6 C13         4.6630    0.9620    0.7310 c1        1 LJG     -0.372000
      7 C15         6.8550    1.5370    1.4680 c1        1 LJG     -0.242000
      8 C17         5.6430    3.0780    0.1090 c1        1 LJG     -0.096500
      9 C22        -3.9360   -2.0020   -2.5630 c3        1 LJG     -0.017000
     10 C24        -6.4500   -1.8030   -2.8500 c3        1 LJG     -0.212500
     11 C28        -3.2350    2.5170   -1.4350 c1        1 LJG     -0.096500
     12 C2         -1.4020   -1.7310   -0.3330 c3        1 LJG     -0.114000
     13 C3         -2.7980   -1.1580   -0.4810 c3        1 LJG     -0.033500
     14 N4         -3.1130   -1.0140   -1.8990 n3        1 LJG     -0.822000
     15 S26        -2.3610    0.2350   -2.8250 s4        1 LJG      2.073800
     16 O35        -0.9700    0.4000   -2.4590 o         1 LJG     -0.554150
     17 O34        -2.2460   -0.1400   -4.1980 o         1 LJG     -0.554150
     18 C27        -3.2870    1.8100   -2.6410 c1        1 LJG     -0.897000
     19 C32        -3.9690    2.3430   -3.7330 c1        1 LJG      0.036000
     20 C31        -4.5990    3.5760   -3.6260 c1        1 LJG     -0.104000
     21 C30        -4.5490    4.2900   -2.4160 c1        1 LJG     -0.372000
     22 N33        -5.1480    5.5930   -2.3280 n2        1 LJG     -0.362000
     23 C29        -3.8690    3.7600   -1.3260 c2        1 LJG     -0.109000
     24 C23        -5.3110   -2.1170   -1.8350 c3        1 LJG     -0.123000
     25 C25        -5.4790   -3.4970   -1.3090 c3        1 LJG     -0.212500
     26 N7          2.6130   -0.5140    2.0110 n3        1 LJG     -0.822000
     27 S12         3.3410   -0.2350    0.5580 s4        1 LJG      2.073800
     28 O21         2.4040    0.1870   -0.4060 o         1 LJG     -0.554150
     29 O20         3.7990   -1.4160   -0.0070 o         1 LJG     -0.554150
     30 C18         4.5770    2.1870    0.0640 c2        1 LJG     -0.109000
     31 C16         6.7710    2.7580    0.8040 c1        1 LJG      0.149000
     32 N19         7.9150    3.6150    0.7520 n3        1 LJG     -0.356000
     33 C14         5.7890    0.6420    1.4250 c1        1 LJG     -0.104000
     34 C9          3.4460   -2.1440    3.6110 c3        1 LJG     -0.123000
     35 C11         3.3290   -2.2440    5.1620 c3        1 LJG     -0.212500
     36 HN1        -1.1540   -0.6100    1.2440 hn        1 LJG      0.145000
     37 H5          0.8880   -2.3710    1.1050 h1        1 LJG      0.101250
     38 H5A         0.9080   -1.1530    0.1190 h1        1 LJG      0.101250
     39 H6          0.8800   -0.9490    2.9790 h1        1 LJG      0.089000
     40 H6A         0.7680    0.3380    2.0040 h1        1 LJG      0.089000
     41 H8          3.0000   -0.1270    3.9350 h1        1 LJG      0.098250
     42 H8A         4.3200   -0.3400    3.0320 h1        1 LJG      0.098250
     43 H10         4.7710   -2.8640    2.1300 hc        1 LJG      0.077167
     44 H10A        5.5180   -2.2150    3.4260 hc        1 LJG      0.077167
     45 H10B        4.8690   -3.7030    3.5610 hc        1 LJG      0.077167
     46 H15         7.6850    1.3030    1.9810 ha        1 LJG      0.135000
     47 H17         5.5820    3.9600   -0.3730 ha        1 LJG      0.164500
     48 H22        -4.0820   -1.7310   -3.4890 h1        1 LJG      0.098250
     49 H22A       -3.4920   -2.8540   -2.5460 h1        1 LJG      0.098250
     50 H24        -6.1690   -2.0320   -3.7140 hc        1 LJG      0.077167
     51 H24A       -7.2270   -2.3070   -2.6250 hc        1 LJG      0.077167
     52 H24B       -6.6610   -0.8410   -2.8180 hc        1 LJG      0.077167
     53 H28        -2.7630    2.1480   -0.6790 ha        1 LJG      0.164500
     54 H2         -0.8200   -1.3340   -1.0030 h1        1 LJG      0.101250
     55 H2A        -1.4330   -2.7170   -0.4620 h1        1 LJG      0.101250
     56 H3         -2.8370   -0.2910   -0.0540 h1        1 LJG      0.089000
     57 H3A        -3.4470   -1.7590   -0.0600 h1        1 LJG      0.089000
     58 H32        -4.0040    1.8560   -4.5600 ha        1 LJG      0.153000
     59 H31        -5.0750    3.9460   -4.3930 ha        1 LJG      0.144000
     60 HN33       -5.1340    6.0420   -1.5540 hn        1 LJG      0.219000
     61 HN3A       -5.5190    5.9720   -3.0670 hn        1 LJG      0.219000
     62 H29        -3.8320    4.2690   -0.4580 ha        1 LJG      0.145000
     63 H23        -5.3450   -1.4670   -1.0790 hc        1 LJG      0.088500
     64 H25        -4.6340   -3.7930   -0.8810 hc        1 LJG      0.077167
     65 H25A       -6.1730   -3.5100   -0.6730 hc        1 LJG      0.077167
     66 H25B       -5.7010   -4.0990   -2.0440 hc        1 LJG      0.077167
     67 H18         3.7780    2.4130   -0.4280 ha        1 LJG      0.145000
     68 HN19        7.8940    4.4150    0.2230 hn        1 LJG      0.213000
     69 HN1A        8.6620    3.4120    1.2490 hn        1 LJG      0.213000
     70 H14         5.8490   -0.1920    1.8770 ha        1 LJG      0.144000
     71 H9          2.7390   -2.5920    3.2180 hc        1 LJG      0.088500
     72 H11         3.6370   -3.1020    5.4510 hc        1 LJG      0.077167
     73 H11A        2.4330   -2.1320    5.4150 hc        1 LJG      0.077167
     74 H11B        3.8700   -1.5480    5.5760 hc        1 LJG      0.077167
@<TRIPOS>BOND
     1    1    2 1   
     2    1   12 1   
     3    1   36 1   
     4    2    3 1   
     5    2   37 1   
     6    2   38 1   
     7    3   26 1   
     8    3   39 1   
     9    3   40 1   
    10    4   26 1   
    11    4   34 1   
    12    4   41 1   
    13    4   42 1   
    14    5   34 1   
    15    5   43 1   
    16    5   44 1   
    17    5   45 1   
    18    6   30 1   
    19    6   33 1   
    20    7   31 1   
    21    7   46 1   
    22    8   30 1   
    23    8   47 1   
    24    9   14 1   
    25    9   24 1   
    26    9   48 1   
    27    9   49 1   
    28   10   24 1   
    29   10   50 1   
    30   10   51 1   
    31   10   52 1   
    32   11   23 1   
    33   11   53 1   
    34   12   13 1   
    35   12   54 1   
    36   12   55 1   
    37   13   14 1   
    38   13   56 1   
    39   13   57 1   
    40   14   15 1   
    41   15   16 1   
    42   15   17 1   
    43   18   19 1   
    44   19   58 1   
    45   20   21 1   
    46   20   59 1   
    47   21   23 1   
    48   22   60 1   
    49   22   61 1   
    50   23   62 1   
    51   24   25 1   
    52   24   63 1   
    53   25   64 1   
    54   25   65 1   
    55   25   66 1   
    56   26   27 1   
    57   27   28 1   
    58   27   29 1   
    59   30   67 1   
    60   31   32 1   
    61   32   68 1   
    62   32   69 1   
    63   33   70 1   
    64   34   35 1   
    65   34   71 1   
    66   35   72 1   
    67   35   73 1   
    68   35   74 1   
@<TRIPOS>SUBSTRUCTURE
     1 LJG         1 TEMP              0 ****  ****    0 ROOT
