@<TRIPOS>MOLECULE
LJG
   79    78     1     0     0
SMALL
bcc


@<TRIPOS>ATOM
      1 N1         -9.4080  146.5840   89.9910 n4        1 LJG     -0.751000
      2 C5         -8.2290  146.2000   89.1630 c3        1 LJG      0.058300
      3 C6         -7.3850  145.0850   89.8390 c3        1 LJG      0.169800
      4 C8         -5.0080  145.3160   89.2910 c3        1 LJG      0.164300
      5 C10        -3.8890  143.2930   90.2840 c3        1 LJG     -0.094100
      6 C13      1703.3410 -785.8740  -68.8350 ca        1 LJG     -0.549500
      7 C15      1704.5290 -788.0150  -68.7400 ca        1 LJG     -0.122000
      8 C17      1704.9200 -786.4860  -70.6060 ca        1 LJG     -0.122000
      9 C22       -13.1300  148.6140   88.5210 c3        1 LJG      0.164300
     10 C24       -15.3860  147.6550   88.0810 c3        1 LJG     -0.094100
     11 C28     -1681.4050  398.1530 -171.2550 ca        1 LJG      0.063000
     12 C2        -10.2240  147.6490   89.3450 c3        1 LJG      0.058300
     13 C3        -11.4280  148.0810   90.2320 c3        1 LJG      0.169800
     14 N4        -12.3130  149.0270   89.6420 n3        1 LJG     -0.832700
     15 S26     -1683.2490  396.8560 -172.5920 s4        1 LJG      1.649300
     16 O35     -1683.7460  396.4180 -171.4260 o         1 LJG     -0.336400
     17 O34     -1683.7050  396.5870 -173.8240 o         1 LJG     -0.336400
     18 C27     -1681.9710  397.8030 -172.5030 ca        1 LJG     -0.549500
     19 C32     -1681.3630  398.3240 -173.6690 ca        1 LJG      0.063000
     20 C31     -1680.2460  399.1520 -173.6030 ca        1 LJG     -0.122000
     21 C30     -1679.7080  399.4810 -172.3450 ca        1 LJG      0.091600
     22 N33     -1678.5360  400.3580 -172.2630 n4        1 LJG     -0.731000
     23 C29     -1680.2880  398.9800 -171.1660 ca        1 LJG     -0.122000
     24 C23       -14.0670  147.4250   88.7910 c3        1 LJG     -0.088200
     25 C25       -13.4500  146.1250   88.3170 c3        1 LJG     -0.094100
     26 N7         -6.2910  144.7320   88.9730 n3        1 LJG     -0.832700
     27 S12      1702.3020 -784.8420  -68.2070 s4        1 LJG      1.649300
     28 O21      1701.7220 -785.2090  -67.0550 o         1 LJG     -0.336400
     29 O20      1702.1070 -783.7050  -68.8900 o         1 LJG     -0.336400
     30 C18      1704.0110 -785.5910  -70.0470 ca        1 LJG      0.063000
     31 C16      1705.1790 -787.7020  -69.9470 ca        1 LJG      0.091600
     32 N19      1706.1400 -788.6490  -70.5220 n4        1 LJG     -0.731000
     33 C14      1703.6240 -787.1050  -68.1990 ca        1 LJG      0.063000
     34 C9         -4.2610  144.7430   90.5050 c3        1 LJG     -0.088200
     35 C11        -3.0210  145.5740   90.7580 c3        1 LJG     -0.094100
     36 HN1        -9.9990  145.7590   90.1460 hn        1 LJG      0.447300
     37 H5         -8.6050  145.8460   88.1610 hx        1 LJG      0.109450
     38 H5A        -7.5960  147.1190   89.0050 hx        1 LJG      0.109450
     39 H6         -7.0380  145.4630   90.8450 h1        1 LJG      0.059700
     40 H6A        -8.0490  144.1910   90.0140 h1        1 LJG      0.059700
     41 H8         -4.3640  145.1760   88.3750 h1        1 LJG      0.053950
     42 H8A        -5.1510  146.4230   89.4460 h1        1 LJG      0.053950
     43 H10        -4.7990  142.6490   90.2170 hc        1 LJG      0.041367
     44 H10A       -3.2670  142.9230   91.1350 hc        1 LJG      0.041367
     45 H10B       -3.3000  143.1760   89.3430 hc        1 LJG      0.041367
     46 H15      1704.7140 -788.9660  -68.2030 ha        1 LJG      0.208000
     47 H17      1705.4170 -786.2170  -71.5590 ha        1 LJG      0.208000
     48 H22       -12.5000  148.3740   87.6130 h1        1 LJG      0.053950
     49 H22A      -13.7610  149.5150   88.2620 h1        1 LJG      0.053950
     50 H24       -15.2260  147.7980   86.9850 hc        1 LJG      0.041367
     51 H24A      -15.8970  148.5610   88.4890 hc        1 LJG      0.041367
     52 H24B      -16.0580  146.7750   88.2280 hc        1 LJG      0.041367
     53 H28     -1681.8530  397.7640 -170.3130 ha        1 LJG      0.216000
     54 H2        -10.5980  147.2500   88.3580 hx        1 LJG      0.109450
     55 H2A        -9.5530  148.5320   89.1460 hx        1 LJG      0.109450
     56 H3        -11.0170  148.5390   91.1790 h1        1 LJG      0.059700
     57 H3A       -12.0230  147.1630   90.5070 h1        1 LJG      0.059700
     58 H32     -1681.7780  398.0720 -174.6710 ha        1 LJG      0.216000
     59 H31     -1679.8070  399.5320 -174.5470 ha        1 LJG      0.208000
     60 HN33    -1677.9790  400.1380 -171.4230 hn        1 LJG      0.494800
     61 HN3A    -1678.8440  401.3440 -172.2090 hn        1 LJG      0.494800
     62 H29     -1679.8820  399.2220 -170.1630 ha        1 LJG      0.208000
     63 H23       -14.2760  147.3480   89.8960 hc        1 LJG      0.052200
     64 H25       -13.3090  146.1360   87.2090 hc        1 LJG      0.041367
     65 H25A      -14.1170  145.2670   88.5760 hc        1 LJG      0.041367
     66 H25B      -12.4550  145.9560   88.7960 hc        1 LJG      0.041367
     67 H18      1703.8160 -784.6330  -70.5800 ha        1 LJG      0.216000
     68 HN19     1707.0840 -788.4540  -70.1490 hn        1 LJG      0.494800
     69 HN1A     1705.8810 -789.6180  -70.2780 hn        1 LJG      0.494800
     70 H14      1703.1170 -787.3670  -67.2430 ha        1 LJG      0.216000
     71 H9         -4.9260  144.8100   91.4120 hc        1 LJG      0.052200
     72 H11        -2.4720  145.1830   91.6490 hc        1 LJG      0.041367
     73 H11A       -2.3360  145.5360   89.8770 hc        1 LJG      0.041367
     74 H11B       -3.2940  146.6400   90.9500 hc        1 LJG      0.041367
     75 H12        -9.0870  146.9150   90.9080 hn        1 LJG      0.447300
     76 H41       -11.8740  149.9100   89.4690 hn        1 LJG      0.397800
     77 H333    -1677.9400  400.2420 -173.0980 hn        1 LJG      0.494800
     78 H71        -6.2260  143.7400   88.8520 hn        1 LJG      0.397800
     79 H193     1706.1640 -788.5590  -71.5490 hn        1 LJG      0.494800
@<TRIPOS>BOND
     1    1    2 1   
     2    1   12 1   
     3    1   36 1   
     4    1   75 1   
     5    2    3 1   
     6    2   37 1   
     7    2   38 1   
     8    3   26 1   
     9    3   39 1   
    10    3   40 1   
    11    4   26 1   
    12    4   34 1   
    13    4   41 1   
    14    4   42 1   
    15    5   34 1   
    16    5   43 1   
    17    5   44 1   
    18    5   45 1   
    19    6   27 1   
    20    6   30 ar  
    21    6   33 ar  
    22    7   31 ar  
    23    7   33 ar  
    24    7   46 1   
    25    8   30 ar  
    26    8   31 ar  
    27    8   47 1   
    28    9   14 1   
    29    9   24 1   
    30    9   48 1   
    31    9   49 1   
    32   10   24 1   
    33   10   50 1   
    34   10   51 1   
    35   10   52 1   
    36   11   18 ar  
    37   11   23 ar  
    38   11   53 1   
    39   12   13 1   
    40   12   54 1   
    41   12   55 1   
    42   13   14 1   
    43   13   56 1   
    44   13   57 1   
    45   14   76 1   
    46   15   16 1   
    47   15   17 1   
    48   15   18 1   
    49   18   19 ar  
    50   19   20 ar  
    51   19   58 1   
    52   20   21 ar  
    53   20   59 1   
    54   21   22 1   
    55   21   23 ar  
    56   22   60 1   
    57   22   61 1   
    58   22   77 1   
    59   23   62 1   
    60   24   25 1   
    61   24   63 1   
    62   25   64 1   
    63   25   65 1   
    64   25   66 1   
    65   26   78 1   
    66   27   28 1   
    67   27   29 1   
    68   30   67 1   
    69   31   32 1   
    70   32   68 1   
    71   32   69 1   
    72   32   79 1   
    73   33   70 1   
    74   34   35 1   
    75   34   71 1   
    76   35   72 1   
    77   35   73 1   
    78   35   74 1   
@<TRIPOS>SUBSTRUCTURE
     1 LJG         1 TEMP              0 ****  ****    0 ROOT
