@<TRIPOS>MOLECULE
LJG
   74    75     1     0     0
SMALL
bcc


@<TRIPOS>ATOM
      1 N1         -0.1300    0.4450   -0.8370 n3        1 LJG     -0.820200
      2 C5         -1.4620    0.3940   -0.2700 c3        1 LJG      0.134800
      3 C6         -2.4640    1.2520   -1.0810 c3        1 LJG      0.217800
      4 C8         -4.0350    2.1670    0.5610 c3        1 LJG      0.225800
      5 C10        -5.2870    3.9160   -0.7600 c3        1 LJG     -0.093850
      6 C13        -4.9260   -1.0260   -0.0310 ca        1 LJG     -0.452500
      7 C15        -4.1040   -3.2390    0.5640 ca        1 LJG     -0.239250
      8 C17        -5.7250   -2.1130    1.9960 ca        1 LJG     -0.239250
      9 C22         3.3090   -2.5380   -0.7650 c3        1 LJG      0.225800
     10 C24         5.4770   -2.2090   -2.0170 c3        1 LJG     -0.093850
     11 C28         4.4380    1.7830    0.8900 ca        1 LJG      0.032750
     12 C2          0.7870   -0.4730   -0.1930 c3        1 LJG      0.134800
     13 C3          2.2160   -0.3470   -0.7780 c3        1 LJG      0.217800
     14 N4          3.1650   -1.2380   -0.1670 n3        1 LJG     -0.803500
     15 S26         3.9230   -0.8270    1.2280 sy        1 LJG      1.514200
     16 O35         2.9660   -0.3710    2.1640 o         1 LJG     -0.660550
     17 O34         4.7360   -1.9050    1.6560 o         1 LJG     -0.660550
     18 C27         4.8970    0.4610    0.7970 ca        1 LJG     -0.452500
     19 C32         6.2220    0.2560    0.3840 ca        1 LJG      0.032750
     20 C31         7.0590    1.3110    0.0660 ca        1 LJG     -0.239250
     21 C30         6.5840    2.6480    0.1460 ca        1 LJG      0.241100
     22 N33         7.3810    3.7050   -0.2350 nh        1 LJG     -0.852700
     23 C29         5.2470    2.8600    0.5780 ca        1 LJG     -0.239250
     24 C23         4.0180   -2.5870   -2.1310 c3        1 LJG     -0.082700
     25 C25         3.8790   -3.9870   -2.6940 c3        1 LJG     -0.093850
     26 N7         -3.7930    1.2650   -0.5340 n3        1 LJG     -0.803500
     27 S12        -4.9670    0.2690   -1.0900 sy        1 LJG      1.514200
     28 O21        -4.6180   -0.1880   -2.3840 o         1 LJG     -0.660550
     29 O20        -6.2260    0.9040   -0.9680 o         1 LJG     -0.660550
     30 C18        -5.7240   -1.0400    1.1230 ca        1 LJG      0.032750
     31 C16        -4.9010   -3.2420    1.7410 ca        1 LJG      0.241100
     32 N19        -4.8390   -4.2880    2.6330 nh        1 LJG     -0.852700
     33 C14        -4.1270   -2.1490   -0.2870 ca        1 LJG      0.032750
     34 C9         -4.1420    3.6580    0.1940 c3        1 LJG     -0.082700
     35 C11        -4.3210    4.4530    1.4710 c3        1 LJG     -0.093850
     36 HN1        -0.1610    0.2750   -1.8260 hn        1 LJG      0.353800
     37 H5         -1.8590   -0.6640   -0.2050 h1        1 LJG      0.042450
     38 H5A        -1.3950    0.7890    0.7830 h1        1 LJG      0.042450
     39 H6         -2.0730    2.3080   -1.1320 h1        1 LJG      0.060200
     40 H6A        -2.5180    0.8550   -2.1380 h1        1 LJG      0.060200
     41 H8         -5.0040    1.8590    1.0550 h1        1 LJG      0.052450
     42 H8A        -3.2070    2.0560    1.3210 h1        1 LJG      0.052450
     43 H10        -6.2220    3.4200   -0.4000 hc        1 LJG      0.038033
     44 H10A       -5.4730    5.0130   -0.8530 hc        1 LJG      0.038033
     45 H10B       -5.0520    3.5130   -1.7740 hc        1 LJG      0.038033
     46 H15        -3.4650   -4.1020    0.3280 ha        1 LJG      0.139000
     47 H17        -6.3650   -2.0880    2.8900 ha        1 LJG      0.139000
     48 H22         3.8840   -3.1990   -0.0510 h1        1 LJG      0.052450
     49 H22A        2.2810   -2.9870   -0.8980 h1        1 LJG      0.052450
     50 H24         5.9910   -2.8400   -1.2510 hc        1 LJG      0.038033
     51 H24A        5.9910   -2.3530   -2.9980 hc        1 LJG      0.038033
     52 H24B        5.5830   -1.1360   -1.7200 hc        1 LJG      0.038033
     53 H28         3.4050    1.9660    1.2430 ha        1 LJG      0.150750
     54 H2          0.8200   -0.2230    0.9070 h1        1 LJG      0.042450
     55 H2A         0.4490   -1.5480   -0.2850 h1        1 LJG      0.042450
     56 H3          2.1790   -0.5350   -1.8880 h1        1 LJG      0.060200
     57 H3A         2.5760    0.7140   -0.6270 h1        1 LJG      0.060200
     58 H32         6.6090   -0.7790    0.3300 ha        1 LJG      0.150750
     59 H31         8.0920    1.1100   -0.2510 ha        1 LJG      0.139000
     60 HN33        8.3540    3.5450   -0.3250 hn        1 LJG      0.421800
     61 HN3A        7.0980    4.6180    0.0280 hn        1 LJG      0.421800
     62 H29         4.8510    3.8830    0.6640 ha        1 LJG      0.139000
     63 H23         3.5160   -1.8690   -2.8370 hc        1 LJG      0.049700
     64 H25         2.8020   -4.2550   -2.8210 hc        1 LJG      0.038033
     65 H25A        4.3790   -4.0510   -3.6900 hc        1 LJG      0.038033
     66 H25B        4.3520   -4.7340   -2.0120 hc        1 LJG      0.038033
     67 H18        -6.3820   -0.1750    1.3270 ha        1 LJG      0.150750
     68 HN19       -4.4130   -5.1330    2.3380 hn        1 LJG      0.421800
     69 HN1A       -5.5390   -4.3530    3.3300 hn        1 LJG      0.421800
     70 H14        -3.5130   -2.1670   -1.2070 ha        1 LJG      0.150750
     71 H9         -3.1810    3.9830   -0.2950 hc        1 LJG      0.049700
     72 H11        -3.4740    4.2650    2.1750 hc        1 LJG      0.038033
     73 H11A       -4.3540    5.5450    1.2410 hc        1 LJG      0.038033
     74 H11B       -5.2750    4.1710    1.9790 hc        1 LJG      0.038033
@<TRIPOS>BOND
     1    1    2 1   
     2    1   12 1   
     3    1   36 1   
     4    2    3 1   
     5    2   37 1   
     6    2   38 1   
     7    3   26 1   
     8    3   39 1   
     9    3   40 1   
    10    4   26 1   
    11    4   34 1   
    12    4   41 1   
    13    4   42 1   
    14    5   34 1   
    15    5   43 1   
    16    5   44 1   
    17    5   45 1   
    18    6   27 1   
    19    6   30 ar  
    20    6   33 ar  
    21    7   31 ar  
    22    7   33 ar  
    23    7   46 1   
    24    8   30 ar  
    25    8   31 ar  
    26    8   47 1   
    27    9   14 1   
    28    9   24 1   
    29    9   48 1   
    30    9   49 1   
    31   10   24 1   
    32   10   50 1   
    33   10   51 1   
    34   10   52 1   
    35   11   18 ar  
    36   11   23 ar  
    37   11   53 1   
    38   12   13 1   
    39   12   54 1   
    40   12   55 1   
    41   13   14 1   
    42   13   56 1   
    43   13   57 1   
    44   14   15 1   
    45   15   16 2   
    46   15   17 2   
    47   15   18 1   
    48   18   19 ar  
    49   19   20 ar  
    50   19   58 1   
    51   20   21 ar  
    52   20   59 1   
    53   21   22 1   
    54   21   23 ar  
    55   22   60 1   
    56   22   61 1   
    57   23   62 1   
    58   24   25 1   
    59   24   63 1   
    60   25   64 1   
    61   25   65 1   
    62   25   66 1   
    63   26   27 1   
    64   27   28 2   
    65   27   29 2   
    66   30   67 1   
    67   31   32 1   
    68   32   68 1   
    69   32   69 1   
    70   33   70 1   
    71   34   35 1   
    72   34   71 1   
    73   35   72 1   
    74   35   73 1   
    75   35   74 1   
@<TRIPOS>SUBSTRUCTURE
     1 LJG         1 TEMP              0 ****  ****    0 ROOT
