@<TRIPOS>MOLECULE
LJH
   76    79     1     0     0
SMALL
bcc


@<TRIPOS>ATOM
      1 N1          0.1050    0.6720   -0.8630 n3        1 LJH     -0.819200
      2 C5         -1.1710    0.3360   -0.2640 c3        1 LJH      0.133800
      3 C6         -2.3470    1.0570   -0.9670 c3        1 LJH      0.220300
      4 C8          4.0240   -1.6160   -1.4320 c3        1 LJH      0.276100
      5 C10         2.1970   -3.1820   -2.1790 ca        1 LJH     -0.115500
      6 C13         2.8310   -4.9800   -0.1420 ca        1 LJH     -0.134750
      7 C17         4.8890    2.3350    0.8710 ca        1 LJH      0.033750
      8 C28        -6.0150    4.5830   -0.4830 ca        1 LJH     -0.134750
      9 C2          1.1810   -0.1780   -0.3940 c3        1 LJH      0.133800
     10 C3          2.5500    0.2920   -0.9440 c3        1 LJH      0.220300
     11 N4          3.6520   -0.5420   -0.5470 n3        1 LJH     -0.803500
     12 C27        -5.6320    3.2770   -0.1830 ca        1 LJH     -0.115500
     13 C31        -3.5190    4.0970    0.6660 ca        1 LJH     -0.115500
     14 C30        -3.9070    5.4030    0.3660 ca        1 LJH     -0.134750
     15 C29        -5.1550    5.6470   -0.2080 ca        1 LJH     -0.126000
     16 C25        -3.9850    1.6260    0.7560 c3        1 LJH      0.276100
     17 N7         -3.6260    0.7960   -0.3660 n3        1 LJH     -0.803500
     18 C18         5.6730    3.4550    0.6660 ca        1 LJH     -0.239000
     19 C16         5.3610    1.0420    0.5980 ca        1 LJH     -0.454500
     20 C14         3.5390   -3.7840   -0.2580 ca        1 LJH     -0.115500
     21 C9          3.2250   -2.8830   -1.2810 ca        1 LJH     -0.117800
     22 C11         1.4930   -4.3800   -2.0620 ca        1 LJH     -0.134750
     23 S15         4.4120   -0.3030    0.8850 sy        1 LJH      1.515700
     24 O24         3.4650    0.0160    1.8850 o         1 LJH     -0.661800
     25 O23         5.2530   -1.4120    1.1540 o         1 LJH     -0.661800
     26 C21         6.6700    0.9120    0.1110 ca        1 LJH      0.033750
     27 C20         7.4810    2.0100   -0.1050 ca        1 LJH     -0.239000
     28 C19         6.9950    3.3190    0.1610 ca        1 LJH      0.243100
     29 N22         7.7640    4.4280   -0.1140 nh        1 LJH     -0.853700
     30 C12         1.8100   -5.2800   -1.0440 ca        1 LJH     -0.126000
     31 S32        -4.6420   -0.3530   -0.9360 sy        1 LJH      1.515700
     32 O41        -5.9760    0.1170   -0.8530 o         1 LJH     -0.661800
     33 O40        -4.2050   -0.7750   -2.2140 o         1 LJH     -0.661800
     34 C33        -4.4620   -1.6130    0.1480 ca        1 LJH     -0.454500
     35 C38        -5.3130   -1.7420    1.2560 ca        1 LJH      0.033750
     36 C37        -5.1930   -2.7900    2.1490 ca        1 LJH     -0.239000
     37 C36        -4.1840   -3.7740    1.9650 ca        1 LJH      0.243100
     38 N39        -4.0080   -4.7860    2.8810 nh        1 LJH     -0.853700
     39 C35        -3.3300   -3.6560    0.8350 ca        1 LJH     -0.239000
     40 C34        -3.4780   -2.5950   -0.0390 ca        1 LJH      0.033750
     41 C26        -4.3830    3.0320    0.3990 ca        1 LJH     -0.117800
     42 HN1         0.0440    0.6360   -1.8650 hn        1 LJH      0.352800
     43 H5         -1.3690   -0.7780   -0.2760 h1        1 LJH      0.044450
     44 H5A        -1.1270    0.6540    0.8160 h1        1 LJH      0.044450
     45 H6         -2.1540    2.1700   -0.9490 h1        1 LJH      0.059950
     46 H6A        -2.3860    0.7300   -2.0480 h1        1 LJH      0.059950
     47 H8          3.9430   -1.2610   -2.5010 h1        1 LJH      0.056200
     48 H8A         5.1110   -1.8650   -1.2360 h1        1 LJH      0.056200
     49 H13         3.0810   -5.6860    0.6630 ha        1 LJH      0.132500
     50 H17         3.8680    2.4550    1.2790 ha        1 LJH      0.150250
     51 H28        -6.9980    4.7730   -0.9400 ha        1 LJH      0.132500
     52 H2          1.2070   -0.1260    0.7330 h1        1 LJH      0.044450
     53 H2A         1.0290   -1.2610   -0.6830 h1        1 LJH      0.044450
     54 H3          2.5010    0.3440   -2.0690 h1        1 LJH      0.059950
     55 H3A         2.7510    1.3380   -0.5640 h1        1 LJH      0.059950
     56 H27        -6.3060    2.4310   -0.4070 ha        1 LJH      0.147500
     57 H31        -2.5330    3.9070    1.1140 ha        1 LJH      0.147500
     58 H30        -3.2270    6.2390    0.5800 ha        1 LJH      0.132500
     59 H29        -5.4600    6.6770   -0.4450 ha        1 LJH      0.129000
     60 H25        -4.8560    1.1350    1.2850 h1        1 LJH      0.056200
     61 H25A       -3.1190    1.6630    1.4800 h1        1 LJH      0.056200
     62 H18         5.2690    4.4530    0.8940 ha        1 LJH      0.139500
     63 H14         4.3470   -3.5410    0.4540 ha        1 LJH      0.147500
     64 H11         0.6880   -4.6150   -2.7740 ha        1 LJH      0.132500
     65 H21         7.0650   -0.1020   -0.0860 ha        1 LJH      0.150250
     66 H20         8.5030    1.8680   -0.4850 ha        1 LJH      0.139500
     67 HN22        7.4810    5.2970    0.2690 hn        1 LJH      0.422800
     68 HN2A        8.7350    4.2960   -0.2630 hn        1 LJH      0.422800
     69 H12         1.2560   -6.2250   -0.9540 ha        1 LJH      0.129000
     70 H38        -6.1110   -0.9910    1.4040 ha        1 LJH      0.150250
     71 H37        -5.8800   -2.8580    3.0060 ha        1 LJH      0.139500
     72 HN39       -4.7240   -4.9510    3.5450 hn        1 LJH      0.422800
     73 HN3A       -3.4260   -5.5480    2.6360 hn        1 LJH      0.422800
     74 H35        -2.5460   -4.4060    0.6550 ha        1 LJH      0.139500
     75 H34        -2.8160   -2.5250   -0.9220 ha        1 LJH      0.150250
     76 H10         1.9450   -2.4740   -2.9830 ha        1 LJH      0.147500
@<TRIPOS>BOND
     1    1    2 1   
     2    1    9 1   
     3    1   42 1   
     4    2    3 1   
     5    2   43 1   
     6    2   44 1   
     7    3   17 1   
     8    3   45 1   
     9    3   46 1   
    10    4   11 1   
    11    4   21 1   
    12    4   47 1   
    13    4   48 1   
    14    5   21 ar  
    15    5   22 ar  
    16    5   76 1   
    17    6   20 ar  
    18    6   30 ar  
    19    6   49 1   
    20    7   18 ar  
    21    7   19 ar  
    22    7   50 1   
    23    8   12 ar  
    24    8   15 ar  
    25    8   51 1   
    26    9   10 1   
    27    9   52 1   
    28    9   53 1   
    29   10   11 1   
    30   10   54 1   
    31   10   55 1   
    32   11   23 1   
    33   12   41 ar  
    34   12   56 1   
    35   13   14 ar  
    36   13   41 ar  
    37   13   57 1   
    38   14   15 ar  
    39   14   58 1   
    40   15   59 1   
    41   16   17 1   
    42   16   41 1   
    43   16   60 1   
    44   16   61 1   
    45   17   31 1   
    46   18   28 ar  
    47   18   62 1   
    48   19   23 1   
    49   19   26 ar  
    50   20   21 ar  
    51   20   63 1   
    52   22   30 ar  
    53   22   64 1   
    54   23   24 2   
    55   23   25 2   
    56   26   27 ar  
    57   26   65 1   
    58   27   28 ar  
    59   27   66 1   
    60   28   29 1   
    61   29   67 1   
    62   29   68 1   
    63   30   69 1   
    64   31   32 2   
    65   31   33 2   
    66   31   34 1   
    67   34   35 ar  
    68   34   40 ar  
    69   35   36 ar  
    70   35   70 1   
    71   36   37 ar  
    72   36   71 1   
    73   37   38 1   
    74   37   39 ar  
    75   38   72 1   
    76   38   73 1   
    77   39   40 ar  
    78   39   74 1   
    79   40   75 1   
@<TRIPOS>SUBSTRUCTURE
     1 LJH         1 TEMP              0 ****  ****    0 ROOT
