@<TRIPOS>MOLECULE
LJH
   76    67     1     0     0
SMALL
bcc


@<TRIPOS>ATOM
      1 N1          0.0850    0.3160    0.6140 n3        1 LJH     -0.297000
      2 C5          1.5730    0.3060    0.6420 c3        1 LJH     -0.094000
      3 C6          2.0480   -0.3890    1.8850 c3        1 LJH     -0.021000
      4 C8         -2.1090    3.6050   -1.4300 c3        1 LJH      0.030000
      5 C10        -2.5770    4.4890    0.9120 c1        1 LJH     -0.114000
      6 C13        -2.0620    7.0890    0.1410 c1        1 LJH     -0.123100
      7 C17        -6.0330    2.2030   -2.1830 c1        1 LJH     -0.123100
      8 C28         0.4330   -5.3600    0.1760 c1        1 LJH     -0.123100
      9 C2         -0.3740    1.5110   -0.0490 c3        1 LJH     -0.112000
     10 C3         -1.6740    1.1940   -0.8430 c3        1 LJH     -0.009000
     11 N4         -2.5570    2.3720   -0.8360 n3        1 LJH     -0.822000
     12 C27         0.9730   -4.0740    0.2350 c1        1 LJH     -0.123100
     13 C31         2.3810   -4.7650    2.0450 c1        1 LJH     -0.113000
     14 C30         1.8490   -6.0310    1.9860 c1        1 LJH     -0.123100
     15 C29         0.8690   -6.3300    1.0470 c1        1 LJH     -0.123100
     16 C25         2.4470   -2.4750    0.4910 c3        1 LJH      0.032000
     17 N7          2.8900   -1.5630    1.5100 n3        1 LJH     -0.828000
     18 C18        -7.2370    1.7130   -2.6690 c1        1 LJH     -0.123100
     19 C16        -5.1700    1.3620   -1.4660 c1        1 LJH     -0.897000
     20 C14        -1.8960    6.0620   -0.7520 c1        1 LJH     -0.123100
     21 C9         -2.1560    4.7530   -0.3640 c1        1 LJH     -0.111000
     22 C11        -2.7450    5.5350    1.8200 c1        1 LJH     -0.123100
     23 S15        -4.1510    2.2320   -0.2670 s6        1 LJH      2.855000
     24 O24        -4.7190    3.5450    0.0590 o         1 LJH     -0.939500
     25 O23        -4.1900    1.5750    1.0350 o         1 LJH     -0.939500
     26 C21        -5.5190    0.0410   -1.2420 c1        1 LJH      0.031000
     27 C20        -6.7310   -0.4540   -1.7300 c1        1 LJH     -0.236500
     28 C19        -7.5910    0.3850   -2.4450 c1        1 LJH      0.153500
     29 N22        -8.7870   -0.1490   -3.0470 n3        1 LJH     -0.357000
     30 C12        -2.4880    6.8250    1.4320 c1        1 LJH     -0.123100
     31 S32         4.3010   -1.8780    2.3470 s4        1 LJH      2.067800
     32 O41         4.1630   -3.0200    3.1740 o         1 LJH     -0.547400
     33 O40         4.5690   -0.8680    3.3140 o         1 LJH     -0.547400
     34 C33         5.6690   -2.0630    1.2040 c1        1 LJH     -0.890000
     35 C38         6.7570   -1.1980    1.2760 c2        1 LJH      0.031000
     36 C37         7.8680   -1.3930    0.4390 c1        1 LJH     -0.242000
     37 C36         7.8820   -2.4510   -0.4630 c1        1 LJH      0.153500
     38 N39         8.9250   -2.5560   -1.4020 n3        1 LJH     -0.357000
     39 C35         6.7790   -3.3270   -0.5360 c1        1 LJH     -0.236500
     40 C34         5.6830   -3.1340    0.2910 c1        1 LJH      0.028000
     41 C26         1.9380   -3.7780    1.1590 c1        1 LJH     -0.113000
     42 HN1        -0.2170   -0.4180    0.1600 hn        1 LJH      0.148000
     43 H5          1.9130    1.2500    0.6370 h1        1 LJH      0.077000
     44 H5A         1.9120   -0.1670   -0.1450 h1        1 LJH      0.077000
     45 H6          1.2540   -0.7000    2.4180 h1        1 LJH      0.110000
     46 H6A         2.5960    0.2500    2.4390 h1        1 LJH      0.110000
     47 H8         -1.1850    3.4960   -1.7520 h1        1 LJH      0.098000
     48 H8A        -2.6880    3.8330   -2.1780 h1        1 LJH      0.098000
     49 H10        -2.7570    3.5830    1.1830 ha        1 LJH      0.166000
     50 H13        -1.8800    7.9990   -0.1320 ha        1 LJH      0.133800
     51 H17        -5.7840    3.1440   -2.3420 ha        1 LJH      0.133800
     52 H28        -0.2500   -5.5690   -0.4790 ha        1 LJH      0.133800
     53 H2          0.3230    1.8300   -0.6720 h1        1 LJH      0.092500
     54 H2A        -0.5540    2.1860    0.5990 h1        1 LJH      0.092500
     55 H3         -1.4420    0.9630   -1.7740 h1        1 LJH      0.088500
     56 H3A        -2.1320    0.4450   -0.4290 h1        1 LJH      0.088500
     57 H27         0.6690   -3.4000   -0.3720 ha        1 LJH      0.133800
     58 H31         3.0680   -4.5550    2.7040 ha        1 LJH      0.165000
     59 H30         2.1670   -6.7370    2.6200 ha        1 LJH      0.133800
     60 H29         0.4870   -7.2390    1.0040 ha        1 LJH      0.133800
     61 H25         1.7060   -2.0560   -0.0380 h1        1 LJH      0.093500
     62 H25A        3.2150   -2.6900   -0.1190 h1        1 LJH      0.093500
     63 H18        -7.8450    2.3060   -3.1740 ha        1 LJH      0.133800
     64 H14        -1.5960    6.2510   -1.6620 ha        1 LJH      0.133800
     65 H11        -3.0480    5.3470    2.7410 ha        1 LJH      0.133800
     66 H21        -4.9180   -0.5440   -0.7420 ha        1 LJH      0.155000
     67 H20        -6.9770   -1.3820   -1.5730 ha        1 LJH      0.139500
     68 HN22       -9.4910    0.4110   -3.2460 hn        1 LJH      0.214750
     69 HN2A       -8.8340   -1.0410   -3.2640 hn        1 LJH      0.214750
     70 H12        -2.6040    7.5490    2.0590 ha        1 LJH      0.133800
     71 H38         6.7470   -0.4530    1.9120 ha        1 LJH      0.153000
     72 H37         8.6430   -0.7760    0.4910 ha        1 LJH      0.140000
     73 HN39        9.6320   -1.9840   -1.3620 hn        1 LJH      0.214750
     74 HN3A        8.8660   -3.1650   -2.0890 hn        1 LJH      0.214750
     75 H35         6.7880   -4.0710   -1.1690 ha        1 LJH      0.139500
     76 H34         4.9050   -3.7530    0.2380 ha        1 LJH      0.151000
@<TRIPOS>BOND
     1    1    2 1   
     2    1    9 1   
     3    1   42 1   
     4    2    3 1   
     5    2   43 1   
     6    2   44 1   
     7    3   17 1   
     8    3   45 1   
     9    3   46 1   
    10    4   11 1   
    11    4   21 1   
    12    4   47 1   
    13    4   48 1   
    14    5   21 1   
    15    5   49 1   
    16    6   20 1   
    17    6   50 1   
    18    7   18 1   
    19    7   51 1   
    20    8   12 1   
    21    8   52 1   
    22    9   10 1   
    23    9   53 1   
    24    9   54 1   
    25   10   11 1   
    26   10   55 1   
    27   10   56 1   
    28   11   23 1   
    29   12   57 1   
    30   13   41 1   
    31   13   58 1   
    32   14   15 1   
    33   14   59 1   
    34   15   60 1   
    35   16   17 1   
    36   16   41 1   
    37   16   61 1   
    38   16   62 1   
    39   17   31 1   
    40   18   63 1   
    41   19   23 1   
    42   19   26 1   
    43   20   64 1   
    44   22   30 1   
    45   22   65 1   
    46   23   24 1   
    47   23   25 1   
    48   26   66 1   
    49   27   28 1   
    50   27   67 1   
    51   28   29 1   
    52   29   68 1   
    53   29   69 1   
    54   30   70 1   
    55   31   32 1   
    56   31   33 1   
    57   34   35 1   
    58   34   40 1   
    59   35   36 1   
    60   35   71 1   
    61   36   72 1   
    62   37   38 1   
    63   37   39 1   
    64   38   73 1   
    65   38   74 1   
    66   39   75 1   
    67   40   76 1   
@<TRIPOS>SUBSTRUCTURE
     1 LJH         1 TEMP              0 ****  ****    0 ROOT
