@<TRIPOS>MOLECULE
LJH
   79    80     1     0     0
SMALL
bcc


@<TRIPOS>ATOM
      1 N1       -332.7970  136.4530   43.7200 n4        1 LJH     -0.767000
      2 C5       -332.1060  137.2790   42.6850 c3        1 LJH      0.089300
      3 C6       -331.1830  136.4170   41.7810 c3        1 LJH      0.135300
      4 C8       -335.8930  135.3480   44.0860 c3        1 LJH      0.187100
      5 C10      -334.7650  133.2610   44.9720 ca        1 LJH     -0.137000
      6 C13      -333.8600  132.6370   42.4060 ca        1 LJH     -0.114000
      7 C17      -339.3900  137.7800   46.5700 ca        1 LJH      0.070000
      8 C28      -326.8440  135.0750   39.8000 ca        1 LJH     -0.114000
      9 C2       -333.6250  137.2970   44.6290 c3        1 LJH      0.089300
     10 C3       -334.3980  136.4930   45.6870 c3        1 LJH      0.135300
     11 N4       -335.7570  136.1080   45.3210 n3        1 LJH     -0.859700
     12 C27      -327.8610  136.0280   39.8130 ca        1 LJH     -0.137000
     13 C31      -327.5080  136.3720   42.1800 ca        1 LJH     -0.137000
     14 C30      -326.4880  135.4210   42.1650 ca        1 LJH     -0.114000
     15 C29      -326.1560  134.7700   40.9760 ca        1 LJH     -0.102000
     16 C25      -329.2710  137.7280   41.0020 c3        1 LJH      0.187100
     17 N7       -330.6190  137.2560   40.7540 n3        1 LJH     -0.859700
     18 C18      -340.7170  137.4940   46.6290 ca        1 LJH     -0.229000
     19 C16      -338.6750  137.9330   45.3300 ca        1 LJH     -0.737000
     20 C14      -334.5830  133.8090   42.6230 ca        1 LJH     -0.137000
     21 C9       -335.0380  134.1300   43.9100 ca        1 LJH     -0.168300
     22 C11      -334.0370  132.0920   44.7530 ca        1 LJH     -0.114000
     23 S15      -337.2220  138.3280   45.2890 s4        1 LJH      1.676800
     24 O24      -336.5630  138.5980   46.4490 o         1 LJH     -0.435900
     25 O23      -336.6090  138.5420   44.0890 o         1 LJH     -0.435900
     26 C21      -339.4580  137.7380   44.1390 ca        1 LJH      0.070000
     27 C20      -340.7860  137.4520   44.1640 ca        1 LJH     -0.229000
     28 C19      -341.4940  137.3270   45.4200 ca        1 LJH      0.337600
     29 N22      -342.8050  137.0700   45.4610 nh        1 LJH     -0.760700
     30 C12      -333.5830  131.7780   43.4710 ca        1 LJH     -0.102000
     31 S32      1314.2740 -534.9960 -175.8800 s4        1 LJH      1.676800
     32 O41      1313.9940 -534.0830 -174.9170 o         1 LJH     -0.435900
     33 O40      1313.3070 -535.5340 -176.6620 o         1 LJH     -0.435900
     34 C33      1315.7070 -535.4250 -176.0860 ca        1 LJH     -0.737000
     35 C38      1316.7860 -534.8990 -175.2960 ca        1 LJH      0.070000
     36 C37      1318.0810 -535.2760 -175.4700 ca        1 LJH     -0.229000
     37 C36      1318.4380 -536.2450 -176.4800 ca        1 LJH      0.337600
     38 N39      1319.7100 -536.6260 -176.6630 nh        1 LJH     -0.760700
     39 C35      1317.3670 -536.7850 -177.2840 ca        1 LJH     -0.229000
     40 C34      1316.0820 -536.3880 -177.0860 ca        1 LJH      0.070000
     41 C26      -328.1990  136.6790   41.0040 ca        1 LJH     -0.168300
     42 HN1      -332.0940  135.9460   44.2710 hn        1 LJH      0.455800
     43 H5       -332.8950  137.7890   42.0610 hx        1 LJH      0.118200
     44 H5A      -331.4970  138.0680   43.2120 hx        1 LJH      0.118200
     45 H6       -331.7990  135.5940   41.3200 h1        1 LJH      0.074700
     46 H6A      -330.3890  135.9420   42.4300 h1        1 LJH      0.074700
     47 H8       -335.7160  136.0660   43.2320 h1        1 LJH      0.073200
     48 H8A      -336.9720  135.0120   44.0210 h1        1 LJH      0.073200
     49 H17      -338.8220  137.9160   47.5120 ha        1 LJH      0.173250
     50 H28      -326.5730  134.5720   38.8580 ha        1 LJH      0.155750
     51 H2       -334.3240  137.9160   43.9910 hx        1 LJH      0.118200
     52 H2A      -332.9230  138.0000   45.1670 hx        1 LJH      0.118200
     53 H3       -333.7890  135.5950   46.0050 h1        1 LJH      0.074700
     54 H3A      -334.4960  137.1720   46.5910 h1        1 LJH      0.074700
     55 H27      -328.3850  136.2820   38.8790 ha        1 LJH      0.132000
     56 H31      -327.7500  136.8970   43.1160 ha        1 LJH      0.132000
     57 H30      -325.9360  135.1920   43.0890 ha        1 LJH      0.155750
     58 H29      -325.3460  134.0250   40.9630 ha        1 LJH      0.160500
     59 H25      -329.2690  138.2760   41.9870 h1        1 LJH      0.073200
     60 H25A     -329.0450  138.4810   40.1900 h1        1 LJH      0.073200
     61 H18      -341.2180  137.3950   47.6090 ha        1 LJH      0.180250
     62 H14      -334.8400  134.4550   41.7680 ha        1 LJH      0.132000
     63 H11      -333.8350  131.4060   45.5930 ha        1 LJH      0.155750
     64 H21      -338.9440  137.8430   43.1620 ha        1 LJH      0.173250
     65 H20      -341.3420  137.3220   43.2180 ha        1 LJH      0.180250
     66 HN22     -343.2880  136.9940   46.3320 hn        1 LJH      0.474550
     67 HN2A     -343.3360  136.9650   44.6230 hn        1 LJH      0.474550
     68 H12      -333.0210  130.8450   43.2970 ha        1 LJH      0.160500
     69 H38      1316.5370 -534.1530 -174.5130 ha        1 LJH      0.173250
     70 H37      1318.8730 -534.8400 -174.8350 ha        1 LJH      0.180250
     71 HN39     1320.4440 -536.2490 -176.1040 hn        1 LJH      0.474550
     72 HN3A     1319.9480 -537.2950 -177.3620 hn        1 LJH      0.474550
     73 H35      1317.6010 -537.5280 -178.0660 ha        1 LJH      0.180250
     74 H34      1315.2760 -536.8170 -177.7160 ha        1 LJH      0.173250
     75 H10      -335.1440  133.4720   45.9840 ha        1 LJH      0.132000
     76 H121     -333.3940  135.7480   43.2580 hn        1 LJH      0.455800
     77 H41      -336.1220  135.5600   46.0880 hn        1 LJH      0.397800
     78 H71      -330.6900  136.8160   39.8550 hn        1 LJH      0.397800
     79 H13      -333.5250  132.3770   41.3890 ha        1 LJH      0.155750
@<TRIPOS>BOND
     1    1    2 1   
     2    1    9 1   
     3    1   42 1   
     4    1   76 1   
     5    2    3 1   
     6    2   43 1   
     7    2   44 1   
     8    3   17 1   
     9    3   45 1   
    10    3   46 1   
    11    4   11 1   
    12    4   21 1   
    13    4   47 1   
    14    4   48 1   
    15    5   21 ar  
    16    5   22 ar  
    17    5   75 1   
    18    6   20 ar  
    19    6   30 ar  
    20    6   79 1   
    21    7   18 ar  
    22    7   19 ar  
    23    7   49 1   
    24    8   12 ar  
    25    8   15 ar  
    26    8   50 1   
    27    9   10 1   
    28    9   51 1   
    29    9   52 1   
    30   10   11 1   
    31   10   53 1   
    32   10   54 1   
    33   11   77 1   
    34   12   41 ar  
    35   12   55 1   
    36   13   14 ar  
    37   13   41 ar  
    38   13   56 1   
    39   14   15 ar  
    40   14   57 1   
    41   15   58 1   
    42   16   17 1   
    43   16   41 1   
    44   16   59 1   
    45   16   60 1   
    46   17   78 1   
    47   18   28 ar  
    48   18   61 1   
    49   19   23 1   
    50   19   26 ar  
    51   20   21 ar  
    52   20   62 1   
    53   22   30 ar  
    54   22   63 1   
    55   23   24 1   
    56   23   25 1   
    57   26   27 ar  
    58   26   64 1   
    59   27   28 ar  
    60   27   65 1   
    61   28   29 1   
    62   29   66 1   
    63   29   67 1   
    64   30   68 1   
    65   31   32 1   
    66   31   33 1   
    67   31   34 1   
    68   34   35 ar  
    69   34   40 ar  
    70   35   36 ar  
    71   35   69 1   
    72   36   37 ar  
    73   36   70 1   
    74   37   38 1   
    75   37   39 ar  
    76   38   71 1   
    77   38   72 1   
    78   39   40 ar  
    79   39   73 1   
    80   40   74 1   
@<TRIPOS>SUBSTRUCTURE
     1 LJH         1 TEMP              0 ****  ****    0 ROOT
