@<TRIPOS>MOLECULE
LJH
   79    80     1     0     0
SMALL
bcc


@<TRIPOS>ATOM
      1 N1       -310.1750  139.0880   61.3400 ny        1 LJH     -0.756000
      2 C5       -308.8670  138.4040   61.1090 c3        1 LJH      0.080300
      3 C6       -307.7180  139.4250   60.8740 c3        1 LJH      0.147800
      4 C8       -312.4480  135.3530   62.7730 c3        1 LJH      0.192600
      5 C10      -311.5050  134.1900   60.7820 ca        1 LJH     -0.129250
      6 C13      -313.1630  135.6050   59.0410 ca        1 LJH     -0.119000
      7 C17      -316.5120  136.5460   64.5270 ca        1 LJH      0.070750
      8 C28      -304.1380  141.7060   58.3930 ca        1 LJH     -0.119000
      9 C2       -311.3010  138.1360   61.5660 c3        1 LJH      0.080300
     10 C3       -311.2790  137.5110   62.9770 c3        1 LJH      0.147800
     11 N4       -312.4750  136.7290   63.2720 n7        1 LJH     -0.855700
     12 C27      -304.5230  140.5450   59.0600 ca        1 LJH     -0.129250
     13 C31      -306.3700  140.2750   57.5220 ca        1 LJH     -0.129250
     14 C30      -305.9800  141.4350   56.8530 ca        1 LJH     -0.119000
     15 C29      -304.8660  142.1530   57.2890 ca        1 LJH     -0.104500
     16 C25      -306.0320  138.5580   59.3300 c3        1 LJH      0.192600
     17 N7       -306.4830  138.7040   60.7010 n7        1 LJH     -0.855700
     18 C18      -317.5730  135.6990   64.5660 ca        1 LJH     -0.228750
     19 C16      -315.9610  137.0590   63.2990 ca        1 LJH     -0.736500
     20 C14      -313.1970  135.8750   60.4080 ca        1 LJH     -0.129250
     21 C9       -312.3690  135.1690   61.2890 ca        1 LJH     -0.146300
     22 C11      -311.4760  133.9180   59.4140 ca        1 LJH     -0.119000
     23 S15      -314.8290  138.0500   63.2880 s4        1 LJH      1.676800
     24 O24      -314.3180  138.4960   64.4680 o         1 LJH     -0.435400
     25 O23      -314.4120  138.5970   62.1110 o         1 LJH     -0.435400
     26 C21      -316.6000  136.5930   62.0960 ca        1 LJH      0.070750
     27 C20      -317.6630  135.7470   62.1010 ca        1 LJH     -0.228750
     28 C19      -318.2170  135.2600   63.3460 ca        1 LJH      0.338100
     29 N22      -319.2740  134.4430   63.3690 nv        1 LJH     -0.760200
     30 C12      -312.3050  134.6240   58.5420 ca        1 LJH     -0.104500
     31 S32      1226.3330 -541.8970 -242.8450 s4        1 LJH      1.676800
     32 O41      1227.0290 -541.8040 -241.6850 o         1 LJH     -0.435400
     33 O40      1224.9970 -542.1260 -242.8640 o         1 LJH     -0.435400
     34 C33      1227.0690 -541.7410 -244.1540 ca        1 LJH     -0.736500
     35 C38      1228.4850 -541.4970 -244.2130 ca        1 LJH      0.070750
     36 C37      1229.1610 -541.3550 -245.3850 ca        1 LJH     -0.228750
     37 C36      1228.4720 -541.4440 -246.6500 ca        1 LJH      0.338100
     38 N39      1229.1240 -541.3060 -247.8120 nv        1 LJH     -0.760200
     39 C35      1227.0490 -541.6890 -246.6110 ca        1 LJH     -0.228750
     40 C34      1226.4000 -541.8270 -245.4240 ca        1 LJH      0.070750
     41 C26      -305.6430  139.8250   58.6280 ca        1 LJH     -0.146300
     42 HN1      -310.0840  139.7170   62.1470 hn        1 LJH      0.453300
     43 H5       -308.9750  137.7340   60.2090 hx        1 LJH      0.119950
     44 H5A      -308.6390  137.7670   62.0100 hx        1 LJH      0.119950
     45 H6       -307.6550  140.1040   61.7710 h1        1 LJH      0.063950
     46 H6A      -307.9750  140.0550   59.9730 h1        1 LJH      0.063950
     47 H8       -311.5940  134.7810   63.2500 h1        1 LJH      0.068950
     48 H8A      -313.4070  134.8690   63.1290 h1        1 LJH      0.068950
     49 H17      -316.0460  136.8750   65.4780 ha        1 LJH      0.173250
     50 H28      -303.2510  142.2650   58.7300 ha        1 LJH      0.152000
     51 H2       -311.2360  137.3200   60.7850 hx        1 LJH      0.119950
     52 H2A      -312.2660  138.7040   61.4060 hx        1 LJH      0.119950
     53 H3       -310.3460  136.8800   63.0760 h1        1 LJH      0.063950
     54 H3A      -311.2180  138.3400   63.7430 h1        1 LJH      0.063950
     55 H27      -303.9330  140.1830   59.9160 ha        1 LJH      0.128750
     56 H31      -307.2360  139.7020   57.1600 ha        1 LJH      0.128750
     57 H30      -306.5460  141.7790   55.9740 ha        1 LJH      0.152000
     58 H29      -304.5560  143.0660   56.7570 ha        1 LJH      0.157500
     59 H25      -305.1370  137.8690   59.3630 h1        1 LJH      0.068950
     60 H25A     -306.8460  138.0360   58.7500 h1        1 LJH      0.068950
     61 H18      -317.9600  135.3420   65.5370 ha        1 LJH      0.180250
     62 H14      -313.8820  136.6470   60.7890 ha        1 LJH      0.128750
     63 H11      -310.8030  133.1360   59.0260 ha        1 LJH      0.152000
     64 H21      -316.1990  136.9560   61.1290 ha        1 LJH      0.173250
     65 H20      -318.1180  135.4260   61.1480 ha        1 LJH      0.180250
     66 HN22     -319.7170  134.1490   62.5240 hn        1 LJH      0.474550
     67 HN2A     -319.6540  134.1160   64.2320 hn        1 LJH      0.474550
     68 H12      -312.2890  134.4010   57.4620 ha        1 LJH      0.157500
     69 H38      1229.0360 -541.4240 -243.2540 ha        1 LJH      0.173250
     70 H37      1230.2490 -541.1680 -245.3740 ha        1 LJH      0.180250
     71 HN39     1230.1060 -541.1370 -247.8320 hn        1 LJH      0.474550
     72 HN3A     1228.6420 -541.3690 -248.6820 hn        1 LJH      0.474550
     73 H35      1226.4870 -541.7640 -247.5580 ha        1 LJH      0.180250
     74 H34      1225.3070 -542.0150 -245.4190 ha        1 LJH      0.173250
     75 H10      -310.8570  133.6150   61.4630 ha        1 LJH      0.128750
     76 H121     -310.3960  139.6620   60.5160 hn        1 LJH      0.453300
     77 H41      -312.5280  136.6720   64.2830 hn        1 LJH      0.395800
     78 H71      -305.7610  139.0860   61.2830 hn        1 LJH      0.395800
     79 H13      -313.8210  136.1590   58.3540 ha        1 LJH      0.152000
@<TRIPOS>BOND
     1    1    2 1   
     2    1    9 1   
     3    1   42 1   
     4    1   76 1   
     5    2    3 1   
     6    2   43 1   
     7    2   44 1   
     8    3   17 1   
     9    3   45 1   
    10    3   46 1   
    11    4   11 1   
    12    4   21 1   
    13    4   47 1   
    14    4   48 1   
    15    5   21 ar  
    16    5   22 ar  
    17    5   75 1   
    18    6   20 ar  
    19    6   30 ar  
    20    6   79 1   
    21    7   18 ar  
    22    7   19 ar  
    23    7   49 1   
    24    8   12 ar  
    25    8   15 ar  
    26    8   50 1   
    27    9   10 1   
    28    9   51 1   
    29    9   52 1   
    30   10   11 1   
    31   10   53 1   
    32   10   54 1   
    33   11   77 1   
    34   12   41 ar  
    35   12   55 1   
    36   13   14 ar  
    37   13   41 ar  
    38   13   56 1   
    39   14   15 ar  
    40   14   57 1   
    41   15   58 1   
    42   16   17 1   
    43   16   41 1   
    44   16   59 1   
    45   16   60 1   
    46   17   78 1   
    47   18   28 ar  
    48   18   61 1   
    49   19   23 1   
    50   19   26 ar  
    51   20   21 ar  
    52   20   62 1   
    53   22   30 ar  
    54   22   63 1   
    55   23   24 1   
    56   23   25 1   
    57   26   27 ar  
    58   26   64 1   
    59   27   28 ar  
    60   27   65 1   
    61   28   29 1   
    62   29   66 1   
    63   29   67 1   
    64   30   68 1   
    65   31   32 1   
    66   31   33 1   
    67   31   34 1   
    68   34   35 ar  
    69   34   40 ar  
    70   35   36 ar  
    71   35   69 1   
    72   36   37 ar  
    73   36   70 1   
    74   37   38 1   
    75   37   39 ar  
    76   38   71 1   
    77   38   72 1   
    78   39   40 ar  
    79   39   73 1   
    80   40   74 1   
@<TRIPOS>SUBSTRUCTURE
     1 LJH         1 TEMP              0 ****  ****    0 ROOT
