@<TRIPOS>MOLECULE
LJH
   76    79     1     0     0
SMALL
bcc


@<TRIPOS>ATOM
      1 N1          0.0710   -0.3440   -0.1500 n3        1 LJH     -0.817200
      2 C5          1.5180   -0.2700   -0.1080 c3        1 LJH      0.135300
      3 C6          2.0530   -0.3030    1.3440 c3        1 LJH      0.219800
      4 C8         -2.8160   -0.9200   -3.6400 c3        1 LJH      0.276600
      5 C10        -0.9140   -2.5150   -4.0600 ca        1 LJH     -0.115750
      6 C13        -0.1500   -1.0920   -6.3350 ca        1 LJH     -0.134750
      7 C17        -4.6950    2.4730   -1.2800 ca        1 LJH      0.033000
      8 C28         4.7300    2.5240    4.6900 ca        1 LJH     -0.134750
      9 C2         -0.4620   -0.0600   -1.4690 c3        1 LJH      0.135300
     10 C3         -2.0100   -0.0850   -1.4710 c3        1 LJH      0.219800
     11 N4         -2.5940    0.1940   -2.7550 n3        1 LJH     -0.803500
     12 C27         4.8090    1.6590    3.6000 ca        1 LJH     -0.115750
     13 C31         3.1600    2.9900    2.4310 ca        1 LJH     -0.115750
     14 C30         3.0860    3.8540    3.5230 ca        1 LJH     -0.134750
     15 C29         3.8700    3.6220    4.6530 ca        1 LJH     -0.124500
     16 C25         4.1380    0.9780    1.2760 c3        1 LJH      0.276600
     17 N7          3.4870   -0.2980    1.4340 n3        1 LJH     -0.803500
     18 C18        -5.9590    2.6840   -0.7610 ca        1 LJH     -0.237500
     19 C16        -4.5010    1.9460   -2.5650 ca        1 LJH     -0.452500
     20 C14        -1.2310   -0.6530   -5.5730 ca        1 LJH     -0.115750
     21 C9         -1.6190   -1.3670   -4.4340 ca        1 LJH     -0.118300
     22 C11         0.1650   -2.9520   -4.8280 ca        1 LJH     -0.134750
     23 S15        -2.9650    1.7300   -3.1880 sy        1 LJH      1.515200
     24 O24        -2.0820    2.6270   -2.5410 o         1 LJH     -0.660550
     25 O23        -3.0300    1.8170   -4.6000 o         1 LJH     -0.660550
     26 C21        -5.6390    1.6430   -3.3270 ca        1 LJH      0.033000
     27 C20        -6.9180    1.8420   -2.8390 ca        1 LJH     -0.237500
     28 C19        -7.1090    2.3630   -1.5310 ca        1 LJH      0.239600
     29 N22        -8.3740    2.5040   -1.0050 nh        1 LJH     -0.851200
     30 C12         0.5480   -2.2420   -5.9650 ca        1 LJH     -0.124500
     31 S32         4.3450   -1.6560    1.7510 sy        1 LJH      1.515200
     32 O41         5.5260   -1.3060    2.4520 o         1 LJH     -0.660550
     33 O40         3.5110   -2.6150    2.3710 o         1 LJH     -0.660550
     34 C33         4.7780   -2.2130    0.2340 ca        1 LJH     -0.452500
     35 C38         6.0150   -1.8760   -0.3340 ca        1 LJH      0.033000
     36 C37         6.4050   -2.3560   -1.5710 ca        1 LJH     -0.237500
     37 C36         5.5430   -3.2110   -2.3080 ca        1 LJH      0.239600
     38 N39         5.8880   -3.6440   -3.5710 nh        1 LJH     -0.851200
     39 C35         4.2930   -3.5630   -1.7320 ca        1 LJH     -0.237500
     40 C34         3.9330   -3.0650   -0.4930 ca        1 LJH      0.033000
     41 C26         4.0260    1.8930    2.4650 ca        1 LJH     -0.118300
     42 HN1        -0.3300    0.2800    0.5270 hn        1 LJH      0.352800
     43 H5          1.9150   -1.1610   -0.6740 h1        1 LJH      0.043450
     44 H5A         1.9130    0.6550   -0.6240 h1        1 LJH      0.043450
     45 H6          1.6630   -1.2300    1.8590 h1        1 LJH      0.059950
     46 H6A         1.6530    0.5960    1.8990 h1        1 LJH      0.059950
     47 H8         -3.6270   -0.6190   -4.3720 h1        1 LJH      0.055450
     48 H8A        -3.2040   -1.7960   -3.0420 h1        1 LJH      0.055450
     49 H13         0.1530   -0.5280   -7.2300 ha        1 LJH      0.131500
     50 H17        -3.8090    2.7410   -0.6750 ha        1 LJH      0.150250
     51 H28         5.3480    2.3380    5.5810 ha        1 LJH      0.131500
     52 H2         -0.1170    0.9410   -1.8650 h1        1 LJH      0.043450
     53 H2A        -0.0850   -0.8570   -2.1720 h1        1 LJH      0.043450
     54 H3         -2.3890    0.6960   -0.7460 h1        1 LJH      0.059950
     55 H3A        -2.3600   -1.0920   -1.1040 h1        1 LJH      0.059950
     56 H27         5.4850    0.7860    3.6250 ha        1 LJH      0.148250
     57 H31         2.5390    3.1750    1.5420 ha        1 LJH      0.148250
     58 H30         2.4070    4.7180    3.4920 ha        1 LJH      0.131500
     59 H29         3.8100    4.3040    5.5140 ha        1 LJH      0.129500
     60 H25         5.2360    0.7870    1.0800 h1        1 LJH      0.055450
     61 H25A        3.7130    1.5010    0.3700 h1        1 LJH      0.055450
     62 H18        -6.0710    3.1010    0.2510 ha        1 LJH      0.138750
     63 H14        -1.7840    0.2590   -5.8600 ha        1 LJH      0.148250
     64 H11         0.7150   -3.8580   -4.5330 ha        1 LJH      0.131500
     65 H21        -5.5050    1.2500   -4.3510 ha        1 LJH      0.150250
     66 H20        -7.7860    1.5940   -3.4670 ha        1 LJH      0.138750
     67 HN22       -9.1450    2.4680   -1.6260 hn        1 LJH      0.420800
     68 HN2A       -8.4800    3.0510   -0.1850 hn        1 LJH      0.420800
     69 H12         1.3990   -2.5870   -6.5690 ha        1 LJH      0.129500
     70 H38         6.7010   -1.2220    0.2360 ha        1 LJH      0.150250
     71 H37         7.3840   -2.0710   -1.9820 ha        1 LJH      0.138750
     72 HN39        6.8350   -3.5600   -3.8470 hn        1 LJH      0.420800
     73 HN3A        5.3740   -4.3980   -3.9580 hn        1 LJH      0.420800
     74 H35         3.6050   -4.2310   -2.2720 ha        1 LJH      0.138750
     75 H34         2.9620   -3.3570   -0.0520 ha        1 LJH      0.150250
     76 H10        -1.2100   -3.0740   -3.1600 ha        1 LJH      0.148250
@<TRIPOS>BOND
     1    1    2 1   
     2    1    9 1   
     3    1   42 1   
     4    2    3 1   
     5    2   43 1   
     6    2   44 1   
     7    3   17 1   
     8    3   45 1   
     9    3   46 1   
    10    4   11 1   
    11    4   21 1   
    12    4   47 1   
    13    4   48 1   
    14    5   21 ar  
    15    5   22 ar  
    16    5   76 1   
    17    6   20 ar  
    18    6   30 ar  
    19    6   49 1   
    20    7   18 ar  
    21    7   19 ar  
    22    7   50 1   
    23    8   12 ar  
    24    8   15 ar  
    25    8   51 1   
    26    9   10 1   
    27    9   52 1   
    28    9   53 1   
    29   10   11 1   
    30   10   54 1   
    31   10   55 1   
    32   11   23 1   
    33   12   41 ar  
    34   12   56 1   
    35   13   14 ar  
    36   13   41 ar  
    37   13   57 1   
    38   14   15 ar  
    39   14   58 1   
    40   15   59 1   
    41   16   17 1   
    42   16   41 1   
    43   16   60 1   
    44   16   61 1   
    45   17   31 1   
    46   18   28 ar  
    47   18   62 1   
    48   19   23 1   
    49   19   26 ar  
    50   20   21 ar  
    51   20   63 1   
    52   22   30 ar  
    53   22   64 1   
    54   23   24 2   
    55   23   25 2   
    56   26   27 ar  
    57   26   65 1   
    58   27   28 ar  
    59   27   66 1   
    60   28   29 1   
    61   29   67 1   
    62   29   68 1   
    63   30   69 1   
    64   31   32 2   
    65   31   33 2   
    66   31   34 1   
    67   34   35 ar  
    68   34   40 ar  
    69   35   36 ar  
    70   35   70 1   
    71   36   37 ar  
    72   36   71 1   
    73   37   38 1   
    74   37   39 ar  
    75   38   72 1   
    76   38   73 1   
    77   39   40 ar  
    78   39   74 1   
    79   40   75 1   
@<TRIPOS>SUBSTRUCTURE
     1 LJH         1 TEMP              0 ****  ****    0 ROOT
