@<TRIPOS>MOLECULE
LJZ
   66    62     1     0     0
SMALL
bcc


@<TRIPOS>ATOM
      1 OAA        -0.1050    0.6950    0.7310 o         1 LJZ     -0.378000
      2 OAB        -5.4040    0.3290   -8.9180 o         1 LJZ     -0.360000
      3 OAC         2.1360   -2.2590    3.6550 o         1 LJZ     -0.171000
      4 OAD        -7.0380   -2.8620   -9.4090 o         1 LJZ     -0.176000
      5 CAG        -2.9920   -0.7640   -2.2640 c2        1 LJZ     -0.132000
      6 CAH        -1.3630    1.4020   -7.6420 c2        1 LJZ     -0.131000
      7 CAI         3.1000   -1.8060    9.0780 c1        1 LJZ      0.392000
      8 CAJ        -9.0120   -0.0070  -14.9700 c1        1 LJZ      0.015000
      9 CAK         4.9090    0.1930    5.7450 c2        1 LJZ     -0.136000
     10 CAL       -10.8000   -0.0460  -18.9190 c2        1 LJZ     -0.489000
     11 CAM         3.0800   -1.0120    8.0140 c2        1 LJZ     -0.521000
     12 CAN        -8.5230    0.0420  -13.8730 c1        1 LJZ     -0.299000
     13 CAO         3.6530    0.6280    5.6260 c2        1 LJZ     -0.184000
     14 CAP       -10.2610   -0.0700  -17.7410 c1        1 LJZ      0.089000
     15 CAQ         1.6380    3.3580   -5.0620 c1        1 LJZ     -0.222000
     16 CAR         2.1710    2.2920   -5.1600 c1        1 LJZ     -0.222000
     17 CAS        -2.4450   -0.1070   -4.5640 c1        1 LJZ     -0.087000
     18 CAT        -1.8360    0.4970   -5.4060 c1        1 LJZ     -0.102000
     19 CAU         1.8740    1.0850    2.2960 c1        1 LJZ     -0.083000
     20 CAV        -4.1880   -1.6180   -9.6420 c3        1 LJZ     -0.198000
     21 CAW         2.1710   -0.3220    2.1630 c3        1 LJZ     -0.256000
     22 CAX        -5.2520   -1.8030  -10.7060 c3        1 LJZ     -0.168000
     23 NAY        -1.9470    0.0170   -1.6750 n2        1 LJZ      0.009000
     24 NAZ        -2.4590    0.9820   -8.4310 n2        1 LJZ     -0.001000
     25 NBA        -2.0670    0.3860   -0.5160 n2        1 LJZ     -0.169000
     26 NBB        -3.2270    0.0970   -8.0750 n2        1 LJZ     -0.132000
     27 NBC         1.5500   -0.1970    4.6300 n4        1 LJZ     -0.062000
     28 NBD        -7.5930   -0.8040  -10.3280 n4        1 LJZ     -0.050000
     29 CBE        -1.1060    1.1760    0.1820 c2        1 LJZ      0.270000
     30 CBF        -4.3300   -0.2960   -8.9170 c2        1 LJZ      0.284000
     31 CBG         1.9900   -1.0620    3.4670 c2        1 LJZ      0.264000
     32 CBH        -6.6160   -1.9430  -10.0920 c2        1 LJZ      0.276000
     33 CBI        -3.1680   -0.8220   -3.6040 c2        1 LJZ      0.017000
     34 CBJ        -1.0810    1.2180   -6.3330 c2        1 LJZ      0.009000
     35 CBK         2.2230   -0.9980    6.8660 c2        1 LJZ      0.101000
     36 CBL        -7.9530    0.1290  -12.6030 c2        1 LJZ      0.171000
     37 CBM         2.4780   -0.2380    5.7590 c2        1 LJZ     -0.155000
     38 CBN        -8.1300   -0.8440  -11.6720 c2        1 LJZ     -0.281000
     39 HAG        -3.6500   -1.3650   -1.6020 h4        1 LJZ      0.163000
     40 HAH        -0.6870    2.0150   -8.2770 h4        1 LJZ      0.186000
     41 HAI         5.1680   -0.8600    5.9310 ha        1 LJZ      0.144000
     42 HAJ       -10.7240    0.8090  -19.6160 ha        1 LJZ      0.215500
     43 HAK         5.7650    0.8800    5.6660 ha        1 LJZ      0.144000
     44 HAL       -11.3920   -0.8760  -19.3470 ha        1 LJZ      0.215500
     45 HAM         3.8760   -0.2210    8.0350 ha        1 LJZ      0.227000
     46 HAN        -9.4570   -0.0510  -15.9660 ha        1 LJZ      0.307000
     47 HAO         3.4300    1.6950    5.4420 ha        1 LJZ      0.152000
     48 HAP        -8.7380   -1.7450  -11.8830 hx        1 LJZ      0.215000
     49 HAQ         1.1790    4.3120   -4.9770 ha        1 LJZ      0.224000
     50 HAR         2.6600    1.3540   -5.2480 ha        1 LJZ      0.224000
     51 HAS        -3.9620   -1.4860   -4.0020 ha        1 LJZ      0.162000
     52 HAT        -0.1620    1.6960   -5.9200 ha        1 LJZ      0.178000
     53 HAU         2.0130    1.7590    1.4470 ha        1 LJZ      0.129000
     54 HAUA       -1.4410    2.2310    0.3280 h5        1 LJZ      0.164000
     55 HAV        -3.1800   -1.6730  -10.1400 hc        1 LJZ      0.155000
     56 HAVA       -4.2370   -2.4490   -8.8840 hc        1 LJZ      0.155000
     57 HAW         3.2160   -0.5350    1.7840 hc        1 LJZ      0.206000
     58 HAWA        1.4610   -0.7870    1.4000 hc        1 LJZ      0.206000
     59 HAX        -5.0470   -2.7600  -11.2680 hc        1 LJZ      0.154000
     60 HAXA       -5.2130   -0.9560  -11.4430 hc        1 LJZ      0.154000
     61 HNBC        0.6160   -0.4980    4.9310 hn        1 LJZ      0.279500
     62 HNBD       -7.0990    0.0880  -10.1400 hn        1 LJZ      0.273000
     63 HBC2        1.4990    0.7890    4.2520 hn        1 LJZ      0.279500
     64 HBD2       -8.3760   -0.8910   -9.6630 hn        1 LJZ      0.273000
     65 CLAE        0.8280   -1.9690    6.9560 cl        1 LJZ      0.038000
     66 CLAF       -7.0250    1.5150  -12.2760 cl        1 LJZ      0.049000
@<TRIPOS>BOND
     1    1   29 1   
     2    2   30 1   
     3    3   31 1   
     4    4   32 1   
     5    5   23 1   
     6    5   33 1   
     7    5   39 1   
     8    6   24 1   
     9    6   34 1   
    10    6   40 1   
    11    7   11 1   
    12    8   12 1   
    13    8   46 1   
    14    9   13 1   
    15    9   41 1   
    16    9   43 1   
    17   10   14 1   
    18   10   42 1   
    19   10   44 1   
    20   11   35 1   
    21   11   45 1   
    22   12   36 1   
    23   13   37 1   
    24   13   47 1   
    25   15   16 1   
    26   15   49 1   
    27   16   50 1   
    28   17   18 1   
    29   17   33 1   
    30   18   34 1   
    31   19   21 1   
    32   19   53 1   
    33   20   22 1   
    34   20   30 1   
    35   20   55 1   
    36   20   56 1   
    37   21   31 1   
    38   21   57 1   
    39   21   58 1   
    40   22   32 1   
    41   22   59 1   
    42   22   60 1   
    43   23   25 1   
    44   24   26 1   
    45   25   29 1   
    46   26   30 1   
    47   27   31 1   
    48   27   37 1   
    49   27   61 1   
    50   27   63 1   
    51   28   32 1   
    52   28   38 1   
    53   28   62 1   
    54   28   64 1   
    55   29   54 1   
    56   33   51 1   
    57   34   52 1   
    58   35   37 1   
    59   35   65 1   
    60   36   38 1   
    61   36   66 1   
    62   38   48 1   
@<TRIPOS>SUBSTRUCTURE
     1 LJZ         1 TEMP              0 ****  ****    0 ROOT
