@<TRIPOS>MOLECULE
LJZ
   64    53     1     0     0
SMALL
bcc


@<TRIPOS>ATOM
      1 OAA         2.3570   -1.1990    4.3620 o         1 LJZ     -0.296000
      2 OAB        -2.8410    1.2010   -3.5720 o         1 LJZ     -0.296000
      3 OAC         5.6300   -4.2250    6.5540 o         1 LJZ     -0.348000
      4 OAD        -4.9560    4.5290   -6.7830 o         1 LJZ     -0.348000
      5 CLAE        8.4380   -5.1300    6.2110 cl        1 LJZ     -0.028000
      6 CLAF       -4.9380    7.3620   -7.5490 cl        1 LJZ     -0.028000
      7 CAG         2.0230   -1.1480    1.9010 c1        1 LJZ     -0.198000
      8 CAH        -1.3670    1.7770   -1.7090 c1        1 LJZ     -0.198000
      9 CAI         7.7220   -8.7070    7.6980 c1        1 LJZ     -0.121200
     10 CAJ        -8.7520    7.8480   -7.7100 c1        1 LJZ     -0.121200
     11 CAK         6.4330   -9.0220    7.2910 c1        1 LJZ     -0.121200
     12 CAL        -9.3400    6.9830   -6.7940 c1        1 LJZ     -0.121200
     13 CAM         8.2890   -7.4940    7.3300 c1        1 LJZ     -0.121200
     14 CAN        -7.3770    7.8390   -7.8880 c1        1 LJZ     -0.096000
     15 CAO         5.7080   -8.1220    6.5140 c1        1 LJZ     -0.121200
     16 CAP        -8.5500    6.1110   -6.0590 c1        1 LJZ     -0.150000
     17 CAQ        -0.2730   -0.6720    1.0760 c1        1 LJZ     -0.121200
     18 CAR        -1.1600    0.0590    0.0880 c1        1 LJZ     -0.121200
     19 CAS         1.8370    0.5000    0.0460 c1        1 LJZ     -0.121200
     20 CAT         0.9430    1.2740   -0.9020 c1        1 LJZ     -0.121200
     21 CAU         4.2440   -2.4440    5.0910 c3        1 LJZ     -0.165000
     22 CAV        -3.5310    2.8900   -5.1330 c3        1 LJZ     -0.165000
     23 CAW         4.3390   -3.8750    4.5710 c3        1 LJZ     -0.178000
     24 CAX        -4.3500    4.0350   -4.5240 c3        1 LJZ     -0.178000
     25 NAY         3.4260   -0.9560    1.8690 n1        1 LJZ     -0.036000
     26 NAZ        -0.8000    2.7230   -2.6140 n1        1 LJZ     -0.036000
     27 NBA         4.1070   -1.1630    2.8940 n1        1 LJZ     -0.036000
     28 NBB        -1.3740    2.9680   -3.7170 n1        1 LJZ     -0.036000
     29 NBC         5.5170   -6.0940    5.2060 n         1 LJZ     -0.324000
     30 NBD        -6.3830    5.4560   -5.2290 n         1 LJZ     -0.324000
     31 CBE         3.4760   -1.5900    4.0930 c1        1 LJZ      0.198000
     32 CBF        -2.5950    2.2940   -4.0550 c1        1 LJZ      0.198000
     33 CBG         5.2350   -4.7070    5.5140 c2        1 LJZ      0.311000
     34 CBH        -5.2460    4.6560   -5.6070 c2        1 LJZ      0.311000
     35 CBI         1.2260   -0.4670    1.0420 c1        1 LJZ      0.035000
     36 CBJ        -0.5580    1.0620   -0.8710 c1        1 LJZ      0.035000
     37 CBK         7.5640   -6.5930    6.5520 c1        1 LJZ     -0.118000
     38 CBL        -6.5880    6.9650   -7.1520 c2        1 LJZ     -0.118000
     39 CBM         6.2750   -6.9080    6.1450 c1        1 LJZ      0.089000
     40 CBN        -7.1740    6.1020   -6.2390 c2        1 LJZ      0.088000
     41 HAG         1.6280   -1.7740    2.5440 ha        1 LJZ      0.159000
     42 HAH        -2.3310    1.6400   -1.6880 ha        1 LJZ      0.159000
     43 HAI         8.2330   -9.3410    8.2460 ha        1 LJZ      0.150000
     44 HAJ        -9.3070    8.4620   -8.2270 ha        1 LJZ      0.150000
     45 HAK         6.0350   -9.8750    7.5500 ha        1 LJZ      0.150000
     46 HAL       -10.3090    6.9900   -6.6680 ha        1 LJZ      0.150000
     47 HAM         9.2010   -7.2710    7.6180 ha        1 LJZ      0.150000
     48 HAN        -6.9630    8.4460   -8.5320 ha        1 LJZ      0.148000
     49 HAO         4.7990   -8.3450    6.2280 ha        1 LJZ      0.150000
     50 HAP        -8.9620    5.5040   -5.4160 ha        1 LJZ      0.178000
     51 HAQ        -0.6620   -1.3190    1.6950 ha        1 LJZ      0.150000
     52 HAR        -2.1230   -0.0730    0.1110 ha        1 LJZ      0.150000
     53 HAS         2.8050    0.6360    0.0270 ha        1 LJZ      0.150000
     54 HAT         1.3360    1.8970   -1.5430 ha        1 LJZ      0.150000
     55 HAU         5.1410   -2.0800    5.2080 hc        1 LJZ      0.137500
     56 HAUA        3.7770   -2.4410    5.9490 hc        1 LJZ      0.137500
     57 HAV        -4.1380    2.1920   -5.4600 hc        1 LJZ      0.137000
     58 HAVA       -2.9940    3.2330   -5.8800 hc        1 LJZ      0.137000
     59 HAW         3.4440   -4.2710    4.5370 hc        1 LJZ      0.118500
     60 HAWA        4.7250   -3.8700    3.6770 hc        1 LJZ      0.118500
     61 HAX        -4.9080    3.6880   -3.8000 hc        1 LJZ      0.118000
     62 HAXA       -3.7460    4.7150   -4.1720 hc        1 LJZ      0.118000
     63 HNBC        5.2630   -6.4430    4.4020 hn        1 LJZ      0.241000
     64 HNBD       -6.5760    5.5840   -4.3480 hn        1 LJZ      0.241000
@<TRIPOS>BOND
     1    1   31 1   
     2    2   32 1   
     3    3   33 1   
     4    4   34 1   
     5    5   37 1   
     6    6   38 1   
     7    7   35 1   
     8    7   41 1   
     9    8   36 1   
    10    8   42 1   
    11    9   13 1   
    12    9   43 1   
    13   10   12 1   
    14   10   44 1   
    15   11   15 1   
    16   11   45 1   
    17   12   46 1   
    18   13   47 1   
    19   14   38 1   
    20   14   48 1   
    21   15   49 1   
    22   16   40 1   
    23   16   50 1   
    24   17   18 1   
    25   17   51 1   
    26   18   52 1   
    27   19   20 1   
    28   19   53 1   
    29   20   54 1   
    30   21   23 1   
    31   21   31 1   
    32   21   55 1   
    33   21   56 1   
    34   22   24 1   
    35   22   32 1   
    36   22   57 1   
    37   22   58 1   
    38   23   33 1   
    39   23   59 1   
    40   23   60 1   
    41   24   34 1   
    42   24   61 1   
    43   24   62 1   
    44   25   27 1   
    45   26   28 1   
    46   29   33 1   
    47   29   39 1   
    48   29   63 1   
    49   30   34 1   
    50   30   40 1   
    51   30   64 1   
    52   37   39 1   
    53   38   40 1   
@<TRIPOS>SUBSTRUCTURE
     1 LJZ         1 TEMP              0 ****  ****    0 ROOT
