@<TRIPOS>MOLECULE
LJZ
   64    66     1     0     0
SMALL
bcc


@<TRIPOS>ATOM
      1 OAA        -4.9120    0.4180    2.6190 o         1 LJZ     -0.523100
      2 OAB         5.7570    1.4570    3.3000 o         1 LJZ     -0.523100
      3 OAC        -7.5570    0.4010   -1.5540 o         1 LJZ     -0.592100
      4 OAD         7.4470    0.3760   -1.2130 o         1 LJZ     -0.592100
      5 CAG        -2.9540    4.2470    1.8220 ce        1 LJZ      0.015600
      6 CAH         2.6480    4.1970    1.9860 ce        1 LJZ      0.015600
      7 CAI       -11.4450   -2.6270   -3.3160 ca        1 LJZ     -0.149500
      8 CAJ        10.9510   -3.0940   -2.9770 ca        1 LJZ     -0.149500
      9 CAK       -10.5170   -1.6450   -3.6570 ca        1 LJZ     -0.102000
     10 CAL         9.9630   -2.1800   -3.3380 ca        1 LJZ     -0.102000
     11 CAM       -11.3950   -3.2110   -2.0530 ca        1 LJZ     -0.096000
     12 CAN        11.1750   -3.3660   -1.6300 ca        1 LJZ     -0.096000
     13 CAO        -9.5410   -1.2390   -2.7540 ca        1 LJZ     -0.150500
     14 CAP         9.1970   -1.5350   -2.3740 ca        1 LJZ     -0.150500
     15 CAQ        -0.8170    5.3940    1.8390 cd        1 LJZ     -0.115000
     16 CAR         0.5290    5.3860    1.8730 cc        1 LJZ     -0.115000
     17 CAS        -0.8450    2.9400    2.1070 cd        1 LJZ     -0.115000
     18 CAT         0.5030    2.9300    2.1440 cc        1 LJZ     -0.115000
     19 CAU        -5.7560    0.9430    0.4090 c3        1 LJZ     -0.147400
     20 CAV         6.1490    1.4740    0.9100 c3        1 LJZ     -0.147400
     21 CAW        -6.7030   -0.2190    0.6190 c3        1 LJZ     -0.152900
     22 CAX         7.1080    0.3340    1.1780 c3        1 LJZ     -0.152900
     23 NAY        -3.9490    3.2490    1.9620 ne        1 LJZ     -0.160600
     24 NAZ         3.4350    3.0150    2.1110 ne        1 LJZ     -0.160600
     25 NBA        -3.8260    2.1370    1.4690 nf        1 LJZ     -0.284900
     26 NBB         4.6550    3.1130    2.0660 nf        1 LJZ     -0.284900
     27 NBC        -8.5000   -1.4490   -0.5200 n         1 LJZ     -0.469100
     28 NBD         8.6560   -1.1770    0.0130 n         1 LJZ     -0.469100
     29 CBE        -4.8700    1.1350    1.6140 c         1 LJZ      0.691000
     30 CBF         5.5010    1.9380    2.1910 c         1 LJZ      0.691000
     31 CBG        -7.6160   -0.3800   -0.5870 c         1 LJZ      0.669100
     32 CBH         7.7430   -0.1390   -0.1200 c         1 LJZ      0.669100
     33 CBI        -1.6000    4.1650    1.9120 cd        1 LJZ      0.000000
     34 CBJ         1.2850    4.1460    2.0020 cd        1 LJZ      0.000000
     35 CBK       -10.4240   -2.8120   -1.1350 ca        1 LJZ     -0.039600
     36 CBL        10.4170   -2.7260   -0.6500 ca        1 LJZ     -0.039600
     37 CBM        -9.4700   -1.8120   -1.4650 ca        1 LJZ      0.081100
     38 CBN         9.4050   -1.7910   -1.0000 ca        1 LJZ      0.081100
     39 HAG        -3.4490    5.2330    1.7040 h4        1 LJZ      0.154500
     40 HAH         3.1540    5.1790    1.8800 h4        1 LJZ      0.154500
     41 HAI       -12.2130   -2.9420   -4.0370 ha        1 LJZ      0.139500
     42 HAJ        11.5520   -3.5990   -3.7460 ha        1 LJZ      0.139500
     43 HAK       -10.5520   -1.1800   -4.6540 ha        1 LJZ      0.139500
     44 HAL         9.7810   -1.9610   -4.4020 ha        1 LJZ      0.139500
     45 HAM       -12.1230   -3.9890   -1.7750 ha        1 LJZ      0.148000
     46 HAN        11.9530   -4.0870   -1.3340 ha        1 LJZ      0.148000
     47 HAO        -8.8220   -0.4580   -3.0560 ha        1 LJZ      0.177500
     48 HAP         8.4230   -0.8180   -2.6960 ha        1 LJZ      0.177500
     49 HAQ        -1.3740    6.3410    1.7430 ha        1 LJZ      0.147250
     50 HAR         1.1040    6.3230    1.8030 ha        1 LJZ      0.147250
     51 HAS        -1.4000    1.9960    2.2320 ha        1 LJZ      0.147250
     52 HAT         1.0480    1.9830    2.2930 ha        1 LJZ      0.147250
     53 HAU        -5.1270    0.7630   -0.5050 hc        1 LJZ      0.097200
     54 HAUA       -6.3400    1.8860    0.2250 hc        1 LJZ      0.097200
     55 HAV         6.6970    2.3280    0.4270 hc        1 LJZ      0.097200
     56 HAVA        5.3530    1.1440    0.1880 hc        1 LJZ      0.097200
     57 HAW        -6.1140   -1.1610    0.7820 hc        1 LJZ      0.084450
     58 HAWA       -7.3210   -0.0440    1.5400 hc        1 LJZ      0.084450
     59 HAX         7.9060    0.6720    1.8930 hc        1 LJZ      0.084450
     60 HAXA        6.5600   -0.5170    1.6640 hc        1 LJZ      0.084450
     61 HNBC       -8.4860   -1.9920    0.3170 hn        1 LJZ      0.329500
     62 HNBD        8.8390   -1.4980    0.9410 hn        1 LJZ      0.329500
     63 CLAE      -10.4110   -3.5620    0.3990 cl        1 LJZ     -0.104900
     64 CLAF       10.7370   -3.0980    0.9860 cl        1 LJZ     -0.104900
@<TRIPOS>BOND
     1    1   29 2   
     2    2   30 2   
     3    3   31 2   
     4    4   32 2   
     5    5   23 1   
     6    5   33 2   
     7    5   39 1   
     8    6   24 1   
     9    6   34 2   
    10    6   40 1   
    11    7    9 ar  
    12    7   11 ar  
    13    7   41 1   
    14    8   10 ar  
    15    8   12 ar  
    16    8   42 1   
    17    9   13 ar  
    18    9   43 1   
    19   10   14 ar  
    20   10   44 1   
    21   11   35 ar  
    22   11   45 1   
    23   12   36 ar  
    24   12   46 1   
    25   13   37 ar  
    26   13   47 1   
    27   14   38 ar  
    28   14   48 1   
    29   15   16 2   
    30   15   33 1   
    31   15   49 1   
    32   16   34 1   
    33   16   50 1   
    34   17   18 2   
    35   17   33 1   
    36   17   51 1   
    37   18   34 1   
    38   18   52 1   
    39   19   21 1   
    40   19   29 1   
    41   19   53 1   
    42   19   54 1   
    43   20   22 1   
    44   20   30 1   
    45   20   55 1   
    46   20   56 1   
    47   21   31 1   
    48   21   57 1   
    49   21   58 1   
    50   22   32 1   
    51   22   59 1   
    52   22   60 1   
    53   23   25 2   
    54   24   26 2   
    55   25   29 1   
    56   26   30 1   
    57   27   31 1   
    58   27   37 1   
    59   27   61 1   
    60   28   32 1   
    61   28   38 1   
    62   28   62 1   
    63   35   37 ar  
    64   35   63 1   
    65   36   38 ar  
    66   36   64 1   
@<TRIPOS>SUBSTRUCTURE
     1 LJZ         1 TEMP              0 ****  ****    0 ROOT
