@<TRIPOS>MOLECULE
LJZ
   64    82     1     0     0
SMALL
bcc


@<TRIPOS>ATOM
      1 OAA         0.0000    0.0000    0.0000 o         1 LJZ     -0.425000
      2 OAB        -4.8070    0.0020   -8.3230 o         1 LJZ     -0.425000
      3 OAC         2.9400   -0.0010    3.7720 o         1 LJZ     -0.291000
      4 OAD        -6.6060    0.0040  -12.7540 o         1 LJZ     -0.291000
      5 CAG         1.9060    0.0030   -3.4340 c2        1 LJZ     -0.414000
      6 CAH        -0.8800    0.0040   -8.2580 c2        1 LJZ     -0.414000
      7 CAI         3.1280   -0.3030    8.5420 c3        1 LJZ      0.309500
      8 CAJ       -10.6440   -0.3450  -15.2960 c3        1 LJZ      0.309500
      9 CAK         3.6830    0.3900    7.4820 DU        1 LJZ      0.011500
     10 CAL        -9.3560   -0.8400  -15.1940 DU        1 LJZ      0.011500
     11 CAM         1.8860   -0.8960    8.4110 c2        1 LJZ      0.086500
     12 CAN       -11.2420    0.2640  -14.2090 c2        1 LJZ      0.086500
     13 CAO         2.9970    0.4910    6.2860 c2        1 LJZ     -0.147500
     14 CAP        -8.6630   -0.7260  -14.0050 c2        1 LJZ     -0.147500
     15 CAQ         1.9140    0.0040   -5.8740 c2        1 LJZ     -0.138500
     16 CAR         1.2370    0.0040   -7.0460 c2        1 LJZ     -0.138500
     17 CAS        -0.2110    0.0010   -4.6460 c2        1 LJZ     -0.115500
     18 CAT        -0.8890    0.0010   -5.8180 c2        1 LJZ     -0.115500
     19 CAU         1.9680    0.0000    1.3040 c3        1 LJZ      0.292500
     20 CAV        -4.9540    0.0030  -10.6800 c3        1 LJZ      0.292500
     21 CAW         0.9740   -0.0010    2.4680 c3        1 LJZ     -0.710500
     22 CAX        -6.4590    0.0030  -10.3990 c3        1 LJZ     -0.710500
     23 NAY         1.2410    0.0010   -2.2820 n2        1 LJZ      0.140500
     24 NAZ        -2.2120    0.0040   -8.2580 n2        1 LJZ      0.140500
     25 NBA         1.8860    0.0020   -1.1640 ns        1 LJZ     -0.228000
     26 NBB        -2.8570    0.0040   -9.3740 ns        1 LJZ     -0.228000
     27 NBC         1.0540   -0.0020    4.9400 n7        1 LJZ     -0.179000
     28 NBD        -8.5600    0.0020  -11.7040 n7        1 LJZ     -0.179000
     29 CBE         1.2140    0.0000    0.0000 c2        1 LJZ      0.868000
     30 CBF        -4.2000    0.0030   -9.3740 c2        1 LJZ      0.868000
     31 CBG         1.7280   -0.0010    3.7720 c3        1 LJZ      0.356500
     32 CBH        -7.2120    0.0030  -11.7040 c3        1 LJZ      0.356500
     33 CBI         1.2060    0.0030   -4.6470 c3        1 LJZ      0.066500
     34 CBJ        -0.1800    0.0030   -7.0450 c3        1 LJZ      0.066500
     35 CBK         1.1950   -0.7990    7.2180 c2        1 LJZ     -0.337000
     36 CBL       -10.5540    0.3810  -13.0160 c2        1 LJZ     -0.337000
     37 CBM         1.7500   -0.1030    6.1500 c3        1 LJZ      0.142500
     38 CBN        -9.2600   -0.1140  -12.9110 c3        1 LJZ      0.142500
     39 HAG         1.7180    0.0320   -2.3680 DU        1 LJZ      0.285500
     40 HAH        -1.8970   -0.0740   -8.6250 DU        1 LJZ      0.285500
     41 HAI         3.1160   -0.2750    7.4590 DU        1 LJZ     -0.308000
     42 HAJ        -9.7120   -0.3140  -14.7450 DU        1 LJZ     -0.308000
     43 HAK         3.6760    0.0000    8.4920 DU        1 LJZ      0.175500
     44 HAL       -10.2810   -0.6360  -15.7200 DU        1 LJZ      0.175500
     45 HAM         2.7740   -0.3350    8.1470 ha        1 LJZ     -0.203500
     46 HAN       -10.4880   -0.2430  -14.7990 ha        1 LJZ     -0.203500
     47 HAO         2.5630   -0.0510    7.1180 DU        1 LJZ      0.114500
     48 HAP        -9.6710   -0.3390  -14.0850 DU        1 LJZ      0.114500
     49 HAQ         2.0570    0.1020   -4.8050 DU        1 LJZ      0.410500
     50 HAR         0.3850   -0.1030   -7.7060 DU        1 LJZ      0.410500
     51 HAS         0.8010    0.0030   -5.0330 ha        1 LJZ      0.070500
     52 HAT        -0.0480    0.0020   -6.5010 ha        1 LJZ      0.070500
     53 HAU         1.4510   -0.0000    0.3520 hc        1 LJZ     -0.471250
     54 HAUA        1.4430   -0.0000    0.3560 hc        1 LJZ     -0.471250
     55 HAV        -4.3800    0.0710   -9.7640 hc        1 LJZ     -0.471250
     56 HAVA       -4.3800   -0.0650   -9.7640 hc        1 LJZ     -0.471250
     57 HAW         0.5610    0.0640    1.4690 hc        1 LJZ      0.333500
     58 HAWA        0.5610   -0.0650    1.4690 hc        1 LJZ      0.333500
     59 HAX        -5.9510   -0.0640   -9.4440 hc        1 LJZ      0.333500
     60 HAXA       -5.9510    0.0690   -9.4440 hc        1 LJZ      0.333500
     61 HNBC        0.5880   -0.0550    4.0560 DU        1 LJZ      0.299500
     62 HNBD       -7.8970    0.3230  -11.0270 DU        1 LJZ      0.299500
     63 ClAE       -0.3650   -1.5430    7.0530 cl        1 LJZ      0.142500
     64 ClAF      -11.3050    1.1470  -11.6510 cl        1 LJZ      0.142500
@<TRIPOS>BOND
     1    1   29 1   
     2    2   30 1   
     3    3   31 1   
     4    4   32 1   
     5    5   23 1   
     6    5   33 1   
     7    5   39 1   
     8    6   24 1   
     9    6   34 1   
    10    6   40 1   
    11    7    9 1   
    12    7   11 1   
    13    7   41 1   
    14    7   43 1   
    15    8   10 1   
    16    8   12 1   
    17    8   42 1   
    18    8   44 1   
    19    9   13 1   
    20    9   41 1   
    21    9   43 1   
    22    9   47 1   
    23   10   14 1   
    24   10   42 1   
    25   10   44 1   
    26   10   48 1   
    27   11   35 1   
    28   11   45 1   
    29   12   36 1   
    30   12   46 1   
    31   13   37 1   
    32   13   47 1   
    33   14   38 1   
    34   14   48 1   
    35   15   16 1   
    36   15   33 1   
    37   15   49 1   
    38   16   34 1   
    39   16   50 1   
    40   17   18 1   
    41   17   33 1   
    42   17   51 1   
    43   18   34 1   
    44   18   52 1   
    45   19   21 1   
    46   19   29 1   
    47   19   53 1   
    48   19   54 1   
    49   20   22 1   
    50   20   30 1   
    51   20   55 1   
    52   20   56 1   
    53   21   31 1   
    54   21   57 1   
    55   21   58 1   
    56   22   32 1   
    57   22   59 1   
    58   22   60 1   
    59   23   25 1   
    60   24   26 1   
    61   25   29 1   
    62   25   39 1   
    63   26   30 1   
    64   26   40 1   
    65   27   31 1   
    66   27   37 1   
    67   27   61 1   
    68   28   32 1   
    69   28   38 1   
    70   28   62 1   
    71   31   61 1   
    72   32   62 1   
    73   33   49 1   
    74   34   50 1   
    75   35   37 1   
    76   35   63 1   
    77   36   38 1   
    78   36   64 1   
    79   37   47 1   
    80   38   48 1   
    81   41   47 1   
    82   42   48 1   
@<TRIPOS>SUBSTRUCTURE
     1 LJZ         1 TEMP              0 ****  ****    0 ROOT
