@<TRIPOS>MOLECULE
LK1
   50    51     1     0     0
SMALL
bcc


@<TRIPOS>ATOM
      1 O28         0.2350    0.2570    0.0370 o         1 LK1     -0.678300
      2 S11         1.6410    0.1830   -0.0990 sy        1 LK1      1.516200
      3 O27         2.3430    0.5000    1.0890 o         1 LK1     -0.678300
      4 N           2.1950    1.0060   -1.3470 n3        1 LK1     -0.922100
      5 CA          2.7480    2.3360   -1.2440 c3        1 LK1      0.094500
      6 C           2.5070    3.1840   -2.5440 c         1 LK1      0.920600
      7 OXT         2.2860    4.4070   -2.3860 o         1 LK1     -0.822300
      8 O           2.5780    2.5940   -3.6650 o         1 LK1     -0.822300
      9 CB          4.2460    2.3760   -0.9030 c3        1 LK1     -0.079400
     10 CG          5.1760    2.1330   -2.0750 c3        1 LK1     -0.172400
     11 CD          5.1620    0.7110   -2.5440 c         1 LK1      0.648100
     12 OE2         5.9080   -0.2000   -2.1510 o         1 LK1     -0.586000
     13 OE1         4.2880    0.3130   -3.5010 oh        1 LK1     -0.621100
     14 C12         2.0080   -1.4260   -0.5390 ca        1 LK1     -0.368500
     15 C17         1.0080   -2.4260   -0.3880 ca        1 LK1     -0.030000
     16 C16         1.2620   -3.7410   -0.6760 ca        1 LK1     -0.166000
     17 C15         2.5430   -4.1430   -1.1510 ca        1 LK1      0.037000
     18 C21         2.8370   -5.4920   -1.4670 ca        1 LK1     -0.186000
     19 C20         4.0970   -5.8230   -1.9440 ca        1 LK1      0.139100
     20 C19         5.0990   -4.8330   -2.1310 ca        1 LK1     -0.215000
     21 C18         4.8200   -3.5230   -1.8250 ca        1 LK1     -0.046000
     22 C14         3.5440   -3.1530   -1.3220 ca        1 LK1     -0.100000
     23 C13         3.2500   -1.8030   -0.9970 ca        1 LK1      0.043000
     24 O22         4.2900   -7.1680   -2.2050 os        1 LK1     -0.338900
     25 C23         5.5270   -7.5120   -2.8370 c3        1 LK1      0.130400
     26 C24         5.4480   -9.0030   -3.1180 c3        1 LK1     -0.086400
     27 C25         6.7220   -9.4820   -3.7780 c3        1 LK1     -0.079400
     28 C26         6.6670  -10.9600   -4.0680 c3        1 LK1     -0.091100
     29 H           3.7100    1.0600   -3.7750 ho        1 LK1      0.494000
     30 HA          2.2110    2.8690   -0.4010 h1        1 LK1      0.058700
     31 HBC1        4.4780    1.6530   -0.0770 hc        1 LK1      0.055200
     32 HBC2        4.4520    3.4120   -0.5210 hc        1 LK1      0.055200
     33 HGC1        6.2260    2.3810   -1.7640 hc        1 LK1      0.079200
     34 HGC2        4.8880    2.8080   -2.9290 hc        1 LK1      0.079200
     35 H17         0.0090   -2.1110   -0.0350 ha        1 LK1      0.157000
     36 H13         4.0580   -1.0580   -1.1390 ha        1 LK1      0.168000
     37 H16         0.4830   -4.5070   -0.5500 ha        1 LK1      0.129000
     38 H21         2.0710   -6.2670   -1.3340 ha        1 LK1      0.143000
     39 H19         6.0880   -5.1090   -2.5200 ha        1 LK1      0.134000
     40 H18         5.5730   -2.7270   -1.9750 ha        1 LK1      0.172000
     41 H231        5.6460   -6.9290   -3.7870 h1        1 LK1      0.039200
     42 H232        6.3780   -7.2800   -2.1430 h1        1 LK1      0.039200
     43 H241        4.5670   -9.2100   -3.7800 hc        1 LK1      0.055200
     44 H242        5.2770   -9.5550   -2.1570 hc        1 LK1      0.055200
     45 H251        6.8860   -8.9160   -4.7330 hc        1 LK1      0.040200
     46 H252        7.5970   -9.2620   -3.1090 hc        1 LK1      0.040200
     47 H261        5.8160  -11.1950   -4.7530 hc        1 LK1      0.032367
     48 H262        7.6140  -11.2960   -4.5540 hc        1 LK1      0.032367
     49 H263        6.5270  -11.5420   -3.1260 hc        1 LK1      0.032367
     50 H2          2.0990    0.7160   -2.2960 hn        1 LK1      0.470800
@<TRIPOS>BOND
     1    1    2 2   
     2    2    3 2   
     3    2    4 1   
     4    2   14 1   
     5    4    5 1   
     6    4   50 1   
     7    5    6 1   
     8    5    9 1   
     9    5   30 1   
    10    6    7 1   
    11    6    8 1   
    12    9   10 1   
    13    9   31 1   
    14    9   32 1   
    15   10   11 1   
    16   10   33 1   
    17   10   34 1   
    18   11   12 2   
    19   11   13 1   
    20   13   29 1   
    21   14   15 ar  
    22   14   23 ar  
    23   15   16 ar  
    24   15   35 1   
    25   16   17 ar  
    26   16   37 1   
    27   17   18 ar  
    28   17   22 ar  
    29   18   19 ar  
    30   18   38 1   
    31   19   20 ar  
    32   19   24 1   
    33   20   21 ar  
    34   20   39 1   
    35   21   22 ar  
    36   21   40 1   
    37   22   23 ar  
    38   23   36 1   
    39   24   25 1   
    40   25   26 1   
    41   25   41 1   
    42   25   42 1   
    43   26   27 1   
    44   26   43 1   
    45   26   44 1   
    46   27   28 1   
    47   27   45 1   
    48   27   46 1   
    49   28   47 1   
    50   28   48 1   
    51   28   49 1   
@<TRIPOS>SUBSTRUCTURE
     1 LK1         1 TEMP              0 ****  ****    0 ROOT
