@<TRIPOS>MOLECULE
LK1
   49    50     1     0     0
SMALL
bcc


@<TRIPOS>ATOM
      1 O28         0.7240    3.7010    1.3760 o         1 LK1     -0.686800
      2 S11         1.4950    4.8320    0.9500 sy        1 LK1      1.506200
      3 O27         0.7100    5.8760    0.4040 o         1 LK1     -0.686800
      4 N           2.7030    4.3590    0.0530 n3        1 LK1     -0.908100
      5 CA          3.2310    5.0220   -1.1270 c3        1 LK1      0.105500
      6 C           2.8660    4.1940   -2.4180 c         1 LK1      0.904600
      7 OXT         2.4570    4.8340   -3.4220 o         1 LK1     -0.843300
      8 O           3.0160    2.9380   -2.3790 o         1 LK1     -0.843300
      9 CB          4.7580    5.1720   -1.1520 c3        1 LK1     -0.061400
     10 CG          5.4360    5.7760    0.0550 c3        1 LK1     -0.184400
     11 CD          5.6880    7.2830   -0.0530 c         1 LK1      0.910600
     12 OE2         6.7310    7.6920   -0.6390 o         1 LK1     -0.870800
     13 OE1         4.8700    8.0860    0.5030 o         1 LK1     -0.870800
     14 C12         2.2130    5.4480    2.3810 ca        1 LK1     -0.371500
     15 C17         1.8870    4.8510    3.6280 ca        1 LK1     -0.026000
     16 C16         2.3770    5.3410    4.8110 ca        1 LK1     -0.195000
     17 C15         3.2520    6.4630    4.8170 ca        1 LK1      0.026000
     18 C21         3.7930    6.9880    6.0170 ca        1 LK1     -0.196000
     19 C20         4.6590    8.0670    5.9560 ca        1 LK1      0.122100
     20 C19         5.0270    8.6540    4.7190 ca        1 LK1     -0.237000
     21 C18         4.5080    8.1490    3.5490 ca        1 LK1     -0.032000
     22 C14         3.6020    7.0550    3.5770 ca        1 LK1     -0.098000
     23 C13         3.0550    6.5380    2.3670 ca        1 LK1      0.047000
     24 O22         5.1060    8.5440    7.1840 os        1 LK1     -0.352900
     25 C23         6.2920    9.3410    7.1290 c3        1 LK1      0.132400
     26 C24         6.7910    9.4520    8.5610 c3        1 LK1     -0.086400
     27 C25         8.0310   10.3170    8.6210 c3        1 LK1     -0.081400
     28 C26         8.5480   10.4400   10.0310 c3        1 LK1     -0.089100
     29 H           3.0390    3.4210    0.0940 hn        1 LK1      0.461800
     30 HA          2.7550    6.0420   -1.1980 h1        1 LK1      0.071700
     31 HBC1        4.9930    5.7950   -2.0570 hc        1 LK1      0.045200
     32 HBC2        5.1900    4.1490   -1.3290 hc        1 LK1      0.045200
     33 HGC1        4.8590    5.5670    0.9900 hc        1 LK1      0.015200
     34 HGC2        6.4400    5.2860    0.1750 hc        1 LK1      0.015200
     35 H17         1.2160    3.9740    3.6230 ha        1 LK1      0.147000
     36 H13         3.3530    7.0460    1.4140 ha        1 LK1      0.233000
     37 H16         2.1100    4.8760    5.7700 ha        1 LK1      0.111000
     38 H21         3.5240    6.5400    6.9820 ha        1 LK1      0.127000
     39 H19         5.7240    9.5020    4.6900 ha        1 LK1      0.127000
     40 H18         4.7960    8.5580    2.5530 ha        1 LK1      0.224000
     41 H231        6.0350   10.3530    6.7170 h1        1 LK1      0.039700
     42 H232        7.0600    8.8550    6.4720 h1        1 LK1      0.039700
     43 H241        7.0140    8.4280    8.9570 hc        1 LK1      0.049200
     44 H242        5.9830    9.8880    9.2040 hc        1 LK1      0.049200
     45 H251        7.7970   11.3360    8.2150 hc        1 LK1      0.041200
     46 H252        8.8280    9.8750    7.9650 hc        1 LK1      0.041200
     47 H261        7.7760   10.9000   10.6950 hc        1 LK1      0.027367
     48 H262        8.8100    9.4360   10.4440 hc        1 LK1      0.027367
     49 H263        9.4620   11.0810   10.0560 hc        1 LK1      0.027367
@<TRIPOS>BOND
     1    1    2 2   
     2    2    3 2   
     3    2    4 1   
     4    2   14 1   
     5    4    5 1   
     6    4   29 1   
     7    5    6 1   
     8    5    9 1   
     9    5   30 1   
    10    6    7 1   
    11    6    8 1   
    12    9   10 1   
    13    9   31 1   
    14    9   32 1   
    15   10   11 1   
    16   10   33 1   
    17   10   34 1   
    18   11   12 1   
    19   11   13 1   
    20   14   15 ar  
    21   14   23 ar  
    22   15   16 ar  
    23   15   35 1   
    24   16   17 ar  
    25   16   37 1   
    26   17   18 ar  
    27   17   22 ar  
    28   18   19 ar  
    29   18   38 1   
    30   19   20 ar  
    31   19   24 1   
    32   20   21 ar  
    33   20   39 1   
    34   21   22 ar  
    35   21   40 1   
    36   22   23 ar  
    37   23   36 1   
    38   24   25 1   
    39   25   26 1   
    40   25   41 1   
    41   25   42 1   
    42   26   27 1   
    43   26   43 1   
    44   26   44 1   
    45   27   28 1   
    46   27   45 1   
    47   27   46 1   
    48   28   47 1   
    49   28   48 1   
    50   28   49 1   
@<TRIPOS>SUBSTRUCTURE
     1 LK1         1 TEMP              0 ****  ****    0 ROOT
