@<TRIPOS>MOLECULE
LK1
   50    51     1     0     0
SMALL
bcc


@<TRIPOS>ATOM
      1 O28         0.4000    0.2470    0.3300 o         1 LK1     -0.678300
      2 S11         1.7850    0.1940    0.0520 sy        1 LK1      1.516200
      3 O27         2.5980    0.5590    1.1520 o         1 LK1     -0.678300
      4 N           2.1910    0.9900   -1.2690 n3        1 LK1     -0.922100
      5 CA          2.7230    2.3320   -1.2600 c3        1 LK1      0.094500
      6 C           2.3330    3.1350   -2.5520 c         1 LK1      0.920600
      7 OXT         2.1020    4.3590   -2.4080 o         1 LK1     -0.822300
      8 O           2.3030    2.5130   -3.6570 o         1 LK1     -0.822300
      9 CB          4.2460    2.4100   -1.0760 c3        1 LK1     -0.079400
     10 CG          5.0580    2.1490   -2.3280 c3        1 LK1     -0.172400
     11 CD          5.0270    0.7130   -2.7530 c         1 LK1      0.648100
     12 OE2         5.8280   -0.1710   -2.4130 o         1 LK1     -0.586000
     13 OE1         4.0690    0.2710   -3.6040 oh        1 LK1     -0.621100
     14 C12         2.1390   -1.4210   -0.3780 ca        1 LK1     -0.368500
     15 C17         1.1800   -2.4330   -0.0990 ca        1 LK1     -0.030000
     16 C16         1.4320   -3.7520   -0.3740 ca        1 LK1     -0.166000
     17 C15         2.6650   -4.1440   -0.9670 ca        1 LK1      0.037000
     18 C21         2.9540   -5.4960   -1.2740 ca        1 LK1     -0.186000
     19 C20         4.1640   -5.8190   -1.8690 ca        1 LK1      0.139100
     20 C19         5.1220   -4.8170   -2.1850 ca        1 LK1     -0.215000
     21 C18         4.8480   -3.5040   -1.8880 ca        1 LK1     -0.046000
     22 C14         3.6230   -3.1420   -1.2670 ca        1 LK1     -0.100000
     23 C13         3.3360   -1.7880   -0.9510 ca        1 LK1      0.043000
     24 O22         4.3580   -7.1680   -2.1110 os        1 LK1     -0.338900
     25 C23         5.5290   -7.5070   -2.8610 c3        1 LK1      0.130400
     26 C24         5.4500   -9.0060   -3.0950 c3        1 LK1     -0.086400
     27 C25         6.6570   -9.4810   -3.8740 c3        1 LK1     -0.079400
     28 C26         6.6010  -10.9670   -4.1200 c3        1 LK1     -0.091100
     29 H           2.0060    0.6680   -2.1940 hn        1 LK1      0.470800
     30 HA          2.2620    2.8800   -0.3820 h1        1 LK1      0.058700
     31 HBC1        4.5760    1.7170   -0.2570 hc        1 LK1      0.055200
     32 HBC2        4.4680    3.4610   -0.7460 hc        1 LK1      0.055200
     33 HGC1        4.6710    2.7920   -3.1680 hc        1 LK1      0.079200
     34 HGC2        6.1280    2.4260   -2.1330 hc        1 LK1      0.079200
     35 H17         0.2160   -2.1260    0.3460 ha        1 LK1      0.157000
     36 H13         4.1090   -1.0340   -1.1950 ha        1 LK1      0.168000
     37 H16         0.6860   -4.5280   -0.1490 ha        1 LK1      0.129000
     38 H21         2.2220   -6.2810   -1.0420 ha        1 LK1      0.143000
     39 H19         6.0720   -5.0870   -2.6640 ha        1 LK1      0.134000
     40 H18         5.5660   -2.6990   -2.1350 ha        1 LK1      0.172000
     41 H231        6.4430   -7.2410   -2.2680 h1        1 LK1      0.039200
     42 H232        5.5350   -6.9480   -3.8330 h1        1 LK1      0.039200
     43 H241        4.5090   -9.2460   -3.6550 hc        1 LK1      0.055200
     44 H242        5.3930   -9.5340   -2.1080 hc        1 LK1      0.055200
     45 H251        7.5930   -9.2280   -3.3080 hc        1 LK1      0.040200
     46 H252        6.7080   -8.9380   -4.8550 hc        1 LK1      0.040200
     47 H261        7.4990  -11.2990   -4.6950 hc        1 LK1      0.032367
     48 H262        5.6880  -11.2350   -4.7040 hc        1 LK1      0.032367
     49 H263        6.5740  -11.5250   -3.1530 hc        1 LK1      0.032367
     50 H2          3.4500    0.9980   -3.8390 ho        1 LK1      0.494000
@<TRIPOS>BOND
     1    1    2 2   
     2    2    3 2   
     3    2    4 1   
     4    2   14 1   
     5    4    5 1   
     6    4   29 1   
     7    5    6 1   
     8    5    9 1   
     9    5   30 1   
    10    6    7 1   
    11    6    8 1   
    12    9   10 1   
    13    9   31 1   
    14    9   32 1   
    15   10   11 1   
    16   10   33 1   
    17   10   34 1   
    18   11   12 2   
    19   11   13 1   
    20   13   50 1   
    21   14   15 ar  
    22   14   23 ar  
    23   15   16 ar  
    24   15   35 1   
    25   16   17 ar  
    26   16   37 1   
    27   17   18 ar  
    28   17   22 ar  
    29   18   19 ar  
    30   18   38 1   
    31   19   20 ar  
    32   19   24 1   
    33   20   21 ar  
    34   20   39 1   
    35   21   22 ar  
    36   21   40 1   
    37   22   23 ar  
    38   23   36 1   
    39   24   25 1   
    40   25   26 1   
    41   25   41 1   
    42   25   42 1   
    43   26   27 1   
    44   26   43 1   
    45   26   44 1   
    46   27   28 1   
    47   27   45 1   
    48   27   46 1   
    49   28   47 1   
    50   28   48 1   
    51   28   49 1   
@<TRIPOS>SUBSTRUCTURE
     1 LK1         1 TEMP              0 ****  ****    0 ROOT
