@<TRIPOS>MOLECULE
LK1
   50    51     1     0     0
SMALL
bcc


@<TRIPOS>ATOM
      1 O28         0.2400    0.2770    0.0130 o         1 LK1     -0.678300
      2 S11         1.6470    0.1900   -0.1040 sy        1 LK1      1.516200
      3 O27         2.3350    0.4900    1.0970 o         1 LK1     -0.678300
      4 N           2.2270    1.0190   -1.3370 n7        1 LK1     -0.922100
      5 CA          2.7910    2.3420   -1.2140 c3        1 LK1      0.094500
      6 C           2.5780    3.2030   -2.5100 c         1 LK1      0.920600
      7 OXT         2.3660    4.4270   -2.3450 o         1 LK1     -0.822300
      8 O           2.6600    2.6220   -3.6350 o         1 LK1     -0.822300
      9 CB          4.2840    2.3640   -0.8510 c3        1 LK1     -0.079400
     10 CG          5.2290    2.1220   -2.0100 c3        1 LK1     -0.172400
     11 CD          5.2080    0.7050   -2.4920 c         1 LK1      0.648100
     12 OE2         5.9390   -0.2170   -2.0950 o         1 LK1     -0.586000
     13 OE1         4.3450    0.3230   -3.4640 oh        1 LK1     -0.621100
     14 C12         2.0040   -1.4190   -0.5530 ca        1 LK1     -0.368500
     15 C17         0.9910   -2.4090   -0.4260 ca        1 LK1     -0.030000
     16 C16         1.2370   -3.7250   -0.7220 ca        1 LK1     -0.166000
     17 C15         2.5200   -4.1360   -1.1820 ca        1 LK1      0.037000
     18 C21         2.8050   -5.4840   -1.5060 ca        1 LK1     -0.186000
     19 C20         4.0680   -5.8240   -1.9680 ca        1 LK1      0.139100
     20 C19         5.0830   -4.8430   -2.1310 ca        1 LK1     -0.215000
     21 C18         4.8130   -3.5330   -1.8170 ca        1 LK1     -0.046000
     22 C14         3.5340   -3.1550   -1.3290 ca        1 LK1     -0.100000
     23 C13         3.2490   -1.8040   -0.9970 ca        1 LK1      0.043000
     24 O22         4.2510   -7.1690   -2.2380 os        1 LK1     -0.338900
     25 C23         5.4940   -7.5200   -2.8570 c3        1 LK1      0.130400
     26 C24         5.4030   -9.0070   -3.1540 c3        1 LK1     -0.086400
     27 C25         6.6810   -9.4930   -3.8010 c3        1 LK1     -0.079400
     28 C26         6.6140  -10.9670   -4.1070 c3        1 LK1     -0.091100
     29 H           3.7790    1.0780   -3.7410 ho        1 LK1      0.494000
     30 HA          2.2460    2.8730   -0.3750 h1        1 LK1      0.058700
     31 HBC1        4.4970    1.6330   -0.0270 hc        1 LK1      0.055200
     32 HBC2        4.4940    3.3960   -0.4560 hc        1 LK1      0.055200
     33 HGC1        4.9610    2.8070   -2.8630 hc        1 LK1      0.079200
     34 HGC2        6.2760    2.3580   -1.6810 hc        1 LK1      0.079200
     35 H17        -0.0090   -2.0880   -0.0850 ha        1 LK1      0.157000
     36 H13         4.0660   -1.0660   -1.1200 ha        1 LK1      0.168000
     37 H16         0.4490   -4.4840   -0.6150 ha        1 LK1      0.129000
     38 H21         2.0300   -6.2530   -1.3910 ha        1 LK1      0.143000
     39 H19         6.0750   -5.1250   -2.5080 ha        1 LK1      0.134000
     40 H18         5.5760   -2.7430   -1.9490 ha        1 LK1      0.172000
     41 H231        5.6310   -6.9280   -3.8000 h1        1 LK1      0.039200
     42 H232        6.3370   -7.3030   -2.1490 h1        1 LK1      0.039200
     43 H241        4.5290   -9.1980   -3.8300 hc        1 LK1      0.055200
     44 H242        5.2130   -9.5660   -2.2010 hc        1 LK1      0.055200
     45 H251        7.5480   -9.2890   -3.1180 hc        1 LK1      0.040200
     46 H252        6.8640   -8.9190   -4.7480 hc        1 LK1      0.040200
     47 H261        5.7710  -11.1870   -4.8050 hc        1 LK1      0.032367
     48 H262        6.4560  -11.5570   -3.1710 hc        1 LK1      0.032367
     49 H263        7.5650  -11.3080   -4.5830 hc        1 LK1      0.032367
     50 H2          2.1430    0.7370   -2.2890 hn        1 LK1      0.470800
@<TRIPOS>BOND
     1    1    2 2   
     2    2    3 2   
     3    2    4 1   
     4    2   14 1   
     5    4    5 1   
     6    4   50 1   
     7    5    6 1   
     8    5    9 1   
     9    5   30 1   
    10    6    7 1   
    11    6    8 1   
    12    9   10 1   
    13    9   31 1   
    14    9   32 1   
    15   10   11 1   
    16   10   33 1   
    17   10   34 1   
    18   11   12 2   
    19   11   13 1   
    20   13   29 1   
    21   14   15 ar  
    22   14   23 ar  
    23   15   16 ar  
    24   15   35 1   
    25   16   17 ar  
    26   16   37 1   
    27   17   18 ar  
    28   17   22 ar  
    29   18   19 ar  
    30   18   38 1   
    31   19   20 ar  
    32   19   24 1   
    33   20   21 ar  
    34   20   39 1   
    35   21   22 ar  
    36   21   40 1   
    37   22   23 ar  
    38   23   36 1   
    39   24   25 1   
    40   25   26 1   
    41   25   41 1   
    42   25   42 1   
    43   26   27 1   
    44   26   43 1   
    45   26   44 1   
    46   27   28 1   
    47   27   45 1   
    48   27   46 1   
    49   28   47 1   
    50   28   48 1   
    51   28   49 1   
@<TRIPOS>SUBSTRUCTURE
     1 LK1         1 TEMP              0 ****  ****    0 ROOT
