@<TRIPOS>MOLECULE
LK2
   50    51     1     0     0
SMALL
bcc


@<TRIPOS>ATOM
      1 O32        -0.2380    0.4350   -0.8360 o         1 LK2     -0.672300
      2 S11         1.0160    0.1610   -0.2240 sy        1 LK2      1.500200
      3 O33         0.9760    0.1270    1.1920 o         1 LK2     -0.672300
      4 N           2.1040    1.2090   -0.7520 n3        1 LK2     -0.907100
      5 CA          3.3350    1.5120   -0.0530 c3        1 LK2      0.076500
      6 C           4.5830    1.0950   -0.9160 c         1 LK2      0.903600
      7 O           5.3750    0.2720   -0.3810 o         1 LK2     -0.820800
      8 OXT         4.6790    1.5590   -2.0820 o         1 LK2     -0.820800
      9 CB          3.4570    2.9750    0.3870 c3        1 LK2     -0.065400
     10 CG          3.6310    3.9580   -0.7540 c3        1 LK2     -0.189400
     11 CD          2.5870    5.0280   -0.7700 c         1 LK2      0.631100
     12 OE2         2.7680    6.2490   -0.7960 o         1 LK2     -0.536000
     13 OE1         1.2620    4.6890   -0.7840 oh        1 LK2     -0.601100
     14 C12         1.5400   -1.3500   -0.7880 ca        1 LK2     -0.392500
     15 C13         0.5630   -2.2520   -1.2960 ca        1 LK2     -0.031000
     16 C14         0.9000   -3.5050   -1.7320 ca        1 LK2     -0.168000
     17 C15         2.2560   -3.9380   -1.7050 ca        1 LK2      0.038000
     18 C16         3.2430   -3.0440   -1.2180 ca        1 LK2     -0.102000
     19 C17         2.8550   -1.7590   -0.7520 ca        1 LK2      0.045000
     20 C21         2.6440   -5.2210   -2.1610 ca        1 LK2     -0.188000
     21 C20         3.9830   -5.5810   -2.1320 ca        1 LK2      0.140100
     22 C19         4.9780   -4.6840   -1.6600 ca        1 LK2     -0.217000
     23 C18         4.6080   -3.4380   -1.2140 ca        1 LK2     -0.041000
     24 O22         4.2570   -6.8620   -2.5800 os        1 LK2     -0.338900
     25 C23         5.6430   -7.1940   -2.7170 c3        1 LK2      0.130400
     26 C24         5.6770   -8.5790   -3.3400 c3        1 LK2     -0.086400
     27 C29         7.1060   -9.0410   -3.5160 c3        1 LK2     -0.079400
     28 C44         7.1660  -10.4140   -4.1350 c3        1 LK2     -0.091100
     29 H           1.1730    3.7250   -0.7620 ho        1 LK2      0.437000
     30 HA          3.3550    0.8900    0.8940 h1        1 LK2      0.064700
     31 HBC1        2.5710    3.2580    1.0150 hc        1 LK2      0.045200
     32 HBC2        4.3630    3.0260    1.0490 hc        1 LK2      0.045200
     33 HGC1        4.6360    4.4520   -0.6810 hc        1 LK2      0.106200
     34 HGC2        3.6160    3.4170   -1.7450 hc        1 LK2      0.106200
     35 H13        -0.4870   -1.9090   -1.3390 ha        1 LK2      0.150000
     36 H17         3.6650   -1.0940   -0.3750 ha        1 LK2      0.199000
     37 H14         0.1350   -4.1950   -2.1170 ha        1 LK2      0.127000
     38 H21         1.8870   -5.9240   -2.5350 ha        1 LK2      0.142000
     39 H18         5.3600   -2.7120   -0.8570 ha        1 LK2      0.174000
     40 H19         6.0360   -4.9780   -1.6540 ha        1 LK2      0.135000
     41 H231        6.1270   -7.1970   -1.7050 h1        1 LK2      0.039700
     42 H232        6.1520   -6.4430   -3.3760 h1        1 LK2      0.039700
     43 H241        5.1520   -8.5550   -4.3300 hc        1 LK2      0.054200
     44 H242        5.1150   -9.2960   -2.6850 hc        1 LK2      0.054200
     45 H291        7.6220   -9.0540   -2.5200 hc        1 LK2      0.040700
     46 H292        7.6590   -8.3110   -4.1650 hc        1 LK2      0.040700
     47 H441        6.6780  -10.4150   -5.1390 hc        1 LK2      0.032367
     48 H442        8.2280  -10.7380   -4.2570 hc        1 LK2      0.032367
     49 H443        6.6410  -11.1600   -3.4900 hc        1 LK2      0.032367
     50 H2          2.1500    1.4950   -1.7060 hn        1 LK2      0.459800
@<TRIPOS>BOND
     1    1    2 2   
     2    2    3 2   
     3    2    4 1   
     4    2   14 1   
     5    4    5 1   
     6    4   50 1   
     7    5    6 1   
     8    5    9 1   
     9    5   30 1   
    10    6    7 1   
    11    6    8 1   
    12    9   10 1   
    13    9   31 1   
    14    9   32 1   
    15   10   11 1   
    16   10   33 1   
    17   10   34 1   
    18   11   12 2   
    19   11   13 1   
    20   13   29 1   
    21   14   15 ar  
    22   14   19 ar  
    23   15   16 ar  
    24   15   35 1   
    25   16   17 ar  
    26   16   37 1   
    27   17   18 ar  
    28   17   20 ar  
    29   18   19 ar  
    30   18   23 ar  
    31   19   36 1   
    32   20   21 ar  
    33   20   38 1   
    34   21   22 ar  
    35   21   24 1   
    36   22   23 ar  
    37   22   40 1   
    38   23   39 1   
    39   24   25 1   
    40   25   26 1   
    41   25   41 1   
    42   25   42 1   
    43   26   27 1   
    44   26   43 1   
    45   26   44 1   
    46   27   28 1   
    47   27   45 1   
    48   27   46 1   
    49   28   47 1   
    50   28   48 1   
    51   28   49 1   
@<TRIPOS>SUBSTRUCTURE
     1 LK2         1 TEMP              0 ****  ****    0 ROOT
