@<TRIPOS>MOLECULE
LK2
   50    51     1     0     0
SMALL
bcc


@<TRIPOS>ATOM
      1 O32        -0.2380    0.4310   -0.8180 o         1 LK2     -0.672300
      2 S11         1.0180    0.1540   -0.2080 sy        1 LK2      1.500200
      3 O33         0.9780    0.1130    1.2080 o         1 LK2     -0.672300
      4 N           2.1050    1.2050   -0.7330 n3        1 LK2     -0.907100
      5 CA          3.3360    1.5040   -0.0330 c3        1 LK2      0.076500
      6 C           4.5830    1.0920   -0.8990 c         1 LK2      0.903600
      7 O           5.3760    0.2670   -0.3690 o         1 LK2     -0.820800
      8 OXT         4.6780    1.5620   -2.0630 o         1 LK2     -0.820800
      9 CB          3.4590    2.9650    0.4150 c3        1 LK2     -0.065400
     10 CG          3.6310    3.9540   -0.7210 c3        1 LK2     -0.189400
     11 CD          2.5870    5.0240   -0.7310 c         1 LK2      0.631100
     12 OE2         1.2620    4.6840   -0.7460 oh        1 LK2     -0.601100
     13 OE1         2.7680    6.2450   -0.7510 o         1 LK2     -0.536000
     14 C12         1.5400   -1.3540   -0.7800 ca        1 LK2     -0.392500
     15 C13         0.5630   -2.2530   -1.2920 ca        1 LK2     -0.031000
     16 C14         0.9000   -3.5050   -1.7340 ca        1 LK2     -0.168000
     17 C15         2.2570   -3.9380   -1.7110 ca        1 LK2      0.038000
     18 C16         3.2430   -3.0460   -1.2200 ca        1 LK2     -0.102000
     19 C17         2.8560   -1.7630   -0.7480 ca        1 LK2      0.045000
     20 C21         2.6440   -5.2190   -2.1730 ca        1 LK2     -0.188000
     21 C20         3.9830   -5.5780   -2.1470 ca        1 LK2      0.140100
     22 C19         4.9780   -4.6830   -1.6720 ca        1 LK2     -0.217000
     23 C18         4.6080   -3.4400   -1.2190 ca        1 LK2     -0.041000
     24 O22         4.2560   -6.8570   -2.6020 os        1 LK2     -0.338900
     25 C23         5.6420   -7.1880   -2.7410 c3        1 LK2      0.130400
     26 C24         5.6750   -8.5710   -3.3710 c3        1 LK2     -0.086400
     27 C29         7.1050   -9.0320   -3.5510 c3        1 LK2     -0.079400
     28 C44         7.1650  -10.4020   -4.1760 c3        1 LK2     -0.091100
     29 H           1.1730    3.7210   -0.7280 ho        1 LK2      0.437000
     30 HA          3.3570    0.8770    0.9110 h1        1 LK2      0.064700
     31 HBC1        4.3650    3.0120    1.0760 hc        1 LK2      0.045200
     32 HBC2        2.5730    3.2440    1.0450 hc        1 LK2      0.045200
     33 HGC1        3.6160    3.4180   -1.7160 hc        1 LK2      0.106200
     34 HGC2        4.6360    4.4480   -0.6470 hc        1 LK2      0.106200
     35 H13        -0.4870   -1.9110   -1.3320 ha        1 LK2      0.150000
     36 H17         3.6660   -1.0990   -0.3680 ha        1 LK2      0.199000
     37 H14         0.1350   -4.1920   -2.1210 ha        1 LK2      0.127000
     38 H21         1.8870   -5.9190   -2.5490 ha        1 LK2      0.142000
     39 H18         5.3610   -2.7150   -0.8590 ha        1 LK2      0.174000
     40 H19         6.0360   -4.9770   -1.6680 ha        1 LK2      0.135000
     41 H231        6.1270   -7.1960   -1.7300 h1        1 LK2      0.039700
     42 H232        6.1510   -6.4340   -3.3970 h1        1 LK2      0.039700
     43 H241        5.1500   -8.5410   -4.3600 hc        1 LK2      0.054200
     44 H242        5.1150   -9.2900   -2.7190 hc        1 LK2      0.054200
     45 H291        7.6570   -8.2990   -4.1970 hc        1 LK2      0.040700
     46 H292        7.6220   -9.0490   -2.5550 hc        1 LK2      0.040700
     47 H441        6.6400  -11.1510   -3.5340 hc        1 LK2      0.032367
     48 H442        6.6760  -10.3980   -5.1800 hc        1 LK2      0.032367
     49 H443        8.2260  -10.7250   -4.3010 hc        1 LK2      0.032367
     50 H2          2.1500    1.4960   -1.6840 hn        1 LK2      0.459800
@<TRIPOS>BOND
     1    1    2 2   
     2    2    3 2   
     3    2    4 1   
     4    2   14 1   
     5    4    5 1   
     6    4   50 1   
     7    5    6 1   
     8    5    9 1   
     9    5   30 1   
    10    6    7 1   
    11    6    8 1   
    12    9   10 1   
    13    9   31 1   
    14    9   32 1   
    15   10   11 1   
    16   10   33 1   
    17   10   34 1   
    18   11   12 1   
    19   11   13 2   
    20   12   29 1   
    21   14   15 ar  
    22   14   19 ar  
    23   15   16 ar  
    24   15   35 1   
    25   16   17 ar  
    26   16   37 1   
    27   17   18 ar  
    28   17   20 ar  
    29   18   19 ar  
    30   18   23 ar  
    31   19   36 1   
    32   20   21 ar  
    33   20   38 1   
    34   21   22 ar  
    35   21   24 1   
    36   22   23 ar  
    37   22   40 1   
    38   23   39 1   
    39   24   25 1   
    40   25   26 1   
    41   25   41 1   
    42   25   42 1   
    43   26   27 1   
    44   26   43 1   
    45   26   44 1   
    46   27   28 1   
    47   27   45 1   
    48   27   46 1   
    49   28   47 1   
    50   28   48 1   
    51   28   49 1   
@<TRIPOS>SUBSTRUCTURE
     1 LK2         1 TEMP              0 ****  ****    0 ROOT
