@<TRIPOS>MOLECULE
LK2
   49    50     1     0     0
SMALL
bcc


@<TRIPOS>ATOM
      1 O32         0.9630    2.5740    2.0050 o         1 LK2     -0.685800
      2 S11        -0.3150    2.1680    1.5080 sy        1 LK2      1.501200
      3 O33        -1.3440    2.2360    2.4830 o         1 LK2     -0.685800
      4 N          -0.2190    0.7840    0.7730 n3        1 LK2     -0.910100
      5 CA         -1.3340   -0.1050    0.4810 c3        1 LK2      0.104500
      6 C          -1.6030   -0.1550   -1.0600 c         1 LK2      0.900600
      7 O          -0.6800   -0.4770   -1.8510 o         1 LK2     -0.843300
      8 OXT        -2.7570    0.2250   -1.4350 o         1 LK2     -0.843300
      9 CB         -1.1770   -1.5090    1.0780 c3        1 LK2     -0.047400
     10 CG          0.1360   -2.1990    0.8060 c3        1 LK2     -0.186400
     11 CD          0.2050   -3.5990    1.4290 c         1 LK2      0.905600
     12 OE2         1.3480   -4.1440    1.5260 o         1 LK2     -0.874800
     13 OE1        -0.8520   -4.1730    1.8280 o         1 LK2     -0.874800
     14 C12        -0.7220    3.3180    0.2930 ca        1 LK2     -0.356500
     15 C13        -0.0620    4.5750    0.2980 ca        1 LK2     -0.022000
     16 C14        -0.3670    5.5530   -0.6150 ca        1 LK2     -0.187000
     17 C15        -1.3490    5.3190   -1.6180 ca        1 LK2      0.026000
     18 C16        -2.0010    4.0610   -1.6450 ca        1 LK2     -0.093000
     19 C17        -1.6820    3.0810   -0.6640 ca        1 LK2      0.033000
     20 C21        -1.6750    6.2920   -2.5960 ca        1 LK2     -0.183000
     21 C20        -2.6190    5.9930   -3.5630 ca        1 LK2      0.119100
     22 C19        -3.2640    4.7290   -3.6070 ca        1 LK2     -0.225000
     23 C18        -2.9520    3.7810   -2.6620 ca        1 LK2     -0.036000
     24 O22        -2.9160    7.0200   -4.4520 os        1 LK2     -0.349900
     25 C23        -3.4720    6.5990   -5.7010 c3        1 LK2      0.132400
     26 C24        -3.3410    7.7840   -6.6430 c3        1 LK2     -0.086400
     27 C29        -3.9470    7.4570   -7.9900 c3        1 LK2     -0.080400
     28 C44        -3.8260    8.6180   -8.9430 c3        1 LK2     -0.090100
     29 H           0.6140    0.4500    0.3360 hn        1 LK2      0.476800
     30 HA         -2.2540    0.3540    0.9600 h1        1 LK2      0.038700
     31 HBC1       -2.0070   -2.1390    0.6590 hc        1 LK2      0.043200
     32 HBC2       -1.3330   -1.4530    2.1880 hc        1 LK2      0.043200
     33 HGC1        0.2890   -2.2890   -0.3000 hc        1 LK2      0.034700
     34 HGC2        0.9930   -1.6070    1.2190 hc        1 LK2      0.034700
     35 H13         0.7190    4.7470    1.0600 ha        1 LK2      0.147000
     36 H17        -2.2280    2.1090   -0.7210 ha        1 LK2      0.220000
     37 H14         0.1450    6.5240   -0.5960 ha        1 LK2      0.115000
     38 H21        -1.1810    7.2720   -2.5810 ha        1 LK2      0.132000
     39 H18        -3.4140    2.7750   -2.6770 ha        1 LK2      0.182000
     40 H19        -4.0020    4.5110   -4.3900 ha        1 LK2      0.127000
     41 H231       -4.5500    6.3290   -5.5470 h1        1 LK2      0.038700
     42 H232       -2.9170    5.7080   -6.0960 h1        1 LK2      0.038700
     43 H241       -2.2580    8.0480   -6.7580 hc        1 LK2      0.050700
     44 H242       -3.8530    8.6740   -6.1930 hc        1 LK2      0.050700
     45 H291       -5.0280    7.1880   -7.8590 hc        1 LK2      0.040700
     46 H292       -3.4330    6.5590   -8.4230 hc        1 LK2      0.040700
     47 H441       -4.3520    9.5170   -8.5380 hc        1 LK2      0.028700
     48 H442       -2.7530    8.8850   -9.1040 hc        1 LK2      0.028700
     49 H443       -4.2780    8.3590   -9.9310 hc        1 LK2      0.028700
@<TRIPOS>BOND
     1    1    2 2   
     2    2    3 2   
     3    2    4 1   
     4    2   14 1   
     5    4    5 1   
     6    4   29 1   
     7    5    6 1   
     8    5    9 1   
     9    5   30 1   
    10    6    7 1   
    11    6    8 1   
    12    9   10 1   
    13    9   31 1   
    14    9   32 1   
    15   10   11 1   
    16   10   33 1   
    17   10   34 1   
    18   11   12 1   
    19   11   13 1   
    20   14   15 ar  
    21   14   19 ar  
    22   15   16 ar  
    23   15   35 1   
    24   16   17 ar  
    25   16   37 1   
    26   17   18 ar  
    27   17   20 ar  
    28   18   19 ar  
    29   18   23 ar  
    30   19   36 1   
    31   20   21 ar  
    32   20   38 1   
    33   21   22 ar  
    34   21   24 1   
    35   22   23 ar  
    36   22   40 1   
    37   23   39 1   
    38   24   25 1   
    39   25   26 1   
    40   25   41 1   
    41   25   42 1   
    42   26   27 1   
    43   26   43 1   
    44   26   44 1   
    45   27   28 1   
    46   27   45 1   
    47   27   46 1   
    48   28   47 1   
    49   28   48 1   
    50   28   49 1   
@<TRIPOS>SUBSTRUCTURE
     1 LK2         1 TEMP              0 ****  ****    0 ROOT
