@<TRIPOS>MOLECULE
LK2
   50    51     1     0     0
SMALL
bcc


@<TRIPOS>ATOM
      1 O32        -0.2310    0.4420   -0.8200 o         1 LK2     -0.672300
      2 S11         1.0250    0.1620   -0.2100 sy        1 LK2      1.500200
      3 O33         0.9860    0.1230    1.2060 o         1 LK2     -0.672300
      4 N           2.1140    1.2100   -0.7360 n7        1 LK2     -0.907100
      5 CA          3.3460    1.5070   -0.0370 c3        1 LK2      0.076500
      6 C           4.5920    1.0920   -0.9040 c         1 LK2      0.903600
      7 O           5.3830    0.2650   -0.3740 o         1 LK2     -0.820800
      8 OXT         4.6870    1.5600   -2.0690 o         1 LK2     -0.820800
      9 CB          3.4730    2.9680    0.4080 c3        1 LK2     -0.065400
     10 CG          3.6460    3.9550   -0.7290 c3        1 LK2     -0.189400
     11 CD          2.6050    5.0280   -0.7390 c         1 LK2      0.631100
     12 OE2         2.7880    6.2490   -0.7600 o         1 LK2     -0.536000
     13 OE1         1.2790    4.6910   -0.7530 oh        1 LK2     -0.601100
     14 C12         1.5440   -1.3480   -0.7810 ca        1 LK2     -0.392500
     15 C13         0.5640   -2.2450   -1.2910 ca        1 LK2     -0.031000
     16 C14         0.8980   -3.4980   -1.7330 ca        1 LK2     -0.168000
     17 C15         2.2530   -3.9340   -1.7090 ca        1 LK2      0.038000
     18 C16         3.2420   -3.0440   -1.2200 ca        1 LK2     -0.102000
     19 C17         2.8580   -1.7590   -0.7490 ca        1 LK2      0.045000
     20 C21         2.6370   -5.2160   -2.1700 ca        1 LK2     -0.188000
     21 C20         3.9760   -5.5790   -2.1450 ca        1 LK2      0.140100
     22 C19         4.9730   -4.6860   -1.6710 ca        1 LK2     -0.217000
     23 C18         4.6060   -3.4410   -1.2200 ca        1 LK2     -0.041000
     24 O22         4.2460   -6.8580   -2.5990 os        1 LK2     -0.338900
     25 C23         5.6310   -7.1940   -2.7370 c3        1 LK2      0.130400
     26 C24         5.6610   -8.5780   -3.3640 c3        1 LK2     -0.086400
     27 C29         7.0900   -9.0430   -3.5420 c3        1 LK2     -0.079400
     28 C44         7.1460  -10.4140   -4.1650 c3        1 LK2     -0.091100
     29 H           2.1590    1.5000   -1.6880 hn        1 LK2      0.459800
     30 HA          3.3660    0.8810    0.9070 h1        1 LK2      0.064700
     31 HBC1        2.5880    3.2510    1.0390 hc        1 LK2      0.045200
     32 HBC2        4.3800    3.0140    1.0690 hc        1 LK2      0.045200
     33 HGC1        4.6530    4.4470   -0.6560 hc        1 LK2      0.106200
     34 HGC2        3.6290    3.4180   -1.7230 hc        1 LK2      0.106200
     35 H13        -0.4850   -1.9010   -1.3310 ha        1 LK2      0.150000
     36 H17         3.6700   -1.0970   -0.3700 ha        1 LK2      0.199000
     37 H14         0.1310   -4.1840   -2.1190 ha        1 LK2      0.127000
     38 H21         1.8790   -5.9160   -2.5460 ha        1 LK2      0.142000
     39 H18         5.3610   -2.7170   -0.8610 ha        1 LK2      0.174000
     40 H19         6.0310   -4.9820   -1.6680 ha        1 LK2      0.135000
     41 H231        6.1150   -7.2010   -1.7250 h1        1 LK2      0.039700
     42 H232        6.1420   -6.4430   -3.3940 h1        1 LK2      0.039700
     43 H241        5.1360   -8.5480   -4.3540 hc        1 LK2      0.054200
     44 H242        5.0980   -9.2940   -2.7110 hc        1 LK2      0.054200
     45 H291        7.6440   -8.3120   -4.1890 hc        1 LK2      0.040700
     46 H292        7.6060   -9.0600   -2.5460 hc        1 LK2      0.040700
     47 H441        8.2060  -10.7400   -4.2890 hc        1 LK2      0.032367
     48 H442        6.6570  -10.4100   -5.1700 hc        1 LK2      0.032367
     49 H443        6.6190  -11.1600   -3.5230 hc        1 LK2      0.032367
     50 H2          1.1880    3.7280   -0.7340 ho        1 LK2      0.437000
@<TRIPOS>BOND
     1    1    2 2   
     2    2    3 2   
     3    2    4 1   
     4    2   14 1   
     5    4    5 1   
     6    4   29 1   
     7    5    6 1   
     8    5    9 1   
     9    5   30 1   
    10    6    7 1   
    11    6    8 1   
    12    9   10 1   
    13    9   31 1   
    14    9   32 1   
    15   10   11 1   
    16   10   33 1   
    17   10   34 1   
    18   11   12 2   
    19   11   13 1   
    20   13   50 1   
    21   14   15 ar  
    22   14   19 ar  
    23   15   16 ar  
    24   15   35 1   
    25   16   17 ar  
    26   16   37 1   
    27   17   18 ar  
    28   17   20 ar  
    29   18   19 ar  
    30   18   23 ar  
    31   19   36 1   
    32   20   21 ar  
    33   20   38 1   
    34   21   22 ar  
    35   21   24 1   
    36   22   23 ar  
    37   22   40 1   
    38   23   39 1   
    39   24   25 1   
    40   25   26 1   
    41   25   41 1   
    42   25   42 1   
    43   26   27 1   
    44   26   43 1   
    45   26   44 1   
    46   27   28 1   
    47   27   45 1   
    48   27   46 1   
    49   28   47 1   
    50   28   48 1   
    51   28   49 1   
@<TRIPOS>SUBSTRUCTURE
     1 LK2         1 TEMP              0 ****  ****    0 ROOT
