@<TRIPOS>MOLECULE
LK3
   53    54     1     0     0
SMALL
bcc


@<TRIPOS>ATOM
      1 O28        -0.1670    0.0400   -0.4420 o         1 LK3     -0.672300
      2 S11         1.1910   -0.0940   -0.0370 sy        1 LK3      1.500200
      3 O27         1.3620   -0.3530    1.3450 o         1 LK3     -0.672300
      4 N           2.0110    1.2010   -0.4960 n3        1 LK3     -0.907100
      5 CA          3.2670    1.6090    0.0980 c3        1 LK3      0.076500
      6 C           4.4270    1.5610   -0.9640 c         1 LK3      0.903600
      7 OXT         5.4070    0.8220   -0.6790 o         1 LK3     -0.820800
      8 O           4.2780    2.2080   -2.0340 o         1 LK3     -0.820800
      9 CB          3.2190    2.9850    0.7700 c3        1 LK3     -0.065400
     10 CG          3.0670    4.1460   -0.1920 c3        1 LK3     -0.189400
     11 CD          1.8770    5.0010    0.1020 c         1 LK3      0.631100
     12 OE2         1.8570    6.2240    0.2700 o         1 LK3     -0.536000
     13 OE1         0.6340    4.4350    0.1830 oh        1 LK3     -0.601100
     14 C12         1.8590   -1.3820   -0.9170 ca        1 LK3     -0.392500
     15 C17         0.9740   -2.3550   -1.4600 ca        1 LK3     -0.031000
     16 C16         1.4380   -3.4450   -2.1470 ca        1 LK3     -0.168000
     17 C15         2.8350   -3.6250   -2.3540 ca        1 LK3      0.038000
     18 C21         3.3510   -4.7310   -3.0720 ca        1 LK3     -0.188000
     19 C20         4.7200   -4.8440   -3.2630 ca        1 LK3      0.140100
     20 C19         5.6180   -3.8660   -2.7580 ca        1 LK3     -0.217000
     21 C18         5.1240   -2.7920   -2.0580 ca        1 LK3     -0.041000
     22 C14         3.7280   -2.6540   -1.8340 ca        1 LK3     -0.102000
     23 C13         3.2140   -1.5470   -1.1070 ca        1 LK3      0.045000
     24 O22         5.1250   -5.9700   -3.9590 os        1 LK3     -0.339900
     25 C23         6.5090   -6.0170   -4.3210 c3        1 LK3      0.130400
     26 C24         6.6690   -7.2560   -5.1850 c3        1 LK3     -0.086400
     27 C25         8.1110   -7.4140   -5.6140 c3        1 LK3     -0.078400
     28 C26         8.2920   -8.6430   -6.4790 c3        1 LK3     -0.079400
     29 C30         9.7260   -8.8080   -6.9110 c3        1 LK3     -0.092100
     30 H           1.8720    1.6340   -1.3830 hn        1 LK3      0.459800
     31 HA          3.5210    0.8630    0.9120 h1        1 LK3      0.064700
     32 HBC1        2.4000    3.0040    1.5380 hc        1 LK3      0.045200
     33 HBC2        4.1910    3.0960    1.3210 hc        1 LK3      0.045200
     34 HGC1        3.9820    4.7960   -0.1510 hc        1 LK3      0.106200
     35 HGC2        2.9960    3.7700   -1.2550 hc        1 LK3      0.106200
     36 H17        -0.1120   -2.2040   -1.3190 ha        1 LK3      0.150000
     37 H13         3.9540   -0.8140   -0.7140 ha        1 LK3      0.199000
     38 H16         0.7440   -4.1930   -2.5560 ha        1 LK3      0.127000
     39 H21         2.6680   -5.4920   -3.4740 ha        1 LK3      0.142000
     40 H19         6.6990   -3.9630   -2.9270 ha        1 LK3      0.135000
     41 H18         5.7960   -2.0060   -1.6680 ha        1 LK3      0.174000
     42 H231        7.1350   -6.0910   -3.3930 h1        1 LK3      0.039700
     43 H232        6.7870   -5.0910   -4.8900 h1        1 LK3      0.039700
     44 H241        6.3350   -8.1570   -4.6080 hc        1 LK3      0.054200
     45 H242        6.0030   -7.1720   -6.0830 hc        1 LK3      0.054200
     46 H251        8.7690   -7.4920   -4.7090 hc        1 LK3      0.041700
     47 H252        8.4370   -6.5030   -6.1830 hc        1 LK3      0.041700
     48 H261        7.9630   -9.5520   -5.9090 hc        1 LK3      0.039200
     49 H262        7.6320   -8.5640   -7.3830 hc        1 LK3      0.039200
     50 H301       10.0640   -7.9220   -7.5010 hc        1 LK3      0.031367
     51 H302        9.8380   -9.7190   -7.5470 hc        1 LK3      0.031367
     52 H303       10.3960   -8.9130   -6.0240 hc        1 LK3      0.031367
     53 H2          0.7030    3.4790    0.0450 ho        1 LK3      0.437000
@<TRIPOS>BOND
     1    1    2 2   
     2    2    3 2   
     3    2    4 1   
     4    2   14 1   
     5    4    5 1   
     6    4   30 1   
     7    5    6 1   
     8    5    9 1   
     9    5   31 1   
    10    6    7 1   
    11    6    8 1   
    12    9   10 1   
    13    9   32 1   
    14    9   33 1   
    15   10   11 1   
    16   10   34 1   
    17   10   35 1   
    18   11   12 2   
    19   11   13 1   
    20   13   53 1   
    21   14   15 ar  
    22   14   23 ar  
    23   15   16 ar  
    24   15   36 1   
    25   16   17 ar  
    26   16   38 1   
    27   17   18 ar  
    28   17   22 ar  
    29   18   19 ar  
    30   18   39 1   
    31   19   20 ar  
    32   19   24 1   
    33   20   21 ar  
    34   20   40 1   
    35   21   22 ar  
    36   21   41 1   
    37   22   23 ar  
    38   23   37 1   
    39   24   25 1   
    40   25   26 1   
    41   25   42 1   
    42   25   43 1   
    43   26   27 1   
    44   26   44 1   
    45   26   45 1   
    46   27   28 1   
    47   27   46 1   
    48   27   47 1   
    49   28   29 1   
    50   28   48 1   
    51   28   49 1   
    52   29   50 1   
    53   29   51 1   
    54   29   52 1   
@<TRIPOS>SUBSTRUCTURE
     1 LK3         1 TEMP              0 ****  ****    0 ROOT
