@<TRIPOS>MOLECULE
LK3
   53    54     1     0     0
SMALL
bcc


@<TRIPOS>ATOM
      1 O28        -0.1590    0.0020   -0.3780 o         1 LK3     -0.672300
      2 S11         1.2070   -0.1160    0.0030 sy        1 LK3      1.500200
      3 O27         1.4050   -0.3660    1.3830 o         1 LK3     -0.672300
      4 N           2.0050    1.1870   -0.4750 n3        1 LK3     -0.907100
      5 CA          3.2660    1.6110    0.0950 c3        1 LK3      0.076500
      6 C           4.4070    1.5720   -0.9880 c         1 LK3      0.903600
      7 OXT         5.4010    0.8450   -0.7170 o         1 LK3     -0.820800
      8 O           4.2320    2.2130   -2.0570 o         1 LK3     -0.820800
      9 CB          3.2150    2.9890    0.7630 c3        1 LK3     -0.065400
     10 CG          3.0330    4.1450   -0.2000 c3        1 LK3     -0.189400
     11 CD          1.8390    4.9870    0.1120 c         1 LK3      0.631100
     12 OE2         1.8080    6.2110    0.2770 o         1 LK3     -0.536000
     13 OE1         0.6030    4.4080    0.2170 oh        1 LK3     -0.601100
     14 C12         1.8730   -1.3990   -0.8830 ca        1 LK3     -0.392500
     15 C17         0.9900   -2.3840   -1.4060 ca        1 LK3     -0.031000
     16 C16         1.4540   -3.4720   -2.0960 ca        1 LK3     -0.168000
     17 C15         2.8490   -3.6380   -2.3280 ca        1 LK3      0.038000
     18 C21         3.3640   -4.7420   -3.0490 ca        1 LK3     -0.188000
     19 C20         4.7310   -4.8400   -3.2640 ca        1 LK3      0.140100
     20 C19         5.6270   -3.8510   -2.7800 ca        1 LK3     -0.217000
     21 C18         5.1330   -2.7780   -2.0760 ca        1 LK3     -0.041000
     22 C14         3.7400   -2.6550   -1.8280 ca        1 LK3     -0.102000
     23 C13         3.2270   -1.5500   -1.0970 ca        1 LK3      0.045000
     24 O22         5.1360   -5.9650   -3.9620 os        1 LK3     -0.338900
     25 C23         6.5160   -6.0030   -4.3410 c3        1 LK3      0.130400
     26 C24         6.6760   -7.2490   -5.1960 c3        1 LK3     -0.086400
     27 C25         8.1140   -7.3970   -5.6410 c3        1 LK3     -0.078400
     28 C26         8.2960   -8.6330   -6.4970 c3        1 LK3     -0.079400
     29 C30         9.7260   -8.7890   -6.9460 c3        1 LK3     -0.092100
     30 H           1.8450    1.6150   -1.3610 hn        1 LK3      0.459800
     31 HA          3.5430    0.8710    0.9070 h1        1 LK3      0.064700
     32 HBC1        4.1950    3.1120    1.2960 hc        1 LK3      0.045200
     33 HBC2        2.4090    3.0020    1.5450 hc        1 LK3      0.045200
     34 HGC1        3.9410    4.8050   -0.1770 hc        1 LK3      0.106200
     35 HGC2        2.9470    3.7640   -1.2600 hc        1 LK3      0.106200
     36 H17        -0.0950   -2.2460   -1.2460 ha        1 LK3      0.150000
     37 H13         3.9660   -0.8070   -0.7210 ha        1 LK3      0.199000
     38 H16         0.7610   -4.2300   -2.4890 ha        1 LK3      0.127000
     39 H21         2.6830   -5.5130   -3.4350 ha        1 LK3      0.142000
     40 H19         6.7060   -3.9360   -2.9670 ha        1 LK3      0.135000
     41 H18         5.8030   -1.9830   -1.7020 ha        1 LK3      0.174000
     42 H231        6.7790   -5.0800   -4.9200 h1        1 LK3      0.039700
     43 H232        7.1540   -6.0640   -3.4200 h1        1 LK3      0.039700
     44 H241        6.3570   -8.1480   -4.6070 hc        1 LK3      0.054200
     45 H242        5.9990   -7.1770   -6.0870 hc        1 LK3      0.054200
     46 H251        8.7840   -7.4610   -4.7430 hc        1 LK3      0.041700
     47 H252        8.4260   -6.4890   -6.2220 hc        1 LK3      0.041700
     48 H261        7.6240   -8.5670   -7.3940 hc        1 LK3      0.039200
     49 H262        7.9810   -9.5390   -5.9150 hc        1 LK3      0.039200
     50 H301        9.8380   -9.7040   -7.5750 hc        1 LK3      0.031367
     51 H302       10.0490   -7.9050   -7.5480 hc        1 LK3      0.031367
     52 H303       10.4070   -8.8800   -6.0650 hc        1 LK3      0.031367
     53 H2          0.6810    3.4530    0.0820 ho        1 LK3      0.437000
@<TRIPOS>BOND
     1    1    2 2   
     2    2    3 2   
     3    2    4 1   
     4    2   14 1   
     5    4    5 1   
     6    4   30 1   
     7    5    6 1   
     8    5    9 1   
     9    5   31 1   
    10    6    7 1   
    11    6    8 1   
    12    9   10 1   
    13    9   32 1   
    14    9   33 1   
    15   10   11 1   
    16   10   34 1   
    17   10   35 1   
    18   11   12 2   
    19   11   13 1   
    20   13   53 1   
    21   14   15 ar  
    22   14   23 ar  
    23   15   16 ar  
    24   15   36 1   
    25   16   17 ar  
    26   16   38 1   
    27   17   18 ar  
    28   17   22 ar  
    29   18   19 ar  
    30   18   39 1   
    31   19   20 ar  
    32   19   24 1   
    33   20   21 ar  
    34   20   40 1   
    35   21   22 ar  
    36   21   41 1   
    37   22   23 ar  
    38   23   37 1   
    39   24   25 1   
    40   25   26 1   
    41   25   42 1   
    42   25   43 1   
    43   26   27 1   
    44   26   44 1   
    45   26   45 1   
    46   27   28 1   
    47   27   46 1   
    48   27   47 1   
    49   28   29 1   
    50   28   48 1   
    51   28   49 1   
    52   29   50 1   
    53   29   51 1   
    54   29   52 1   
@<TRIPOS>SUBSTRUCTURE
     1 LK3         1 TEMP              0 ****  ****    0 ROOT
