@<TRIPOS>MOLECULE
LK3
   53    54     1     0     0
SMALL
bcc


@<TRIPOS>ATOM
      1 O28        -0.1570    0.0320   -0.4070 o         1 LK3     -0.672300
      2 S11         1.2050   -0.1000   -0.0140 sy        1 LK3      1.500200
      3 O27         1.3880   -0.3600    1.3660 o         1 LK3     -0.672300
      4 N           2.0180    1.1980   -0.4780 n7        1 LK3     -0.907100
      5 CA          3.2780    1.6070    0.1050 c3        1 LK3      0.076500
      6 C           4.4290    1.5650   -0.9670 c         1 LK3      0.903600
      7 OXT         5.4130    0.8270   -0.6910 o         1 LK3     -0.820800
      8 O           4.2690    2.2130   -2.0340 o         1 LK3     -0.820800
      9 CB          3.2330    2.9820    0.7810 c3        1 LK3     -0.065400
     10 CG          3.0700    4.1450   -0.1770 c3        1 LK3     -0.189400
     11 CD          1.8800    4.9960    0.1290 c         1 LK3      0.631100
     12 OE2         1.8590    6.2190    0.3000 o         1 LK3     -0.536000
     13 OE1         0.6390    4.4270    0.2200 oh        1 LK3     -0.601100
     14 C12         1.8680   -1.3850   -0.9010 ca        1 LK3     -0.392500
     15 C17         0.9810   -2.3600   -1.4370 ca        1 LK3     -0.031000
     16 C16         1.4420   -3.4480   -2.1290 ca        1 LK3     -0.168000
     17 C15         2.8380   -3.6250   -2.3490 ca        1 LK3      0.038000
     18 C21         3.3490   -4.7290   -3.0710 ca        1 LK3     -0.188000
     19 C20         4.7170   -4.8380   -3.2750 ca        1 LK3      0.140100
     20 C19         5.6170   -3.8590   -2.7770 ca        1 LK3     -0.217000
     21 C18         5.1270   -2.7860   -2.0720 ca        1 LK3     -0.041000
     22 C14         3.7320   -2.6520   -1.8350 ca        1 LK3     -0.102000
     23 C13         3.2220   -1.5470   -1.1030 ca        1 LK3      0.045000
     24 O22         5.1190   -5.9630   -3.9750 os        1 LK3     -0.338900
     25 C23         6.5020   -6.0110   -4.3420 c3        1 LK3      0.130400
     26 C24         6.6590   -7.2530   -5.2030 c3        1 LK3     -0.086400
     27 C25         8.0990   -7.4110   -5.6370 c3        1 LK3     -0.078400
     28 C26         8.2770   -8.6440   -6.4970 c3        1 LK3     -0.079400
     29 C30         9.7100   -8.8090   -6.9350 c3        1 LK3     -0.092100
     30 H           1.8710    1.6310   -1.3630 hn        1 LK3      0.459800
     31 HA          3.5420    0.8610    0.9160 h1        1 LK3      0.064700
     32 HBC1        4.2100    3.0940    1.3230 hc        1 LK3      0.045200
     33 HBC2        2.4200    2.9980    1.5560 hc        1 LK3      0.045200
     34 HGC1        3.9840    4.7970   -0.1430 hc        1 LK3      0.106200
     35 HGC2        2.9900    3.7710   -1.2400 hc        1 LK3      0.106200
     36 H17        -0.1040   -2.2120   -1.2860 ha        1 LK3      0.150000
     37 H13         3.9640   -0.8120   -0.7170 ha        1 LK3      0.199000
     38 H16         0.7460   -4.1970   -2.5320 ha        1 LK3      0.127000
     39 H21         2.6660   -5.4920   -3.4680 ha        1 LK3      0.142000
     40 H19         6.6970   -3.9530   -2.9550 ha        1 LK3      0.135000
     41 H18         5.8000   -1.9990   -1.6870 ha        1 LK3      0.174000
     42 H231        6.7770   -5.0870   -4.9140 h1        1 LK3      0.039700
     43 H232        7.1300   -6.0820   -3.4150 h1        1 LK3      0.039700
     44 H241        6.3270   -8.1520   -4.6220 hc        1 LK3      0.054200
     45 H242        5.9890   -7.1710   -6.0980 hc        1 LK3      0.054200
     46 H251        8.7600   -7.4850   -4.7330 hc        1 LK3      0.041700
     47 H252        8.4230   -6.5030   -6.2100 hc        1 LK3      0.041700
     48 H261        7.6140   -8.5680   -7.3990 hc        1 LK3      0.039200
     49 H262        7.9510   -9.5510   -5.9230 hc        1 LK3      0.039200
     50 H301        9.8200   -9.7220   -7.5680 hc        1 LK3      0.031367
     51 H302       10.0450   -7.9250   -7.5290 hc        1 LK3      0.031367
     52 H303       10.3830   -8.9100   -6.0500 hc        1 LK3      0.031367
     53 H2          0.7090    3.4720    0.0800 ho        1 LK3      0.437000
@<TRIPOS>BOND
     1    1    2 2   
     2    2    3 2   
     3    2    4 1   
     4    2   14 1   
     5    4    5 1   
     6    4   30 1   
     7    5    6 1   
     8    5    9 1   
     9    5   31 1   
    10    6    7 1   
    11    6    8 1   
    12    9   10 1   
    13    9   32 1   
    14    9   33 1   
    15   10   11 1   
    16   10   34 1   
    17   10   35 1   
    18   11   12 2   
    19   11   13 1   
    20   13   53 1   
    21   14   15 ar  
    22   14   23 ar  
    23   15   16 ar  
    24   15   36 1   
    25   16   17 ar  
    26   16   38 1   
    27   17   18 ar  
    28   17   22 ar  
    29   18   19 ar  
    30   18   39 1   
    31   19   20 ar  
    32   19   24 1   
    33   20   21 ar  
    34   20   40 1   
    35   21   22 ar  
    36   21   41 1   
    37   22   23 ar  
    38   23   37 1   
    39   24   25 1   
    40   25   26 1   
    41   25   42 1   
    42   25   43 1   
    43   26   27 1   
    44   26   44 1   
    45   26   45 1   
    46   27   28 1   
    47   27   46 1   
    48   27   47 1   
    49   28   29 1   
    50   28   48 1   
    51   28   49 1   
    52   29   50 1   
    53   29   51 1   
    54   29   52 1   
@<TRIPOS>SUBSTRUCTURE
     1 LK3         1 TEMP              0 ****  ****    0 ROOT
