@<TRIPOS>MOLECULE
LK3
   52    53     1     0     0
SMALL
bcc


@<TRIPOS>ATOM
      1 O28         0.3200    2.8560    2.2170 o         1 LK3     -0.685800
      2 S11        -0.7680    2.2830    1.4870 sy        1 LK3      1.501200
      3 O27        -2.0170    2.4040    2.1530 o         1 LK3     -0.685800
      4 N          -0.4290    0.8220    1.0240 n3        1 LK3     -0.910100
      5 CA         -1.3930   -0.1860    0.6070 c3        1 LK3      0.104500
      6 C          -1.2530   -0.4730   -0.9250 c         1 LK3      0.900600
      7 OXT        -2.2870   -0.2420   -1.6300 o         1 LK3     -0.843300
      8 O          -0.1450   -0.8270   -1.4020 o         1 LK3     -0.843300
      9 CB         -1.3370   -1.4750    1.4350 c3        1 LK3     -0.047400
     10 CG          0.0290   -2.0890    1.6090 c3        1 LK3     -0.186400
     11 CD         -0.0060   -3.3780    2.4400 c         1 LK3      0.905600
     12 OE2        -1.1060   -3.9740    2.6480 o         1 LK3     -0.874800
     13 OE1         1.0950   -3.8110    2.9010 o         1 LK3     -0.874800
     14 C12        -0.8960    3.2150    0.0450 ca        1 LK3     -0.356500
     15 C17        -0.3120    4.5090    0.0180 ca        1 LK3     -0.022000
     16 C16        -0.4120    5.3210   -1.0840 ca        1 LK3     -0.187000
     17 C15        -1.0910    4.8710   -2.2500 ca        1 LK3      0.026000
     18 C21        -1.1940    5.6680   -3.4180 ca        1 LK3     -0.183000
     19 C20        -1.8440    5.1620   -4.5310 ca        1 LK3      0.119100
     20 C19        -2.4030    3.8570   -4.5350 ca        1 LK3     -0.225000
     21 C18        -2.3070    3.0790   -3.4060 ca        1 LK3     -0.036000
     22 C14        -1.6620    3.5740   -2.2410 ca        1 LK3     -0.093000
     23 C13        -1.5660    2.7700   -1.0710 ca        1 LK3      0.033000
     24 O22        -1.9440    6.0270   -5.6140 os        1 LK3     -0.349900
     25 C23        -2.1380    5.3910   -6.8810 c3        1 LK3      0.132400
     26 C24        -1.8160    6.4390   -7.9330 c3        1 LK3     -0.086400
     27 C25        -2.0380    5.8780   -9.3200 c3        1 LK3     -0.079400
     28 C26        -1.7180    6.9060  -10.3840 c3        1 LK3     -0.079400
     29 C30        -1.9370    6.3550  -11.7690 c3        1 LK3     -0.092100
     30 H           0.5020    0.4970    0.8660 hn        1 LK3      0.476800
     31 HA         -2.4240    0.2600    0.7640 h1        1 LK3      0.038700
     32 HBC1       -2.0030   -2.2220    0.9270 hc        1 LK3      0.043200
     33 HBC2       -1.7760   -1.2770    2.4490 hc        1 LK3      0.043200
     34 HGC1        0.4660   -2.3210    0.6030 hc        1 LK3      0.034700
     35 HGC2        0.7250   -1.3780    2.1240 hc        1 LK3      0.034700
     36 H17         0.2380    4.8480    0.9130 ha        1 LK3      0.147000
     37 H13        -2.0390    1.7590   -1.1100 ha        1 LK3      0.220000
     38 H16         0.0370    6.3230   -1.0890 ha        1 LK3      0.115000
     39 H21        -0.7620    6.6770   -3.4340 ha        1 LK3      0.132000
     40 H19        -2.9040    3.4730   -5.4330 ha        1 LK3      0.127000
     41 H18        -2.7070    2.0470   -3.3780 ha        1 LK3      0.182000
     42 H231       -1.4640    4.5000   -6.9800 h1        1 LK3      0.039200
     43 H232       -3.2080    5.0600   -6.9620 h1        1 LK3      0.039200
     44 H241       -2.4630    7.3400   -7.7700 hc        1 LK3      0.050700
     45 H242       -0.7520    6.7690   -7.8130 hc        1 LK3      0.050700
     46 H251       -3.1040    5.5450   -9.4270 hc        1 LK3      0.041700
     47 H252       -1.3920    4.9720   -9.4680 hc        1 LK3      0.041700
     48 H261       -2.3630    7.8120  -10.2330 hc        1 LK3      0.037200
     49 H262       -0.6520    7.2380  -10.2740 hc        1 LK3      0.037200
     50 H301       -1.2850    5.4650  -11.9460 hc        1 LK3      0.029367
     51 H302       -3.0000    6.0410  -11.9060 hc        1 LK3      0.029367
     52 H303       -1.6950    7.1270  -12.5390 hc        1 LK3      0.029367
@<TRIPOS>BOND
     1    1    2 2   
     2    2    3 2   
     3    2    4 1   
     4    2   14 1   
     5    4    5 1   
     6    4   30 1   
     7    5    6 1   
     8    5    9 1   
     9    5   31 1   
    10    6    7 1   
    11    6    8 1   
    12    9   10 1   
    13    9   32 1   
    14    9   33 1   
    15   10   11 1   
    16   10   34 1   
    17   10   35 1   
    18   11   12 1   
    19   11   13 1   
    20   14   15 ar  
    21   14   23 ar  
    22   15   16 ar  
    23   15   36 1   
    24   16   17 ar  
    25   16   38 1   
    26   17   18 ar  
    27   17   22 ar  
    28   18   19 ar  
    29   18   39 1   
    30   19   20 ar  
    31   19   24 1   
    32   20   21 ar  
    33   20   40 1   
    34   21   22 ar  
    35   21   41 1   
    36   22   23 ar  
    37   23   37 1   
    38   24   25 1   
    39   25   26 1   
    40   25   42 1   
    41   25   43 1   
    42   26   27 1   
    43   26   44 1   
    44   26   45 1   
    45   27   28 1   
    46   27   46 1   
    47   27   47 1   
    48   28   29 1   
    49   28   48 1   
    50   28   49 1   
    51   29   50 1   
    52   29   51 1   
    53   29   52 1   
@<TRIPOS>SUBSTRUCTURE
     1 LK3         1 TEMP              0 ****  ****    0 ROOT
