@<TRIPOS>MOLECULE
LK4
   51    53     1     0     0
SMALL
bcc


@<TRIPOS>ATOM
      1 N31        -1.6680   10.5090  -11.3980 n1        1 LK4     -0.395800
      2 C30        -1.8470    9.7030  -10.5780 cg        1 LK4      0.249800
      3 C27        -2.0670    8.7180   -9.5770 ca        1 LK4     -0.040000
      4 C28        -2.1440    7.3630   -9.9320 ca        1 LK4     -0.093000
      5 C29        -2.3650    6.4020   -8.9510 ca        1 LK4     -0.125500
      6 C26        -2.2090    9.0980   -8.2350 ca        1 LK4     -0.093000
      7 C25        -2.4310    8.1300   -7.2580 ca        1 LK4     -0.125500
      8 C24        -2.5120    6.7790   -7.6090 ca        1 LK4     -0.048300
      9 C23        -2.7650    5.7090   -6.5960 c3        1 LK4      0.166700
     10 O22        -2.7930    6.2990   -5.2930 os        1 LK4     -0.351900
     11 C20        -2.5360    5.4010   -4.2590 ca        1 LK4      0.106100
     12 C19        -2.9950    4.0580   -4.3030 ca        1 LK4     -0.221000
     13 C18        -2.7740    3.2370   -3.2240 ca        1 LK4     -0.035000
     14 C21        -1.8590    5.9050   -3.1640 ca        1 LK4     -0.169000
     15 C15        -1.6280    5.0630   -2.0450 ca        1 LK4      0.020000
     16 C16        -2.1010    3.7280   -2.0730 ca        1 LK4     -0.087000
     17 C17        -1.8730    2.8780   -0.9550 ca        1 LK4      0.030000
     18 C14        -0.9110    5.5060   -0.8990 ca        1 LK4     -0.186000
     19 C13        -0.6770    4.6490    0.1470 ca        1 LK4     -0.021000
     20 C12        -1.1610    3.3150    0.1380 ca        1 LK4     -0.350500
     21 S11        -0.8600    2.3080    1.5050 sy        1 LK4      1.501200
     22 O33         0.2090    2.9380    2.2130 o         1 LK4     -0.684800
     23 O32        -2.0740    2.2640    2.2400 o         1 LK4     -0.684800
     24 N          -0.4130    0.9220    0.9200 n3        1 LK4     -0.910100
     25 CA         -1.3000   -0.1420    0.4720 c3        1 LK4      0.104500
     26 C          -1.2340   -0.2900   -1.0850 c         1 LK4      0.900600
     27 O          -0.1290   -0.4830   -1.6530 o         1 LK4     -0.843800
     28 OXT        -2.3290   -0.1170   -1.7070 o         1 LK4     -0.843800
     29 CB         -1.0660   -1.4800    1.1810 c3        1 LK4     -0.047400
     30 CG          0.3620   -1.9630    1.2250 c3        1 LK4     -0.187400
     31 CD          0.5040   -3.3120    1.9420 c         1 LK4      0.905600
     32 OE1        -0.5170   -4.0300    2.1590 o         1 LK4     -0.874300
     33 OE2         1.6690   -3.6660    2.3030 o         1 LK4     -0.874300
     34 H28        -2.0280    7.0620  -10.9830 ha        1 LK4      0.138500
     35 H26        -2.1440   10.1590   -7.9540 ha        1 LK4      0.138500
     36 H29        -2.4220    5.3380   -9.2280 ha        1 LK4      0.154500
     37 H25        -2.5410    8.4230   -6.2010 ha        1 LK4      0.154500
     38 H231       -3.7680    5.2370   -6.7920 h1        1 LK4      0.059200
     39 H232       -1.9670    4.9210   -6.6560 h1        1 LK4      0.059200
     40 H19        -3.5180    3.6860   -5.1940 ha        1 LK4      0.126000
     41 H21        -1.5040    6.9430   -3.1510 ha        1 LK4      0.132000
     42 H18        -3.0880    2.1750   -3.2260 ha        1 LK4      0.186000
     43 H14        -0.5390    6.5400   -0.8770 ha        1 LK4      0.116000
     44 H17        -2.2760    1.8380   -1.0180 ha        1 LK4      0.221000
     45 H13        -0.0940    4.9840    1.0240 ha        1 LK4      0.149000
     46 H           0.5340    0.7010    0.6940 hn        1 LK4      0.477800
     47 HA         -2.3570    0.1840    0.7260 h1        1 LK4      0.037700
     48 HBC1       -1.6880   -2.2490    0.6480 hc        1 LK4      0.043700
     49 HBC2       -1.4560   -1.4110    2.2320 hc        1 LK4      0.043700
     50 HGC1        0.7540   -2.0670    0.1810 hc        1 LK4      0.034700
     51 HGC2        1.0170   -1.2290    1.7610 hc        1 LK4      0.034700
@<TRIPOS>BOND
     1    1    2 3   
     2    2    3 1   
     3    3    4 ar  
     4    3    6 ar  
     5    4    5 ar  
     6    4   34 1   
     7    5    8 ar  
     8    5   36 1   
     9    6    7 ar  
    10    6   35 1   
    11    7    8 ar  
    12    7   37 1   
    13    8    9 1   
    14    9   10 1   
    15    9   38 1   
    16    9   39 1   
    17   10   11 1   
    18   11   12 ar  
    19   11   14 ar  
    20   12   13 ar  
    21   12   40 1   
    22   13   16 ar  
    23   13   42 1   
    24   14   15 ar  
    25   14   41 1   
    26   15   16 ar  
    27   15   18 ar  
    28   16   17 ar  
    29   17   20 ar  
    30   17   44 1   
    31   18   19 ar  
    32   18   43 1   
    33   19   20 ar  
    34   19   45 1   
    35   20   21 1   
    36   21   22 2   
    37   21   23 2   
    38   21   24 1   
    39   24   25 1   
    40   24   46 1   
    41   25   26 1   
    42   25   29 1   
    43   25   47 1   
    44   26   27 1   
    45   26   28 1   
    46   29   30 1   
    47   29   48 1   
    48   29   49 1   
    49   30   31 1   
    50   30   50 1   
    51   30   51 1   
    52   31   32 1   
    53   31   33 1   
@<TRIPOS>SUBSTRUCTURE
     1 LK4         1 TEMP              0 ****  ****    0 ROOT
