@<TRIPOS>MOLECULE
LK4
   52    54     1     0     0
SMALL
bcc


@<TRIPOS>ATOM
      1 N31        -1.3130    0.3240   -2.1330 n1        1 LK4     -0.379800
      2 C30        -0.6420    0.2960   -1.1830 cg        1 LK4      0.241800
      3 C27         0.1770    0.2620   -0.0220 ca        1 LK4     -0.029000
      4 C28         1.4540   -0.3150   -0.0820 ca        1 LK4     -0.092500
      5 C29         2.2540   -0.3490    1.0560 ca        1 LK4     -0.122500
      6 C26        -0.2890    0.8030    1.1840 ca        1 LK4     -0.092500
      7 C25         0.5150    0.7630    2.3210 ca        1 LK4     -0.122500
      8 C24         1.7880    0.1880    2.2640 ca        1 LK4     -0.058300
      9 C23         2.6700    0.1010    3.4660 c3        1 LK4      0.168700
     10 O22         2.1620    0.9930    4.4660 os        1 LK4     -0.341900
     11 C20         3.0400    1.2700    5.5050 ca        1 LK4      0.129100
     12 C19         4.0990    0.3990    5.8720 ca        1 LK4     -0.214000
     13 C18         4.8910    0.7180    6.9490 ca        1 LK4     -0.040000
     14 C21         2.7910    2.4420    6.1990 ca        1 LK4     -0.176000
     15 C15         3.6040    2.7770    7.3110 ca        1 LK4      0.033000
     16 C16         4.6540    1.9050    7.6930 ca        1 LK4     -0.096000
     17 C17         5.4700    2.2380    8.8080 ca        1 LK4      0.042000
     18 C14         3.4130    3.9780    8.0500 ca        1 LK4     -0.167000
     19 C13         4.2330    4.2820    9.1050 ca        1 LK4     -0.029000
     20 C12         5.2810    3.4080    9.5100 ca        1 LK4     -0.387500
     21 S11         6.2210    3.8450   10.8550 sy        1 LK4      1.499200
     22 O33         6.0820    5.2500   11.0320 o         1 LK4     -0.671300
     23 O32         5.8030    3.0730   11.9660 o         1 LK4     -0.671300
     24 N           7.7290    3.5080   10.4400 n7        1 LK4     -0.906100
     25 CA          8.3310    2.2000   10.5900 c3        1 LK4      0.076500
     26 C           8.7050    1.5930    9.1870 c         1 LK4      0.903600
     27 O           8.1810    0.4810    8.9080 o         1 LK4     -0.820800
     28 OXT         9.4420    2.2720    8.4250 o         1 LK4     -0.820800
     29 CB          9.5490    2.1790   11.5190 c3        1 LK4     -0.065400
     30 CG         10.7670    2.8960   10.9700 c3        1 LK4     -0.189400
     31 CD         11.2710    3.9740   11.8750 c         1 LK4      0.631100
     32 OE1        12.4200    4.1140   12.3050 o         1 LK4     -0.535000
     33 OE2        10.4240    4.9640   12.2940 oh        1 LK4     -0.600100
     34 H28         1.8230   -0.7380   -1.0290 ha        1 LK4      0.142500
     35 H26        -1.2890    1.2600    1.2330 ha        1 LK4      0.142500
     36 H29         3.2580   -0.7970    1.0060 ha        1 LK4      0.152000
     37 H25         0.1540    1.1910    3.2700 ha        1 LK4      0.152000
     38 H231        3.7260    0.3790    3.2020 h1        1 LK4      0.057200
     39 H232        2.6480   -0.9470    3.8750 h1        1 LK4      0.057200
     40 H19         4.2830   -0.5220    5.3030 ha        1 LK4      0.134000
     41 H21         1.9710    3.1080    5.8970 ha        1 LK4      0.142000
     42 H18         5.7360    0.0720    7.2510 ha        1 LK4      0.177000
     43 H14         2.6030    4.6580    7.7520 ha        1 LK4      0.128000
     44 H17         6.2780    1.5190    9.0730 ha        1 LK4      0.201000
     45 H13         4.0990    5.2260    9.6630 ha        1 LK4      0.152000
     46 H           9.5400    4.8100   11.9330 ho        1 LK4      0.437000
     47 HA          7.5580    1.5170   11.0600 h1        1 LK4      0.065700
     48 HBC1        9.2690    2.5970   12.5230 hc        1 LK4      0.045700
     49 HBC2        9.8060    1.0960   11.6710 hc        1 LK4      0.045700
     50 HGC1       11.5990    2.1610   10.8060 hc        1 LK4      0.105700
     51 HGC2       10.5370    3.3440    9.9590 hc        1 LK4      0.105700
     52 H2          8.2450    4.0720    9.8000 hn        1 LK4      0.459800
@<TRIPOS>BOND
     1    1    2 3   
     2    2    3 1   
     3    3    4 ar  
     4    3    6 ar  
     5    4    5 ar  
     6    4   34 1   
     7    5    8 ar  
     8    5   36 1   
     9    6    7 ar  
    10    6   35 1   
    11    7    8 ar  
    12    7   37 1   
    13    8    9 1   
    14    9   10 1   
    15    9   38 1   
    16    9   39 1   
    17   10   11 1   
    18   11   12 ar  
    19   11   14 ar  
    20   12   13 ar  
    21   12   40 1   
    22   13   16 ar  
    23   13   42 1   
    24   14   15 ar  
    25   14   41 1   
    26   15   16 ar  
    27   15   18 ar  
    28   16   17 ar  
    29   17   20 ar  
    30   17   44 1   
    31   18   19 ar  
    32   18   43 1   
    33   19   20 ar  
    34   19   45 1   
    35   20   21 1   
    36   21   22 2   
    37   21   23 2   
    38   21   24 1   
    39   24   25 1   
    40   24   52 1   
    41   25   26 1   
    42   25   29 1   
    43   25   47 1   
    44   26   27 1   
    45   26   28 1   
    46   29   30 1   
    47   29   48 1   
    48   29   49 1   
    49   30   31 1   
    50   30   50 1   
    51   30   51 1   
    52   31   32 2   
    53   31   33 1   
    54   33   46 1   
@<TRIPOS>SUBSTRUCTURE
     1 LK4         1 TEMP              0 ****  ****    0 ROOT
