@<TRIPOS>MOLECULE
LK4
   52    54     1     0     0
SMALL
bcc


@<TRIPOS>ATOM
      1 N31        -1.3300    0.3610   -2.1290 n1        1 LK4     -0.379800
      2 C30        -0.6520    0.3300   -1.1830 cg        1 LK4      0.241800
      3 C27         0.1760    0.2900   -0.0290 ca        1 LK4     -0.029000
      4 C28         1.4670   -0.2530   -0.1110 ca        1 LK4     -0.092500
      5 C29         2.2750   -0.2910    1.0220 ca        1 LK4     -0.122500
      6 C26        -0.2960    0.7920    1.1920 ca        1 LK4     -0.092500
      7 C25         0.5170    0.7470    2.3220 ca        1 LK4     -0.122500
      8 C24         1.8040    0.2060    2.2440 ca        1 LK4     -0.058300
      9 C23         2.6960    0.1150    3.4390 c3        1 LK4      0.168700
     10 O22         2.1720    0.9690    4.4620 os        1 LK4     -0.341900
     11 C20         3.0500    1.2460    5.5020 ca        1 LK4      0.129100
     12 C19         4.1340    0.3950    5.8420 ca        1 LK4     -0.214000
     13 C18         4.9250    0.7100    6.9200 ca        1 LK4     -0.040000
     14 C21         2.7730    2.3930    6.2260 ca        1 LK4     -0.176000
     15 C15         3.5850    2.7240    7.3400 ca        1 LK4      0.033000
     16 C16         4.6600    1.8710    7.6950 ca        1 LK4     -0.096000
     17 C17         5.4750    2.1990    8.8120 ca        1 LK4      0.042000
     18 C14         3.3670    3.9010    8.1090 ca        1 LK4     -0.167000
     19 C13         4.1860    4.2010    9.1660 ca        1 LK4     -0.029000
     20 C12         5.2590    3.3470    9.5430 ca        1 LK4     -0.387500
     21 S11         6.1960    3.7770   10.8930 sy        1 LK4      1.499200
     22 O33         6.0210    5.1730   11.1040 o         1 LK4     -0.671300
     23 O32         5.8070    2.9680   11.9880 o         1 LK4     -0.671300
     24 N           7.7100    3.4910   10.4600 n3        1 LK4     -0.906100
     25 CA          8.3480    2.1960   10.5750 c3        1 LK4      0.076500
     26 C           8.7290    1.6340    9.1560 c         1 LK4      0.903600
     27 O           8.2330    0.5150    8.8530 o         1 LK4     -0.820800
     28 OXT         9.4430    2.3510    8.4060 o         1 LK4     -0.820800
     29 CB          9.5720    2.1860   11.4960 c3        1 LK4     -0.065400
     30 CG         10.7660    2.9490   10.9580 c3        1 LK4     -0.189400
     31 CD         11.2470    4.0180   11.8860 c         1 LK4      0.631100
     32 OE1        12.3950    4.1780   12.3120 o         1 LK4     -0.535000
     33 OE2        10.3770    4.9750   12.3340 oh        1 LK4     -0.600100
     34 H28         1.8400   -0.6440   -1.0690 ha        1 LK4      0.142500
     35 H26        -1.3070    1.2220    1.2570 ha        1 LK4      0.142500
     36 H29         3.2890   -0.7120    0.9560 ha        1 LK4      0.152000
     37 H25         0.1520    1.1440    3.2830 ha        1 LK4      0.152000
     38 H231        2.7050   -0.9420    3.8230 h1        1 LK4      0.057200
     39 H232        3.7430    0.4270    3.1740 h1        1 LK4      0.057200
     40 H19         4.3390   -0.5070    5.2490 ha        1 LK4      0.134000
     41 H21         1.9340    3.0440    5.9450 ha        1 LK4      0.142000
     42 H18         5.7890    0.0800    7.2020 ha        1 LK4      0.177000
     43 H14         2.5360    4.5660    7.8320 ha        1 LK4      0.128000
     44 H17         6.3040    1.4970    9.0550 ha        1 LK4      0.201000
     45 H13         4.0300    5.1280    9.7480 ha        1 LK4      0.152000
     46 H           8.2060    4.0840    9.8320 hn        1 LK4      0.459800
     47 HA          7.5970    1.4820   11.0330 h1        1 LK4      0.065700
     48 HBC1        9.8590    1.1070   11.6200 hc        1 LK4      0.045700
     49 HBC2        9.2880    2.5720   12.5110 hc        1 LK4      0.045700
     50 HGC1       10.5190    3.4150    9.9590 hc        1 LK4      0.105700
     51 HGC2       11.6170    2.2410   10.7710 hc        1 LK4      0.105700
     52 H2          9.4950    4.8050   11.9740 ho        1 LK4      0.437000
@<TRIPOS>BOND
     1    1    2 3   
     2    2    3 1   
     3    3    4 ar  
     4    3    6 ar  
     5    4    5 ar  
     6    4   34 1   
     7    5    8 ar  
     8    5   36 1   
     9    6    7 ar  
    10    6   35 1   
    11    7    8 ar  
    12    7   37 1   
    13    8    9 1   
    14    9   10 1   
    15    9   38 1   
    16    9   39 1   
    17   10   11 1   
    18   11   12 ar  
    19   11   14 ar  
    20   12   13 ar  
    21   12   40 1   
    22   13   16 ar  
    23   13   42 1   
    24   14   15 ar  
    25   14   41 1   
    26   15   16 ar  
    27   15   18 ar  
    28   16   17 ar  
    29   17   20 ar  
    30   17   44 1   
    31   18   19 ar  
    32   18   43 1   
    33   19   20 ar  
    34   19   45 1   
    35   20   21 1   
    36   21   22 2   
    37   21   23 2   
    38   21   24 1   
    39   24   25 1   
    40   24   46 1   
    41   25   26 1   
    42   25   29 1   
    43   25   47 1   
    44   26   27 1   
    45   26   28 1   
    46   29   30 1   
    47   29   48 1   
    48   29   49 1   
    49   30   31 1   
    50   30   50 1   
    51   30   51 1   
    52   31   32 2   
    53   31   33 1   
    54   33   52 1   
@<TRIPOS>SUBSTRUCTURE
     1 LK4         1 TEMP              0 ****  ****    0 ROOT
