@<TRIPOS>MOLECULE
LK4
   52    54     1     0     0
SMALL
bcc


@<TRIPOS>ATOM
      1 N31        -1.3060    0.3040   -2.1350 n1        1 LK4     -0.379800
      2 C30        -0.6360    0.2780   -1.1840 cg        1 LK4      0.241800
      3 C27         0.1830    0.2450   -0.0220 ca        1 LK4     -0.029000
      4 C28         1.4640   -0.3230   -0.0840 ca        1 LK4     -0.092500
      5 C29         2.2620   -0.3550    1.0550 ca        1 LK4     -0.122500
      6 C26        -0.2880    0.7810    1.1840 ca        1 LK4     -0.092500
      7 C25         0.5160    0.7430    2.3220 ca        1 LK4     -0.122500
      8 C24         1.7920    0.1750    2.2640 ca        1 LK4     -0.058300
      9 C23         2.6740    0.0910    3.4670 c3        1 LK4      0.168700
     10 O22         2.1630    0.9830    4.4660 os        1 LK4     -0.341900
     11 C20         3.0410    1.2630    5.5040 ca        1 LK4      0.129100
     12 C19         4.1000    0.3930    5.8750 ca        1 LK4     -0.214000
     13 C18         4.8910    0.7140    6.9510 ca        1 LK4     -0.040000
     14 C21         2.7910    2.4370    6.1960 ca        1 LK4     -0.176000
     15 C15         3.6030    2.7740    7.3070 ca        1 LK4      0.033000
     16 C16         4.6530    1.9030    7.6920 ca        1 LK4     -0.096000
     17 C17         5.4680    2.2380    8.8070 ca        1 LK4      0.042000
     18 C14         3.4120    3.9770    8.0440 ca        1 LK4     -0.167000
     19 C13         4.2320    4.2830    9.0990 ca        1 LK4     -0.029000
     20 C12         5.2790    3.4110    9.5060 ca        1 LK4     -0.387500
     21 S11         6.2180    3.8510   10.8510 sy        1 LK4      1.499200
     22 O33         6.0800    5.2560   11.0240 o         1 LK4     -0.671300
     23 O32         5.7990    3.0820   11.9640 o         1 LK4     -0.671300
     24 N           7.7260    3.5120   10.4380 n3        1 LK4     -0.906100
     25 CA          8.3280    2.2040   10.5930 c3        1 LK4      0.076500
     26 C           8.7030    1.5940    9.1920 c         1 LK4      0.903600
     27 O           8.1790    0.4810    8.9150 o         1 LK4     -0.820800
     28 OXT         9.4410    2.2710    8.4290 o         1 LK4     -0.820800
     29 CB          9.5450    2.1850   11.5240 c3        1 LK4     -0.065400
     30 CG         10.7630    2.9010   10.9740 c3        1 LK4     -0.189400
     31 CD         11.2670    3.9800   11.8770 c         1 LK4      0.631100
     32 OE1        12.4150    4.1200   12.3080 o         1 LK4     -0.535000
     33 OE2        10.4210    4.9720   12.2930 oh        1 LK4     -0.600100
     34 H28         1.8360   -0.7410   -1.0310 ha        1 LK4      0.142500
     35 H26        -1.2910    1.2310    1.2340 ha        1 LK4      0.142500
     36 H29         3.2690   -0.7960    1.0050 ha        1 LK4      0.152000
     37 H25         0.1520    1.1660    3.2720 ha        1 LK4      0.152000
     38 H231        2.6530   -0.9570    3.8770 h1        1 LK4      0.057200
     39 H232        3.7290    0.3700    3.2040 h1        1 LK4      0.057200
     40 H19         4.2840   -0.5300    5.3080 ha        1 LK4      0.134000
     41 H21         1.9720    3.1020    5.8920 ha        1 LK4      0.142000
     42 H18         5.7360    0.0690    7.2560 ha        1 LK4      0.177000
     43 H14         2.6020    4.6560    7.7430 ha        1 LK4      0.128000
     44 H17         6.2760    1.5200    9.0750 ha        1 LK4      0.201000
     45 H13         4.0970    5.2280    9.6550 ha        1 LK4      0.152000
     46 H           8.2430    4.0740    9.7980 hn        1 LK4      0.459800
     47 HA          7.5540    1.5220   11.0640 h1        1 LK4      0.065700
     48 HBC1        9.8000    1.1020   11.6790 hc        1 LK4      0.045700
     49 HBC2        9.2630    2.6060   12.5250 hc        1 LK4      0.045700
     50 HGC1       11.5950    2.1640   10.8120 hc        1 LK4      0.105700
     51 HGC2       10.5350    3.3460    9.9620 hc        1 LK4      0.105700
     52 H2          9.5370    4.8170   11.9310 ho        1 LK4      0.437000
@<TRIPOS>BOND
     1    1    2 3   
     2    2    3 1   
     3    3    4 ar  
     4    3    6 ar  
     5    4    5 ar  
     6    4   34 1   
     7    5    8 ar  
     8    5   36 1   
     9    6    7 ar  
    10    6   35 1   
    11    7    8 ar  
    12    7   37 1   
    13    8    9 1   
    14    9   10 1   
    15    9   38 1   
    16    9   39 1   
    17   10   11 1   
    18   11   12 ar  
    19   11   14 ar  
    20   12   13 ar  
    21   12   40 1   
    22   13   16 ar  
    23   13   42 1   
    24   14   15 ar  
    25   14   41 1   
    26   15   16 ar  
    27   15   18 ar  
    28   16   17 ar  
    29   17   20 ar  
    30   17   44 1   
    31   18   19 ar  
    32   18   43 1   
    33   19   20 ar  
    34   19   45 1   
    35   20   21 1   
    36   21   22 2   
    37   21   23 2   
    38   21   24 1   
    39   24   25 1   
    40   24   46 1   
    41   25   26 1   
    42   25   29 1   
    43   25   47 1   
    44   26   27 1   
    45   26   28 1   
    46   29   30 1   
    47   29   48 1   
    48   29   49 1   
    49   30   31 1   
    50   30   50 1   
    51   30   51 1   
    52   31   32 2   
    53   31   33 1   
    54   33   52 1   
@<TRIPOS>SUBSTRUCTURE
     1 LK4         1 TEMP              0 ****  ****    0 ROOT
