@<TRIPOS>MOLECULE
LK5
   48    49     1     0     0
SMALL
bcc


@<TRIPOS>ATOM
      1 C1          0.9010    1.6020    2.2620 c3        1 LK5     -0.087100
      2 C3          2.0810    1.1550    1.4380 c3        1 LK5     -0.080400
      3 C4          2.8110    0.0030    2.0910 c3        1 LK5     -0.096400
      4 C5          3.9980   -0.4300    1.2440 c3        1 LK5      0.114400
      5 O4          4.6390   -1.5370    1.8680 os        1 LK5     -0.447600
      6 C6          5.9650   -1.2400    2.3430 c3        1 LK5      0.219300
      7 C7          6.5450   -2.5760    2.8150 c3        1 LK5     -0.068400
      8 C8          6.0060   -2.9990    4.1650 c3        1 LK5     -0.065400
      9 C9          6.2470   -1.9490    5.2340 c3        1 LK5     -0.069400
     10 C10         5.5780   -0.6480    4.8410 c3        1 LK5     -0.025500
     11 C11         5.9820   -0.2530    3.4420 c2        1 LK5     -0.278400
     12 C12         6.4120    1.0390    3.4160 ce        1 LK5      0.045800
     13 C13         7.0280    1.8100    2.2500 c         1 LK5      0.925800
     14 O3          6.5910    1.5750    1.0920 o         1 LK5     -0.819300
     15 O2          7.9570    2.6160    2.5300 o         1 LK5     -0.819300
     16 N1          6.2810    1.6680    4.6830 nh        1 LK5     -0.698000
     17 C14         5.9160    0.6400    5.6750 c3        1 LK5      0.178500
     18 C15         6.9370    0.4260    6.8050 c3        1 LK5     -0.198700
     19 C16         7.1750    1.7120    7.5950 c3        1 LK5     -0.072400
     20 C2          8.3280    1.5760    8.5570 c3        1 LK5     -0.101100
     21 C17         6.4180   -0.6140    7.7650 c         1 LK5      0.585900
     22 O1          7.1440   -1.3820    8.4010 o         1 LK5     -0.556100
     23 H11         0.3760    2.4520    1.7630 hc        1 LK5      0.022367
     24 H12         0.1720    0.7660    2.3950 hc        1 LK5      0.022367
     25 H13         1.2350    1.9380    3.2730 hc        1 LK5      0.022367
     26 H31         1.7320    0.8480    0.4170 hc        1 LK5      0.042200
     27 H32         2.7930    2.0120    1.3010 hc        1 LK5      0.042200
     28 H41         3.1830    0.3050    3.1050 hc        1 LK5      0.040200
     29 H42         2.1150   -0.8640    2.2360 hc        1 LK5      0.040200
     30 H51         3.6440   -0.8140    0.2480 h1        1 LK5      0.064700
     31 H52         4.7100    0.4300    1.0870 h1        1 LK5      0.064700
     32 H6          6.5650   -0.8370    1.4730 h1        1 LK5      0.078700
     33 H71         6.3060   -3.3650    2.0550 hc        1 LK5      0.038700
     34 H72         7.6590   -2.4650    2.8690 hc        1 LK5      0.038700
     35 H81         4.9030   -3.1840    4.0710 hc        1 LK5      0.031200
     36 H82         6.4900   -3.9610    4.4770 hc        1 LK5      0.031200
     37 H91         5.8350   -2.3210    6.2100 hc        1 LK5      0.030200
     38 H92         7.3500   -1.7960    5.3660 hc        1 LK5      0.030200
     39 H10         4.4640   -0.7940    4.8830 hc        1 LK5      0.050700
     40 HN1         7.0800    2.2250    4.9110 hn        1 LK5      0.398800
     41 H14         4.9620    1.0030    6.1590 h1        1 LK5      0.040700
     42 H15         7.9150    0.0810    6.3690 hc        1 LK5      0.089700
     43 H161        6.2380    1.9790    8.1530 hc        1 LK5      0.048200
     44 H162        7.3920    2.5610    6.8960 hc        1 LK5      0.048200
     45 H21         8.4230    2.5000    9.1760 hc        1 LK5      0.035367
     46 H22         8.1780    0.7020    9.2380 hc        1 LK5      0.035367
     47 H23         9.2850    1.4220    8.0010 hc        1 LK5      0.035367
     48 H17         5.3110   -0.6330    7.8900 h4        1 LK5     -0.010800
@<TRIPOS>BOND
     1    1    2 1   
     2    1   23 1   
     3    1   24 1   
     4    1   25 1   
     5    2    3 1   
     6    2   26 1   
     7    2   27 1   
     8    3    4 1   
     9    3   28 1   
    10    3   29 1   
    11    4    5 1   
    12    4   30 1   
    13    4   31 1   
    14    5    6 1   
    15    6    7 1   
    16    6   11 1   
    17    6   32 1   
    18    7    8 1   
    19    7   33 1   
    20    7   34 1   
    21    8    9 1   
    22    8   35 1   
    23    8   36 1   
    24    9   10 1   
    25    9   37 1   
    26    9   38 1   
    27   10   11 1   
    28   10   17 1   
    29   10   39 1   
    30   11   12 2   
    31   12   13 1   
    32   12   16 1   
    33   13   14 1   
    34   13   15 1   
    35   16   17 1   
    36   16   40 1   
    37   17   18 1   
    38   17   41 1   
    39   18   19 1   
    40   18   21 1   
    41   18   42 1   
    42   19   20 1   
    43   19   43 1   
    44   19   44 1   
    45   20   45 1   
    46   20   46 1   
    47   20   47 1   
    48   21   22 2   
    49   21   48 1   
@<TRIPOS>SUBSTRUCTURE
     1 LK5         1 TEMP              0 ****  ****    0 ROOT
