@<TRIPOS>MOLECULE
LK5
   48    49     1     0     0
SMALL
bcc


@<TRIPOS>ATOM
      1 C1          0.8260    1.4930    2.3560 c3        1 LK5     -0.087100
      2 C3          2.0210    1.1420    1.5070 c3        1 LK5     -0.080400
      3 C4          2.8050   -0.0080    2.0980 c3        1 LK5     -0.096400
      4 C5          4.0060   -0.3420    1.2270 c3        1 LK5      0.114400
      5 O4          4.7000   -1.4500    1.7920 os        1 LK5     -0.447600
      6 C6          6.0130   -1.1170    2.2780 c3        1 LK5      0.219300
      7 C7          6.6560   -2.4480    2.6800 c3        1 LK5     -0.068400
      8 C8          6.1430   -2.9620    4.0090 c3        1 LK5     -0.065400
      9 C9          6.3420   -1.9560    5.1300 c3        1 LK5     -0.069400
     10 C10         5.6130   -0.6700    4.8040 c3        1 LK5     -0.025500
     11 C11         5.9910   -0.1870    3.4260 c2        1 LK5     -0.278400
     12 C12         6.3630    1.1240    3.4640 ce        1 LK5      0.045800
     13 C13         6.9380    1.9790    2.3370 c         1 LK5      0.925800
     14 O3          6.5060    1.7830    1.1690 o         1 LK5     -0.819300
     15 O2          7.8310    2.8120    2.6550 o         1 LK5     -0.819300
     16 N1          6.2090    1.6810    4.7620 nu        1 LK5     -0.698000
     17 C14         5.8960    0.5890    5.7010 c3        1 LK5      0.178500
     18 C15         6.9300    0.3650    6.8170 c3        1 LK5     -0.198700
     19 C16         7.1130    1.6190    7.6700 c3        1 LK5     -0.072400
     20 C2          8.2750    1.4870    8.6220 c3        1 LK5     -0.101100
     21 C17         6.4630   -0.7440    7.7250 c         1 LK5      0.585900
     22 O1          7.2250   -1.5100    8.3200 o         1 LK5     -0.556100
     23 H11         0.1370    0.6190    2.4480 hc        1 LK5      0.022367
     24 H12         1.1500    1.7920    3.3820 hc        1 LK5      0.022367
     25 H13         0.2610    2.3420    1.9020 hc        1 LK5      0.022367
     26 H31         2.6930    2.0370    1.4120 hc        1 LK5      0.042200
     27 H32         1.6810    0.8720    0.4720 hc        1 LK5      0.042200
     28 H41         2.1500   -0.9100    2.2000 hc        1 LK5      0.040200
     29 H42         3.1690    0.2600    3.1250 hc        1 LK5      0.040200
     30 H51         3.6660   -0.6910    0.2140 h1        1 LK5      0.064700
     31 H52         4.6790    0.5560    1.1130 h1        1 LK5      0.064700
     32 H6          6.5900   -0.6430    1.4280 h1        1 LK5      0.078700
     33 H71         7.7640   -2.2880    2.7370 hc        1 LK5      0.038700
     34 H72         6.4490   -3.2070    1.8830 hc        1 LK5      0.038700
     35 H81         6.6720   -3.9150    4.2710 hc        1 LK5      0.031200
     36 H82         5.0490   -3.1920    3.9090 hc        1 LK5      0.031200
     37 H91         7.4370   -1.7600    5.2660 hc        1 LK5      0.030200
     38 H92         5.9520   -2.3960    6.0860 hc        1 LK5      0.030200
     39 H10         4.5060   -0.8680    4.8410 hc        1 LK5      0.050700
     40 HN1         6.9840    2.2610    5.0160 hn        1 LK5      0.398800
     41 H14         4.9280    0.8840    6.2050 h1        1 LK5      0.040700
     42 H15         7.9210    0.0870    6.3620 hc        1 LK5      0.089700
     43 H161        7.2890    2.5110    7.0140 hc        1 LK5      0.048200
     44 H162        6.1680    1.8150    8.2420 hc        1 LK5      0.048200
     45 H21         8.1680    0.5740    9.2580 hc        1 LK5      0.035367
     46 H22         8.3310    2.3820    9.2870 hc        1 LK5      0.035367
     47 H23         9.2360    1.4050    8.0570 hc        1 LK5      0.035367
     48 H17         5.3580   -0.8200    7.8510 h4        1 LK5     -0.010800
@<TRIPOS>BOND
     1    1    2 1   
     2    1   23 1   
     3    1   24 1   
     4    1   25 1   
     5    2    3 1   
     6    2   26 1   
     7    2   27 1   
     8    3    4 1   
     9    3   28 1   
    10    3   29 1   
    11    4    5 1   
    12    4   30 1   
    13    4   31 1   
    14    5    6 1   
    15    6    7 1   
    16    6   11 1   
    17    6   32 1   
    18    7    8 1   
    19    7   33 1   
    20    7   34 1   
    21    8    9 1   
    22    8   35 1   
    23    8   36 1   
    24    9   10 1   
    25    9   37 1   
    26    9   38 1   
    27   10   11 1   
    28   10   17 1   
    29   10   39 1   
    30   11   12 2   
    31   12   13 1   
    32   12   16 1   
    33   13   14 1   
    34   13   15 1   
    35   16   17 1   
    36   16   40 1   
    37   17   18 1   
    38   17   41 1   
    39   18   19 1   
    40   18   21 1   
    41   18   42 1   
    42   19   20 1   
    43   19   43 1   
    44   19   44 1   
    45   20   45 1   
    46   20   46 1   
    47   20   47 1   
    48   21   22 2   
    49   21   48 1   
@<TRIPOS>SUBSTRUCTURE
     1 LK5         1 TEMP              0 ****  ****    0 ROOT
