@<TRIPOS>MOLECULE
LK5
   48    49     1     0     0
SMALL
bcc


@<TRIPOS>ATOM
      1 C1          0.8470    1.4660    2.2840 c3        1 LK5     -0.087100
      2 C3          2.0470    1.0950    1.4530 c3        1 LK5     -0.080400
      3 C4          2.8240   -0.0450    2.0740 c3        1 LK5     -0.096400
      4 C5          4.0310   -0.4000    1.2210 c3        1 LK5      0.114400
      5 O4          4.7170   -1.4980    1.8140 os        1 LK5     -0.447600
      6 C6          6.0260   -1.1580    2.3060 c3        1 LK5      0.219300
      7 C7          6.6620   -2.4820    2.7410 c3        1 LK5     -0.068400
      8 C8          6.1350   -2.9670    4.0750 c3        1 LK5     -0.065400
      9 C9          6.3250   -1.9400    5.1770 c3        1 LK5     -0.069400
     10 C10         5.6020   -0.6590    4.8190 c3        1 LK5     -0.025500
     11 C11         5.9950   -0.2050    3.4350 c2        1 LK5     -0.278400
     12 C12         6.3690    1.1050    3.4500 ce        1 LK5      0.045800
     13 C13         6.9570    1.9370    2.3120 c         1 LK5      0.925800
     14 O3          6.5370    1.7180    1.1440 o         1 LK5     -0.819300
     15 O2          7.8490    2.7730    2.6210 o         1 LK5     -0.819300
     16 N1          6.2050    1.6890    4.7350 nh        1 LK5     -0.698000
     17 C14         5.8790    0.6170    5.6930 c3        1 LK5      0.178500
     18 C15         6.9020    0.4130    6.8230 c3        1 LK5     -0.198700
     19 C16         7.0800    1.6840    7.6520 c3        1 LK5     -0.072400
     20 C2          8.2320    1.5690    8.6180 c3        1 LK5     -0.101100
     21 C17         6.4240   -0.6760    7.7480 c         1 LK5      0.585900
     22 O1          7.1780   -1.4310    8.3660 o         1 LK5     -0.556100
     23 H11         1.1630    1.7870    3.3060 hc        1 LK5      0.022367
     24 H12         0.1540    0.5960    2.3890 hc        1 LK5      0.022367
     25 H13         0.2870    2.3070    1.8080 hc        1 LK5      0.022367
     26 H31         1.7150    0.8040    0.4210 hc        1 LK5      0.042200
     27 H32         2.7230    1.9850    1.3450 hc        1 LK5      0.042200
     28 H41         2.1650   -0.9440    2.1900 hc        1 LK5      0.040200
     29 H42         3.1790    0.2430    3.0990 hc        1 LK5      0.040200
     30 H51         3.6980   -0.7690    0.2120 h1        1 LK5      0.064700
     31 H52         4.7070    0.4930    1.0930 h1        1 LK5      0.064700
     32 H6          6.6120   -0.7030    1.4520 h1        1 LK5      0.078700
     33 H71         6.4610   -3.2560    1.9580 hc        1 LK5      0.038700
     34 H72         7.7690   -2.3240    2.8050 hc        1 LK5      0.038700
     35 H81         5.0420   -3.1970    3.9690 hc        1 LK5      0.031200
     36 H82         6.6590   -3.9160    4.3610 hc        1 LK5      0.031200
     37 H91         7.4200   -1.7440    5.3200 hc        1 LK5      0.030200
     38 H92         5.9260   -2.3600    6.1380 hc        1 LK5      0.030200
     39 H10         4.4950   -0.8540    4.8490 hc        1 LK5      0.050700
     40 HN1         6.9780    2.2720    4.9840 hn        1 LK5      0.398800
     41 H14         4.9080    0.9240    6.1810 h1        1 LK5      0.040700
     42 H15         7.8970    0.1240    6.3840 hc        1 LK5      0.089700
     43 H161        6.1300    1.8940    8.2110 hc        1 LK5      0.048200
     44 H162        7.2650    2.5620    6.9800 hc        1 LK5      0.048200
     45 H21         9.1980    1.4720    8.0650 hc        1 LK5      0.035367
     46 H22         8.1160    0.6690    9.2720 hc        1 LK5      0.035367
     47 H23         8.2840    2.4770    9.2650 hc        1 LK5      0.035367
     48 H17         5.3180   -0.7470    7.8650 h4        1 LK5     -0.010800
@<TRIPOS>BOND
     1    1    2 1   
     2    1   23 1   
     3    1   24 1   
     4    1   25 1   
     5    2    3 1   
     6    2   26 1   
     7    2   27 1   
     8    3    4 1   
     9    3   28 1   
    10    3   29 1   
    11    4    5 1   
    12    4   30 1   
    13    4   31 1   
    14    5    6 1   
    15    6    7 1   
    16    6   11 1   
    17    6   32 1   
    18    7    8 1   
    19    7   33 1   
    20    7   34 1   
    21    8    9 1   
    22    8   35 1   
    23    8   36 1   
    24    9   10 1   
    25    9   37 1   
    26    9   38 1   
    27   10   11 1   
    28   10   17 1   
    29   10   39 1   
    30   11   12 2   
    31   12   13 1   
    32   12   16 1   
    33   13   14 1   
    34   13   15 1   
    35   16   17 1   
    36   16   40 1   
    37   17   18 1   
    38   17   41 1   
    39   18   19 1   
    40   18   21 1   
    41   18   42 1   
    42   19   20 1   
    43   19   43 1   
    44   19   44 1   
    45   20   45 1   
    46   20   46 1   
    47   20   47 1   
    48   21   22 2   
    49   21   48 1   
@<TRIPOS>SUBSTRUCTURE
     1 LK5         1 TEMP              0 ****  ****    0 ROOT
