@<TRIPOS>MOLECULE
LK5
   48    49     1     0     0
SMALL
bcc


@<TRIPOS>ATOM
      1 C1          4.7800   -0.0490   -2.5970 c3        1 LK5     -0.087100
      2 C3          4.6160    0.2660   -1.1320 c3        1 LK5     -0.080400
      3 C4          3.6380   -0.6750   -0.4660 c3        1 LK5     -0.096400
      4 C5          3.4870   -0.3370    1.0090 c3        1 LK5      0.114400
      5 O4          2.5890   -1.2640    1.6120 os        1 LK5     -0.447600
      6 C6          1.3580   -0.6650    2.0530 c3        1 LK5      0.219300
      7 C7          0.6130   -1.7640    2.8170 c3        1 LK5     -0.068400
      8 C8         -0.0450   -2.7680    1.8930 c3        1 LK5     -0.065400
      9 C9         -1.0010   -2.1090    0.9160 c3        1 LK5     -0.069400
     10 C10        -0.2570   -1.1000    0.0670 c3        1 LK5     -0.025500
     11 C11         0.5270   -0.1540    0.9430 c2        1 LK5     -0.278400
     12 C12         0.2680    1.1390    0.6020 ce        1 LK5      0.045800
     13 C13         0.7380    2.4150    1.2970 c         1 LK5      0.925800
     14 O3          1.8950    2.4210    1.7980 o         1 LK5     -0.819300
     15 O2         -0.0820    3.3720    1.3430 o         1 LK5     -0.819300
     16 N1         -0.5920    1.2280   -0.5250 nh        1 LK5     -0.698000
     17 C14        -1.0980   -0.1220   -0.8300 c3        1 LK5      0.178500
     18 C15        -2.6230   -0.2930   -0.7140 c3        1 LK5     -0.198700
     19 C16        -3.3650    0.6590   -1.6480 c3        1 LK5     -0.072400
     20 C2         -4.8510    0.6590   -1.3890 c3        1 LK5     -0.101100
     21 C17        -3.0040   -1.7010   -1.0950 c         1 LK5      0.585900
     22 O1         -3.9650   -2.3050   -0.6130 o         1 LK5     -0.556100
     23 H11         5.5060    0.6560   -3.0690 hc        1 LK5      0.022367
     24 H12         5.1570   -1.0910   -2.7370 hc        1 LK5      0.022367
     25 H13         3.8020    0.0430   -3.1280 hc        1 LK5      0.022367
     26 H31         5.6120    0.1980   -0.6190 hc        1 LK5      0.042200
     27 H32         4.2520    1.3220   -1.0110 hc        1 LK5      0.042200
     28 H41         2.6330   -0.6000   -0.9580 hc        1 LK5      0.040200
     29 H42         3.9860   -1.7350   -0.5770 hc        1 LK5      0.040200
     30 H51         4.4650   -0.4820    1.5420 h1        1 LK5      0.064700
     31 H52         3.1370    0.7270    1.1400 h1        1 LK5      0.064700
     32 H6          1.6150    0.1900    2.7480 h1        1 LK5      0.078700
     33 H71         1.3360   -2.2950    3.4880 hc        1 LK5      0.038700
     34 H72        -0.1640   -1.2700    3.4550 hc        1 LK5      0.038700
     35 H81         0.7540   -3.3100    1.3210 hc        1 LK5      0.031200
     36 H82        -0.6040   -3.5260    2.5020 hc        1 LK5      0.031200
     37 H91        -1.4620   -2.9010    0.2680 hc        1 LK5      0.030200
     38 H92        -1.8290   -1.6080    1.4820 hc        1 LK5      0.030200
     39 H10         0.4490   -1.6550   -0.6100 hc        1 LK5      0.050700
     40 HN1        -1.2890    1.9370   -0.4110 hn        1 LK5      0.398800
     41 H14        -0.8280   -0.3170   -1.9090 h1        1 LK5      0.040700
     42 H15        -2.9460   -0.0890    0.3440 hc        1 LK5      0.089700
     43 H161       -2.9820    1.7050   -1.5210 hc        1 LK5      0.048200
     44 H162       -3.1610    0.3640   -2.7120 hc        1 LK5      0.048200
     45 H21        -5.0690    1.0590   -0.3690 hc        1 LK5      0.035367
     46 H22        -5.3730    1.2990   -2.1390 hc        1 LK5      0.035367
     47 H23        -5.2660   -0.3770   -1.4500 hc        1 LK5      0.035367
     48 H17        -2.3640   -2.1700   -1.8780 h4        1 LK5     -0.010800
@<TRIPOS>BOND
     1    1    2 1   
     2    1   23 1   
     3    1   24 1   
     4    1   25 1   
     5    2    3 1   
     6    2   26 1   
     7    2   27 1   
     8    3    4 1   
     9    3   28 1   
    10    3   29 1   
    11    4    5 1   
    12    4   30 1   
    13    4   31 1   
    14    5    6 1   
    15    6    7 1   
    16    6   11 1   
    17    6   32 1   
    18    7    8 1   
    19    7   33 1   
    20    7   34 1   
    21    8    9 1   
    22    8   35 1   
    23    8   36 1   
    24    9   10 1   
    25    9   37 1   
    26    9   38 1   
    27   10   11 1   
    28   10   17 1   
    29   10   39 1   
    30   11   12 2   
    31   12   13 1   
    32   12   16 1   
    33   13   14 1   
    34   13   15 1   
    35   16   17 1   
    36   16   40 1   
    37   17   18 1   
    38   17   41 1   
    39   18   19 1   
    40   18   21 1   
    41   18   42 1   
    42   19   20 1   
    43   19   43 1   
    44   19   44 1   
    45   20   45 1   
    46   20   46 1   
    47   20   47 1   
    48   21   22 2   
    49   21   48 1   
@<TRIPOS>SUBSTRUCTURE
     1 LK5         1 TEMP              0 ****  ****    0 ROOT
