@<TRIPOS>MOLECULE
LK7
   37    36     1     0     0
SMALL
bcc


@<TRIPOS>ATOM
      1 C1         -3.3080   -1.6710   -2.0950 c3        1 LK7     -0.191000
      2 C2         -1.7950   -1.6710   -2.0950 c2        1 LK7     -0.107000
      3 C3         -1.1210   -1.6710   -0.9280 c1        1 LK7     -0.173000
      4 C4         -1.8780   -1.6710    0.3820 c1        1 LK7      0.229000
      5 O1         -1.8750   -2.6630    1.0860 o         1 LK7     -0.343000
      6 C5          0.1180   -1.6710   -0.9280 c3        1 LK7      0.010000
      7 N1          0.7140   -2.2700    0.5710 n3        1 LK7     -0.273000
      8 C6          0.9210   -1.1920    1.2580 c2        1 LK7     -0.004000
      9 C7          0.3110   -1.0430    2.6340 c2        1 LK7      0.375000
     10 O2         -0.8110   -0.4870    2.7680 o         1 LK7     -0.551500
     11 O3          0.9200   -1.4810    3.6450 o         1 LK7     -0.551500
     12 C8          1.0780   -0.1160    0.4740 c1        1 LK7     -0.281000
     13 C9          0.6540   -0.2210   -0.8560 c3        1 LK7     -0.058000
     14 C10        -0.4760    0.7410   -1.1950 c3        1 LK7     -0.137000
     15 C11        -0.1750    2.1580   -0.7950 c3        1 LK7     -0.147000
     16 C12         0.2640    2.2600    0.6400 c3        1 LK7     -0.145000
     17 C13         1.4420    1.3090    0.9700 c2        1 LK7      0.096000
     18 O4          2.6840    1.7710    0.4420 os        1 LK7     -0.306000
     19 C14         3.5490    2.3170    1.4130 c3        1 LK7     -0.066000
     20 H11        -3.6330   -1.6050   -3.0130 hc        1 LK7      0.086333
     21 H12        -3.6330   -0.9090   -1.5800 hc        1 LK7      0.086333
     22 H13A       -3.6330   -2.4990   -1.6930 hc        1 LK7      0.086333
     23 H2         -1.3070   -1.6710   -2.9410 ha        1 LK7      0.114000
     24 H4         -2.4120   -0.8950    0.6360 ha        1 LK7      0.137000
     25 H5          0.3090   -2.1880   -1.7340 h1        1 LK7      0.063000
     26 HN1         1.1200   -3.0760    0.7030 hn        1 LK7      0.203000
     27 H9          1.4060   -0.1020   -1.4670 hc        1 LK7      0.083000
     28 H101       -1.2850    0.4500   -0.7340 hc        1 LK7      0.068500
     29 H102       -0.6340    0.7140   -2.1570 hc        1 LK7      0.068500
     30 H111       -0.9770    2.6990   -0.9200 hc        1 LK7      0.068500
     31 H112        0.5350    2.5050   -1.3680 hc        1 LK7      0.068500
     32 H121       -0.4920    2.0380    1.2180 hc        1 LK7      0.079500
     33 H122        0.5400    3.1780    0.8210 hc        1 LK7      0.079500
     34 H13         1.6320    1.3070    1.9280 h4        1 LK7      0.134000
     35 H141        3.0810    3.0120    1.9130 h1        1 LK7      0.067000
     36 H142        4.3300    2.7030    0.9730 h1        1 LK7      0.067000
     37 H143        3.8370    1.6130    2.0250 h1        1 LK7      0.067000
@<TRIPOS>BOND
     1    1    2 1   
     2    1   20 1   
     3    1   21 1   
     4    1   22 1   
     5    2    3 1   
     6    2   23 1   
     7    3    6 1   
     8    4    5 1   
     9    4   24 1   
    10    6    7 1   
    11    6   13 1   
    12    6   25 1   
    13    7    8 1   
    14    7   26 1   
    15    8    9 1   
    16    8   12 1   
    17    9   10 1   
    18    9   11 1   
    19   12   13 1   
    20   13   14 1   
    21   13   27 1   
    22   14   15 1   
    23   14   28 1   
    24   14   29 1   
    25   15   16 1   
    26   15   30 1   
    27   15   31 1   
    28   16   17 1   
    29   16   32 1   
    30   16   33 1   
    31   17   18 1   
    32   17   34 1   
    33   18   19 1   
    34   19   35 1   
    35   19   36 1   
    36   19   37 1   
@<TRIPOS>SUBSTRUCTURE
     1 LK7         1 TEMP              0 ****  ****    0 ROOT
