@<TRIPOS>MOLECULE
LK7
   37    38     1     0     0
SMALL
bcc


@<TRIPOS>ATOM
      1 C1         -0.1990    0.0340    0.1730 c3        1 LK7     -0.072900
      2 C2          1.2600    0.2310    0.2440 c2        1 LK7     -0.105200
      3 C3          2.0050    0.1530    1.3620 ce        1 LK7     -0.228400
      4 C4          3.4660    0.3700    1.2870 c         1 LK7      0.566100
      5 O1          4.0550    0.6010    0.2230 o         1 LK7     -0.568100
      6 C5          1.4180   -0.1500    2.7110 c3        1 LK7      0.204700
      7 N1          1.8760    0.7210    3.8120 nh        1 LK7     -0.696000
      8 C6          2.6440   -0.0760    4.7070 ce        1 LK7      0.038800
      9 C7          3.5060    0.6000    5.7700 c         1 LK7      0.923800
     10 O2          3.5990    0.0440    6.8970 o         1 LK7     -0.817800
     11 O3          4.0930    1.6620    5.4250 o         1 LK7     -0.817800
     12 C8          2.5330   -1.4060    4.4280 c2        1 LK7     -0.277400
     13 C9          1.6890   -1.6190    3.1960 c3        1 LK7     -0.015500
     14 C10         2.3750   -2.5510    2.2230 c3        1 LK7     -0.061400
     15 C11         2.7870   -3.8240    2.9420 c3        1 LK7     -0.067400
     16 C12         3.7320   -3.5450    4.0920 c3        1 LK7     -0.069400
     17 C13         3.1550   -2.5580    5.1120 c3        1 LK7      0.220300
     18 O4          2.2030   -3.3040    5.8910 os        1 LK7     -0.449600
     19 C14         1.8560   -2.6580    7.1060 c3        1 LK7      0.106700
     20 H11        -0.5600    0.1030   -0.8820 hc        1 LK7      0.044367
     21 H12        -0.4820   -0.9710    0.5780 hc        1 LK7      0.044367
     22 H13A       -0.7310    0.8130    0.7780 hc        1 LK7      0.044367
     23 H2          1.7620    0.4580   -0.7150 ha        1 LK7      0.132000
     24 H4          4.0220    0.3040    2.2510 h4        1 LK7      0.041200
     25 H5          0.3000    0.0000    2.6510 h1        1 LK7      0.051700
     26 HN1         2.3560    1.5520    3.5290 hn        1 LK7      0.397800
     27 H9          0.7020   -2.0700    3.4890 hc        1 LK7      0.052700
     28 H101        3.2850   -2.0590    1.7880 hc        1 LK7      0.027700
     29 H102        1.6870   -2.7980    1.3740 hc        1 LK7      0.027700
     30 H111        3.2790   -4.5190    2.2130 hc        1 LK7      0.030200
     31 H112        1.8710   -4.3360    3.3410 hc        1 LK7      0.030200
     32 H121        4.6870   -3.1100    3.6990 hc        1 LK7      0.037200
     33 H122        3.9730   -4.5070    4.6150 hc        1 LK7      0.037200
     34 H13         3.9710   -2.1880    5.8010 h1        1 LK7      0.076700
     35 H141        2.4580   -3.1180    7.9300 h1        1 LK7      0.037367
     36 H142        0.7690   -2.8710    7.2630 h1        1 LK7      0.037367
     37 H143        2.0470   -1.5530    7.0690 h1        1 LK7      0.037367
@<TRIPOS>BOND
     1    1    2 1   
     2    1   20 1   
     3    1   21 1   
     4    1   22 1   
     5    2    3 2   
     6    2   23 1   
     7    3    4 1   
     8    3    6 1   
     9    4    5 2   
    10    4   24 1   
    11    6    7 1   
    12    6   13 1   
    13    6   25 1   
    14    7    8 1   
    15    7   26 1   
    16    8    9 1   
    17    8   12 2   
    18    9   10 1   
    19    9   11 1   
    20   12   13 1   
    21   12   17 1   
    22   13   14 1   
    23   13   27 1   
    24   14   15 1   
    25   14   28 1   
    26   14   29 1   
    27   15   16 1   
    28   15   30 1   
    29   15   31 1   
    30   16   17 1   
    31   16   32 1   
    32   16   33 1   
    33   17   18 1   
    34   17   34 1   
    35   18   19 1   
    36   19   35 1   
    37   19   36 1   
    38   19   37 1   
@<TRIPOS>SUBSTRUCTURE
     1 LK7         1 TEMP              0 ****  ****    0 ROOT
