@<TRIPOS>MOLECULE
LK7
   37    38     1     0     0
SMALL
bcc


@<TRIPOS>ATOM
      1 C1         -0.2310    0.0310    0.2010 c3        1 LK7     -0.072900
      2 C2          1.2290    0.2290    0.2560 c2        1 LK7     -0.105200
      3 C3          1.9850    0.1530    1.3670 ce        1 LK7     -0.228400
      4 C4          3.4450    0.3710    1.2770 c         1 LK7      0.566100
      5 O1          4.0230    0.6020    0.2070 o         1 LK7     -0.568100
      6 C5          1.4120   -0.1490    2.7230 c3        1 LK7      0.204700
      7 N1          1.8810    0.7230    3.8180 nu        1 LK7     -0.696000
      8 C6          2.6580   -0.0740    4.7050 ce        1 LK7      0.038800
      9 C7          3.5300    0.6030    5.7600 c         1 LK7      0.923800
     10 O2          3.6350    0.0480    6.8860 o         1 LK7     -0.817800
     11 O3          4.1130    1.6650    5.4080 o         1 LK7     -0.817800
     12 C8          2.5440   -1.4040    4.4280 c2        1 LK7     -0.277400
     13 C9          1.6880   -1.6180    3.2050 c3        1 LK7     -0.015500
     14 C10         2.3650   -2.5510    2.2250 c3        1 LK7     -0.061400
     15 C11         2.7840   -3.8220    2.9410 c3        1 LK7     -0.067400
     16 C12         3.7410   -3.5430    4.0820 c3        1 LK7     -0.069400
     17 C13         3.1740   -2.5560    5.1070 c3        1 LK7      0.220300
     18 O4          2.2290   -3.3020    5.8960 os        1 LK7     -0.449600
     19 C14         1.8940   -2.6550    7.1140 c3        1 LK7      0.106700
     20 H11        -0.6020    0.0980   -0.8510 hc        1 LK7      0.044367
     21 H12        -0.7570    0.8100    0.8090 hc        1 LK7      0.044367
     22 H13A       -0.5090   -0.9740    0.6090 hc        1 LK7      0.044367
     23 H2          1.7210    0.4550   -0.7080 ha        1 LK7      0.132000
     24 H4          4.0100    0.3060    2.2350 h4        1 LK7      0.041200
     25 H5          0.2930    0.0010    2.6730 h1        1 LK7      0.051700
     26 HN1         2.3570    1.5540    3.5290 hn        1 LK7      0.397800
     27 H9          0.7040   -2.0690    3.5080 hc        1 LK7      0.052700
     28 H101        3.2700   -2.0580    1.7810 hc        1 LK7      0.027700
     29 H102        1.6680   -2.7980    1.3840 hc        1 LK7      0.027700
     30 H111        1.8730   -4.3340    3.3500 hc        1 LK7      0.030200
     31 H112        3.2690   -4.5180    2.2080 hc        1 LK7      0.030200
     32 H121        4.6920   -3.1080    3.6790 hc        1 LK7      0.037200
     33 H122        3.9870   -4.5040    4.6030 hc        1 LK7      0.037200
     34 H13         3.9970   -2.1850    5.7880 h1        1 LK7      0.076700
     35 H141        2.0850   -1.5500    7.0740 h1        1 LK7      0.037367
     36 H142        2.5030   -3.1150    7.9330 h1        1 LK7      0.037367
     37 H143        0.8080   -2.8670    7.2800 h1        1 LK7      0.037367
@<TRIPOS>BOND
     1    1    2 1   
     2    1   20 1   
     3    1   21 1   
     4    1   22 1   
     5    2    3 2   
     6    2   23 1   
     7    3    4 1   
     8    3    6 1   
     9    4    5 2   
    10    4   24 1   
    11    6    7 1   
    12    6   13 1   
    13    6   25 1   
    14    7    8 1   
    15    7   26 1   
    16    8    9 1   
    17    8   12 2   
    18    9   10 1   
    19    9   11 1   
    20   12   13 1   
    21   12   17 1   
    22   13   14 1   
    23   13   27 1   
    24   14   15 1   
    25   14   28 1   
    26   14   29 1   
    27   15   16 1   
    28   15   30 1   
    29   15   31 1   
    30   16   17 1   
    31   16   32 1   
    32   16   33 1   
    33   17   18 1   
    34   17   34 1   
    35   18   19 1   
    36   19   35 1   
    37   19   36 1   
    38   19   37 1   
@<TRIPOS>SUBSTRUCTURE
     1 LK7         1 TEMP              0 ****  ****    0 ROOT
