@<TRIPOS>MOLECULE
LK7
   37    38     1     0     0
SMALL
bcc


@<TRIPOS>ATOM
      1 C1         -0.2260    0.0710    0.2140 c3        1 LK7     -0.072900
      2 C2          1.2340    0.2640    0.2720 c2        1 LK7     -0.105200
      3 C3          1.9900    0.1740    1.3810 ce        1 LK7     -0.228400
      4 C4          3.4510    0.3880    1.2930 c         1 LK7      0.566100
      5 O1          4.0290    0.6280    0.2260 o         1 LK7     -0.568100
      6 C5          1.4160   -0.1400    2.7340 c3        1 LK7      0.204700
      7 N1          1.8890    0.7190    3.8380 nh        1 LK7     -0.696000
      8 C6          2.6620   -0.0890    4.7170 ce        1 LK7      0.038800
      9 C7          3.5380    0.5740    5.7780 c         1 LK7      0.923800
     10 O2          3.6400    0.0080    6.8990 o         1 LK7     -0.817800
     11 O3          4.1250    1.6380    5.4380 o         1 LK7     -0.817800
     12 C8          2.5440   -1.4150    4.4270 c2        1 LK7     -0.277400
     13 C9          1.6870   -1.6140    3.2020 c3        1 LK7     -0.015500
     14 C10         2.3600   -2.5400    2.2130 c3        1 LK7     -0.061400
     15 C11         2.7740   -3.8200    2.9160 c3        1 LK7     -0.067400
     16 C12         3.7320   -3.5560    4.0590 c3        1 LK7     -0.069400
     17 C13         3.1690   -2.5770    5.0940 c3        1 LK7      0.220300
     18 O4          2.2220   -3.3270    5.8760 os        1 LK7     -0.449600
     19 C14         1.8900   -2.6910    7.1000 c3        1 LK7      0.106700
     20 H11        -0.5080   -0.9360    0.6130 hc        1 LK7      0.044367
     21 H12        -0.5980    0.1500   -0.8360 hc        1 LK7      0.044367
     22 H13A       -0.7500    0.8460    0.8320 hc        1 LK7      0.044367
     23 H2          1.7270    0.4980   -0.6910 ha        1 LK7      0.132000
     24 H4          4.0160    0.3110    2.2510 h4        1 LK7      0.041200
     25 H5          0.2980    0.0150    2.6860 h1        1 LK7      0.051700
     26 HN1         2.3680    1.5510    3.5580 hn        1 LK7      0.397800
     27 H9          0.7010   -2.0640    3.5010 hc        1 LK7      0.052700
     28 H101        3.2670   -2.0460    1.7740 hc        1 LK7      0.027700
     29 H102        1.6620   -2.7760    1.3690 hc        1 LK7      0.027700
     30 H111        1.8610   -4.3330    3.3190 hc        1 LK7      0.030200
     31 H112        3.2570   -4.5100    2.1760 hc        1 LK7      0.030200
     32 H121        3.9740   -4.5230    4.5710 hc        1 LK7      0.037200
     33 H122        4.6850   -3.1200    3.6610 hc        1 LK7      0.037200
     34 H13         3.9930   -2.2160    5.7790 h1        1 LK7      0.076700
     35 H141        0.8040   -2.9010    7.2650 h1        1 LK7      0.037367
     36 H142        2.4980   -3.1610    7.9140 h1        1 LK7      0.037367
     37 H143        2.0840   -1.5860    7.0710 h1        1 LK7      0.037367
@<TRIPOS>BOND
     1    1    2 1   
     2    1   20 1   
     3    1   21 1   
     4    1   22 1   
     5    2    3 2   
     6    2   23 1   
     7    3    4 1   
     8    3    6 1   
     9    4    5 2   
    10    4   24 1   
    11    6    7 1   
    12    6   13 1   
    13    6   25 1   
    14    7    8 1   
    15    7   26 1   
    16    8    9 1   
    17    8   12 2   
    18    9   10 1   
    19    9   11 1   
    20   12   13 1   
    21   12   17 1   
    22   13   14 1   
    23   13   27 1   
    24   14   15 1   
    25   14   28 1   
    26   14   29 1   
    27   15   16 1   
    28   15   30 1   
    29   15   31 1   
    30   16   17 1   
    31   16   32 1   
    32   16   33 1   
    33   17   18 1   
    34   17   34 1   
    35   18   19 1   
    36   19   35 1   
    37   19   36 1   
    38   19   37 1   
@<TRIPOS>SUBSTRUCTURE
     1 LK7         1 TEMP              0 ****  ****    0 ROOT
