@<TRIPOS>MOLECULE
LK7
   37    38     1     0     0
SMALL
bcc


@<TRIPOS>ATOM
      1 C1         -4.0950    0.6260   -1.7680 c3        1 LK7     -0.072900
      2 C2         -3.7720    0.0680   -0.4420 c2        1 LK7     -0.105200
      3 C3         -2.5430   -0.2920   -0.0260 ce        1 LK7     -0.228400
      4 C4         -2.3610   -0.8380    1.3370 c         1 LK7      0.566100
      5 O1         -3.2950   -0.9610    2.1390 o         1 LK7     -0.568100
      6 C5         -1.3210   -0.1660   -0.8910 c3        1 LK7      0.204700
      7 N1         -0.4340   -1.3470   -0.9120 nh        1 LK7     -0.696000
      8 C6          0.7890   -0.9830   -0.2840 ce        1 LK7      0.038800
      9 C7          1.7820   -2.0700    0.1220 c         1 LK7      0.923800
     10 O2          3.0110   -1.8210    0.0060 o         1 LK7     -0.817800
     11 O3          1.2890   -3.1380    0.5780 o         1 LK7     -0.817800
     12 C8          0.8740    0.3610   -0.0730 c2        1 LK7     -0.277400
     13 C9         -0.4010    1.0450   -0.5000 c3        1 LK7     -0.015500
     14 C10        -0.9060    1.9760    0.5810 c3        1 LK7     -0.061400
     15 C11         0.2090    2.9140    1.0060 c3        1 LK7     -0.067400
     16 C12         1.4120    2.1620    1.5390 c3        1 LK7     -0.069400
     17 C13         1.9690    1.1430    0.5400 c3        1 LK7      0.220300
     18 O4          2.7020    1.9050   -0.4370 os        1 LK7     -0.449600
     19 C14         3.5850    1.1070   -1.2100 c3        1 LK7      0.106700
     20 H11        -3.4980    1.5520   -1.9630 hc        1 LK7      0.044367
     21 H12        -3.8590   -0.1140   -2.5750 hc        1 LK7      0.044367
     22 H13A       -5.1800    0.8860   -1.8370 hc        1 LK7      0.044367
     23 H2         -4.6250   -0.0540    0.2500 ha        1 LK7      0.132000
     24 H4         -1.3210   -1.1270    1.6140 h4        1 LK7      0.041200
     25 H5         -1.6590   -0.0200   -1.9590 h1        1 LK7      0.051700
     26 HN1        -0.8290   -2.1840   -0.5330 hn        1 LK7      0.397800
     27 H9         -0.2120    1.6460   -1.4310 hc        1 LK7      0.052700
     28 H101       -1.7790    2.5670    0.2030 hc        1 LK7      0.027700
     29 H102       -1.2550    1.3860    1.4690 hc        1 LK7      0.027700
     30 H111        0.5300    3.5310    0.1250 hc        1 LK7      0.030200
     31 H112       -0.1730    3.6130    1.7940 hc        1 LK7      0.030200
     32 H121        2.2200    2.8930    1.7990 hc        1 LK7      0.037200
     33 H122        1.1270    1.6060    2.4700 hc        1 LK7      0.037200
     34 H13         2.6860    0.4400    1.0580 h1        1 LK7      0.076700
     35 H141        4.6140    1.2090   -0.7800 h1        1 LK7      0.037367
     36 H142        3.2840    0.0270   -1.2190 h1        1 LK7      0.037367
     37 H143        3.5580    1.5390   -2.2410 h1        1 LK7      0.037367
@<TRIPOS>BOND
     1    1    2 1   
     2    1   20 1   
     3    1   21 1   
     4    1   22 1   
     5    2    3 2   
     6    2   23 1   
     7    3    4 1   
     8    3    6 1   
     9    4    5 2   
    10    4   24 1   
    11    6    7 1   
    12    6   13 1   
    13    6   25 1   
    14    7    8 1   
    15    7   26 1   
    16    8    9 1   
    17    8   12 2   
    18    9   10 1   
    19    9   11 1   
    20   12   13 1   
    21   12   17 1   
    22   13   14 1   
    23   13   27 1   
    24   14   15 1   
    25   14   28 1   
    26   14   29 1   
    27   15   16 1   
    28   15   30 1   
    29   15   31 1   
    30   16   17 1   
    31   16   32 1   
    32   16   33 1   
    33   17   18 1   
    34   17   34 1   
    35   18   19 1   
    36   19   35 1   
    37   19   36 1   
    38   19   37 1   
@<TRIPOS>SUBSTRUCTURE
     1 LK7         1 TEMP              0 ****  ****    0 ROOT
