@<TRIPOS>MOLECULE
LKA
   25    25     1     0     0
SMALL
bcc


@<TRIPOS>ATOM
      1 C5          1.0540    0.3450    0.5680 c3        1 LKA     -0.020600
      2 S0          0.2050    1.7380   -0.1440 ss        1 LKA     -0.310200
      3 C1         -1.5160    1.3910    0.2560 c3        1 LKA      0.227600
      4 N1         -1.7820    1.5560    1.6610 n3        1 LKA     -0.918800
      5 C2         -1.9010   -0.0150   -0.2470 c3        1 LKA      0.117100
      6 O2         -1.8850   -0.0780   -1.6590 oh        1 LKA     -0.599800
      7 C3         -1.0090   -1.1120    0.3540 c3        1 LKA      0.075100
      8 O3         -1.4340   -2.3890   -0.0930 oh        1 LKA     -0.599800
      9 C4          0.4820   -0.9470    0.0020 c3        1 LKA      0.117100
     10 O4          1.2350   -2.0190    0.5540 oh        1 LKA     -0.611800
     11 C6          2.5390    0.5330    0.2710 c3        1 LKA      0.156400
     12 O6          3.0130   -0.2610   -0.7920 oh        1 LKA     -0.598800
     13 H5          0.9010    0.3500    1.6790 h1        1 LKA      0.098700
     14 H1         -2.0620    2.1390   -0.3960 h2        1 LKA      0.064700
     15 HN11       -1.5440    2.4810    1.9600 hn        1 LKA      0.368800
     16 HN12       -2.7380    1.3550    1.8780 hn        1 LKA      0.368800
     17 H2         -2.9750   -0.2470    0.0180 h1        1 LKA      0.093700
     18 HO2        -1.0500    0.3110   -1.9620 ho        1 LKA      0.422000
     19 H3         -1.1350   -1.1450    1.4730 h1        1 LKA      0.107700
     20 HO3        -1.5780   -2.3260   -1.0480 ho        1 LKA      0.418000
     21 H4          0.6110   -0.9670   -1.1200 h1        1 LKA      0.058700
     22 HO4         0.7070   -2.8230    0.4460 ho        1 LKA      0.428000
     23 H61         2.7410    1.5920   -0.0570 h1        1 LKA      0.059200
     24 H62         3.1260    0.3160    1.2050 h1        1 LKA      0.059200
     25 HO6         2.9650   -1.1850   -0.5100 ho        1 LKA      0.419000
@<TRIPOS>BOND
     1    1    2 1   
     2    1    9 1   
     3    1   11 1   
     4    1   13 1   
     5    2    3 1   
     6    3    4 1   
     7    3    5 1   
     8    3   14 1   
     9    4   15 1   
    10    4   16 1   
    11    5    6 1   
    12    5    7 1   
    13    5   17 1   
    14    6   18 1   
    15    7    8 1   
    16    7    9 1   
    17    7   19 1   
    18    8   20 1   
    19    9   10 1   
    20    9   21 1   
    21   10   22 1   
    22   11   12 1   
    23   11   23 1   
    24   11   24 1   
    25   12   25 1   
@<TRIPOS>SUBSTRUCTURE
     1 LKA         1 TEMP              0 ****  ****    0 ROOT
