@<TRIPOS>MOLECULE
LKA
   26    26     1     0     0
SMALL
bcc


@<TRIPOS>ATOM
      1 C5         -0.1930    0.0560    0.0140 c3        1 LKA     -0.042600
      2 S0          1.5190   -0.4300    0.0780 ss        1 LKA     -0.161200
      3 C1          2.0640   -0.1780    1.7320 c3        1 LKA      0.137600
      4 N1          1.9870   -1.4760    2.4950 nz        1 LKA     -0.848600
      5 C2          1.4170    0.9670    2.5420 c3        1 LKA      0.146100
      6 O2          2.1040    2.1340    2.1380 oh        1 LKA     -0.578800
      7 C3         -0.1010    1.0730    2.3190 c3        1 LKA      0.101100
      8 O3         -0.4940    2.1790    3.1090 oh        1 LKA     -0.595800
      9 C4         -0.4600    1.3090    0.8400 c3        1 LKA      0.128100
     10 O4         -1.8430    1.6110    0.8440 oh        1 LKA     -0.599800
     11 C6         -0.4800    0.2370   -1.4750 c3        1 LKA      0.146400
     12 O6         -0.7520    1.6070   -1.7140 oh        1 LKA     -0.613800
     13 H5         -0.8360   -0.7770    0.4010 h1        1 LKA      0.092700
     14 H1          3.1690    0.0760    1.6270 hx        1 LKA      0.168700
     15 HN11        2.2180   -2.2510    1.8580 hn        1 LKA      0.457133
     16 HN12        2.6420   -1.4700    3.2840 hn        1 LKA      0.457133
     17 H2          1.5980    0.8170    3.6490 h1        1 LKA      0.069700
     18 HO2         1.5940    2.8940    2.4670 ho        1 LKA      0.463000
     19 H3         -0.6160    0.1450    2.6940 h1        1 LKA      0.043700
     20 HO3        -1.4060    2.4060    2.8660 ho        1 LKA      0.459000
     21 H4          0.1350    2.1770    0.4340 h1        1 LKA      0.102700
     22 HO4        -2.0520    2.0210   -0.0090 ho        1 LKA      0.453000
     23 H61        -1.3760   -0.3790   -1.7640 h1        1 LKA      0.060200
     24 H62         0.4060   -0.0960   -2.0900 h1        1 LKA      0.060200
     25 HO6        -0.8240    1.7200   -2.6710 ho        1 LKA      0.438000
     26 H13         1.0400   -1.6210    2.8600 hn        1 LKA      0.457133
@<TRIPOS>BOND
     1    1    2 1   
     2    1    9 1   
     3    1   11 1   
     4    1   13 1   
     5    2    3 1   
     6    3    4 1   
     7    3    5 1   
     8    3   14 1   
     9    4   15 1   
    10    4   16 1   
    11    4   26 1   
    12    5    6 1   
    13    5    7 1   
    14    5   17 1   
    15    6   18 1   
    16    7    8 1   
    17    7    9 1   
    18    7   19 1   
    19    8   20 1   
    20    9   10 1   
    21    9   21 1   
    22   10   22 1   
    23   11   12 1   
    24   11   23 1   
    25   11   24 1   
    26   12   25 1   
@<TRIPOS>SUBSTRUCTURE
     1 LKA         1 TEMP              0 ****  ****    0 ROOT
