@<TRIPOS>MOLECULE
LKA
   26    26     1     0     0
SMALL
bcc


@<TRIPOS>ATOM
      1 C5         -0.2010    0.0360    0.0280 c3        1 LKA     -0.042600
      2 S0          1.5120   -0.4490    0.0890 ss        1 LKA     -0.161200
      3 C1          2.0690   -0.1660    1.7340 c3        1 LKA      0.137600
      4 N1          1.9970   -1.4500    2.5220 n4        1 LKA     -0.848600
      5 C2          1.4280    0.9940    2.5270 c3        1 LKA      0.146100
      6 O2          2.1120    2.1530    2.0970 oh        1 LKA     -0.578800
      7 C3         -0.0920    1.0960    2.3130 c3        1 LKA      0.101100
      8 O3         -0.4790    2.2160    3.0850 oh        1 LKA     -0.595800
      9 C4         -0.4630    1.3040    0.8320 c3        1 LKA      0.128100
     10 O4         -1.8450    1.6050    0.8410 oh        1 LKA     -0.599800
     11 C6         -0.4980    0.1890   -1.4620 c3        1 LKA      0.146400
     12 O6         -0.7730    1.5540   -1.7240 oh        1 LKA     -0.613800
     13 H5         -0.8400   -0.7900    0.4350 h1        1 LKA      0.092700
     14 H1          3.1730    0.0860    1.6160 hx        1 LKA      0.168700
     15 HN11        2.6570   -1.4290    3.3050 hn        1 LKA      0.456800
     16 HN12        1.0530   -1.5880    2.8950 hn        1 LKA      0.456800
     17 H2          1.6160    0.8640    3.6350 h1        1 LKA      0.069700
     18 HO2         1.6030    2.9190    2.4150 ho        1 LKA      0.463000
     19 H3         -0.6040    0.1740    2.7090 h1        1 LKA      0.043700
     20 HO3        -1.3940    2.4380    2.8450 ho        1 LKA      0.459000
     21 H4          0.1300    2.1650    0.4060 h1        1 LKA      0.102700
     22 HO4        -2.0600    2.0000   -0.0180 ho        1 LKA      0.453000
     23 H61        -1.3960   -0.4320   -1.7330 h1        1 LKA      0.060200
     24 H62         0.3840   -0.1550   -2.0770 h1        1 LKA      0.060200
     25 HO6        -0.8520    1.6500   -2.6820 ho        1 LKA      0.438000
     26 H13         2.2240   -2.2360    1.8970 hn        1 LKA      0.456800
@<TRIPOS>BOND
     1    1    2 1   
     2    1    9 1   
     3    1   11 1   
     4    1   13 1   
     5    2    3 1   
     6    3    4 1   
     7    3    5 1   
     8    3   14 1   
     9    4   15 1   
    10    4   16 1   
    11    4   26 1   
    12    5    6 1   
    13    5    7 1   
    14    5   17 1   
    15    6   18 1   
    16    7    8 1   
    17    7    9 1   
    18    7   19 1   
    19    8   20 1   
    20    9   10 1   
    21    9   21 1   
    22   10   22 1   
    23   11   12 1   
    24   11   23 1   
    25   11   24 1   
    26   12   25 1   
@<TRIPOS>SUBSTRUCTURE
     1 LKA         1 TEMP              0 ****  ****    0 ROOT
