@<TRIPOS>MOLECULE
LKA
   26    26     1     0     0
SMALL
bcc


@<TRIPOS>ATOM
      1 C5         -0.2400   -0.0020    0.0290 c3        1 LKA     -0.088600
      2 S0          1.4830   -0.4300    0.0400 ss        1 LKA     -0.169200
      3 C1          2.0690   -0.1240    1.6740 c3        1 LKA      0.141600
      4 N1          2.0480   -1.4070    2.4640 n4        1 LKA     -0.847600
      5 C2          1.4130    1.0210    2.4760 c3        1 LKA      0.144100
      6 O2          2.0490    2.1970    2.0180 oh        1 LKA     -0.581800
      7 C3         -0.1150    1.0830    2.3000 c3        1 LKA      0.104100
      8 O3         -0.5100    2.2020    3.0700 oh        1 LKA     -0.595800
      9 C4         -0.5160    1.2670    0.8260 c3        1 LKA      0.125100
     10 O4         -1.9020    1.5470    0.8460 oh        1 LKA     -0.595800
     11 C6         -0.6230    0.1410   -1.4460 c3        1 LKA      0.141400
     12 O6         -0.7850    1.4890   -1.8200 oh        1 LKA     -0.588800
     13 H5         -0.8390   -0.8440    0.4650 h1        1 LKA      0.095700
     14 H1          3.1630    0.1580    1.5300 hx        1 LKA      0.168700
     15 HN11        2.7220   -1.3660    3.2350 hn        1 LKA      0.458133
     16 HN12        1.1150   -1.5710    2.8560 hn        1 LKA      0.458133
     17 H2          1.6330    0.9040    3.5800 h1        1 LKA      0.070700
     18 HO2         1.5540    2.9490    2.3860 ho        1 LKA      0.463000
     19 H3         -0.5960    0.1530    2.7160 h1        1 LKA      0.046700
     20 HO3        -1.4360    2.3970    2.8530 ho        1 LKA      0.460000
     21 H4          0.0540    2.1360    0.3870 h1        1 LKA      0.087700
     22 HO4        -2.1390    1.8800   -0.0350 ho        1 LKA      0.454000
     23 H61        -1.6390   -0.3210   -1.6080 h1        1 LKA      0.082700
     24 H62         0.1310   -0.3820   -2.0980 h1        1 LKA      0.082700
     25 HO6         0.0810    1.8470   -2.0560 ho        1 LKA      0.422000
     26 H13         2.2850   -2.1880    1.8370 hn        1 LKA      0.458133
@<TRIPOS>BOND
     1    1    2 1   
     2    1    9 1   
     3    1   11 1   
     4    1   13 1   
     5    2    3 1   
     6    3    4 1   
     7    3    5 1   
     8    3   14 1   
     9    4   15 1   
    10    4   16 1   
    11    4   26 1   
    12    5    6 1   
    13    5    7 1   
    14    5   17 1   
    15    6   18 1   
    16    7    8 1   
    17    7    9 1   
    18    7   19 1   
    19    8   20 1   
    20    9   10 1   
    21    9   21 1   
    22   10   22 1   
    23   11   12 1   
    24   11   23 1   
    25   11   24 1   
    26   12   25 1   
@<TRIPOS>SUBSTRUCTURE
     1 LKA         1 TEMP              0 ****  ****    0 ROOT
