@<TRIPOS>MOLECULE
LKC
   34    36     1     0     0
SMALL
bcc


@<TRIPOS>ATOM
      1 N1         -0.3550   -0.2870    0.9270 n         1 LKC     -0.397000
      2 C2         -1.3450   -0.4590    1.9750 c         1 LKC      0.840900
      3 N3         -0.9780   -0.2940    3.3110 nc        1 LKC     -0.726100
      4 C4          0.2940    0.0250    3.6150 cd        1 LKC      0.765500
      5 C5          1.3290    0.1730    2.5820 cd        1 LKC     -0.368800
      6 C6          0.9410   -0.0030    1.2740 cc        1 LKC      0.067600
      7 O2         -2.5050   -0.7440    1.6170 o         1 LKC     -0.615500
      8 N4          0.6300    0.2490    4.9300 nh        1 LKC     -0.919800
      9 C1'        -0.7530   -0.5240   -0.4460 c3        1 LKC      0.272500
     10 C2'        -1.3290    0.7380   -1.1920 c3        1 LKC      0.068100
     11 C3'         0.0010    1.3790   -1.7040 c3        1 LKC      0.096100
     12 C4'         0.4350    0.0250   -2.3830 c3        1 LKC      0.026800
     13 O4'         0.3950   -0.9050   -1.2670 os        1 LKC     -0.432600
     14 O3'        -0.1500    2.4580   -2.5750 oh        1 LKC     -0.564800
     15 C5'         1.7760   -0.0530   -3.0650 c3        1 LKC      0.164400
     16 O5'         2.0040   -1.3140   -3.6530 oh        1 LKC     -0.589800
     17 C5A         2.7260    0.4920    2.9270 c3        1 LKC     -0.032900
     18 O2'        -1.9220    0.2330   -2.4040 os        1 LKC     -0.408600
     19 C6'        -0.8350   -0.2880   -3.2160 c3        1 LKC      0.092400
     20 H6          1.6730    0.0710    0.4440 h4        1 LKC      0.164000
     21 H41        -0.0300    0.0700    5.6490 hn        1 LKC      0.440800
     22 H42         1.5870    0.3080    5.1690 hn        1 LKC      0.440800
     23 H1'        -1.4850   -1.3820   -0.4760 h2        1 LKC      0.128700
     24 H2'1       -2.0780    1.3490   -0.6570 h1        1 LKC      0.139700
     25 H3'         0.7000    1.7150   -0.9010 h1        1 LKC      0.105700
     26 H3T        -0.9140    2.2770   -3.1440 ho        1 LKC      0.421000
     27 H5'1        1.8090    0.6820   -3.9150 h1        1 LKC      0.063700
     28 H5'2        2.5840    0.1830   -2.3210 h1        1 LKC      0.063700
     29 H5T         1.9330   -1.9760   -2.9520 ho        1 LKC      0.415000
     30 H5M1        3.1640   -0.3010    3.5840 hc        1 LKC      0.042033
     31 H5M2        3.3600    0.5630    2.0080 hc        1 LKC      0.042033
     32 H5M3        2.7880    1.4720    3.4650 hc        1 LKC      0.042033
     33 H6'1       -0.8540    0.2490   -4.1930 h1        1 LKC      0.076200
     34 H6'2       -0.9970   -1.3840   -3.3460 h1        1 LKC      0.076200
@<TRIPOS>BOND
     1    1    2 1   
     2    1    6 1   
     3    1    9 1   
     4    2    3 1   
     5    2    7 2   
     6    3    4 2   
     7    4    5 1   
     8    4    8 1   
     9    5    6 2   
    10    5   17 1   
    11    6   20 1   
    12    8   21 1   
    13    8   22 1   
    14    9   10 1   
    15    9   13 1   
    16    9   23 1   
    17   10   11 1   
    18   10   18 1   
    19   10   24 1   
    20   11   12 1   
    21   11   14 1   
    22   11   25 1   
    23   12   13 1   
    24   12   15 1   
    25   12   19 1   
    26   14   26 1   
    27   15   16 1   
    28   15   27 1   
    29   15   28 1   
    30   16   29 1   
    31   17   30 1   
    32   17   31 1   
    33   17   32 1   
    34   18   19 1   
    35   19   33 1   
    36   19   34 1   
@<TRIPOS>SUBSTRUCTURE
     1 LKC         1 TEMP              0 ****  ****    0 ROOT
