@<TRIPOS>MOLECULE
LKF
   50    53     1     0     0
SMALL
bcc


@<TRIPOS>ATOM
      1 CAL         0.5960   -0.2720   -0.3220 c3        1 LKF      0.143800
      2 CAO         1.9010   -0.9380    0.1350 c3        1 LKF      0.093900
      3 OAK         2.2010   -0.6440    1.4950 os        1 LKF     -0.415600
      4 CAN         1.1370   -0.9930    2.3760 c3        1 LKF      0.093900
      5 CAM        -0.1740   -0.3190    1.9580 c3        1 LKF      0.143800
      6 NAH        -0.5420   -0.5130    0.5600 nh        1 LKF     -0.698300
      7 CAC        -1.3190   -1.6640    0.2480 cc        1 LKF      0.666200
      8 NAF        -1.4460   -2.7090    1.0770 nd        1 LKF     -0.717000
      9 CAJ        -2.3200   -3.7130    0.7460 cd        1 LKF      0.368200
     10 CAI        -3.0760   -3.7540   -0.4110 cc        1 LKF     -0.204600
     11 NAB        -2.9510   -2.7120   -1.3070 na        1 LKF      0.039700
     12 CAA        -2.0750   -1.6170   -1.0150 cc        1 LKF     -0.153600
     13 NAD        -2.1300   -0.6790   -2.0020 nd        1 LKF     -0.252600
     14 CAG        -3.0390   -1.1580   -2.9340 cd        1 LKF      0.061400
     15 CAP        -3.3980   -0.4410   -4.1710 c3        1 LKF     -0.022900
     16 CAE        -3.5690   -2.4230   -2.5260 cc        1 LKF     -0.062300
     17 CAQ        -4.5110   -3.2670   -3.1830 cc        1 LKF     -0.199100
     18 CAS        -5.6310   -2.8760   -3.9390 cd        1 LKF     -0.129300
     19 CAT        -4.5280   -4.7190   -3.2380 cc        1 LKF      0.295200
     20 NAU        -5.5800   -5.1480   -3.9750 nd        1 LKF     -0.483800
     21 NAR        -6.2480   -4.0530   -4.3790 na        1 LKF      0.094400
     22 CAV        -7.3930   -4.0760   -5.2690 c3        1 LKF      0.049300
     23 CAW        -7.0620   -3.7290   -6.7360 c3        1 LKF      0.118100
     24 CAZ        -8.3370   -3.3440   -7.4640 c3        1 LKF     -0.124100
     25 OAX        -6.5090   -4.9180   -7.3020 os        1 LKF     -0.410600
     26 CAY        -5.6490   -4.6790   -8.4020 c3        1 LKF      0.116700
     27 HAL1        0.7400    0.8460   -0.3330 h1        1 LKF      0.075450
     28 HAL2        0.3680   -0.6090   -1.3680 h1        1 LKF      0.075450
     29 HAO1        2.7690   -0.5170   -0.4380 h1        1 LKF      0.057950
     30 HAO2        1.8520   -2.0500   -0.0050 h1        1 LKF      0.057950
     31 HAN1        1.4700   -0.6100    3.3760 h1        1 LKF      0.057950
     32 HAN2        1.0250   -2.1090    2.4080 h1        1 LKF      0.057950
     33 HAM1       -0.0600    0.7970    2.0800 h1        1 LKF      0.075450
     34 HAM2       -1.0010   -0.6630    2.6350 h1        1 LKF      0.075450
     35 HAJ        -2.3840   -4.5290    1.4870 h4        1 LKF      0.037100
     36 HAI        -3.7830   -4.5590   -0.6640 h4        1 LKF      0.178000
     37 HAP1       -2.4980    0.0340   -4.6360 hc        1 LKF      0.050367
     38 HAP2       -4.1420    0.3640   -3.9450 hc        1 LKF      0.050367
     39 HAP3       -3.8510   -1.1540   -4.9040 hc        1 LKF      0.050367
     40 HAS        -6.0240   -1.8860   -4.1670 h4        1 LKF      0.181000
     41 HAT        -3.8170   -5.4120   -2.7880 h4        1 LKF      0.045100
     42 HAV1       -7.8600   -5.1020   -5.2450 h1        1 LKF      0.082700
     43 HAV2       -8.1320   -3.3190   -4.8830 h1        1 LKF      0.082700
     44 HAW        -6.3170   -2.8860   -6.7910 h1        1 LKF      0.048700
     45 HAZ1       -8.1200   -3.1730   -8.5460 hc        1 LKF      0.048033
     46 HAZ2       -9.0930   -4.1620   -7.3830 hc        1 LKF      0.048033
     47 HAZ3       -8.7620   -2.4090   -7.0300 hc        1 LKF      0.048033
     48 HAY1       -5.3140   -5.7000   -8.7140 h1        1 LKF      0.036033
     49 HAY2       -6.2000   -4.1750   -9.2350 h1        1 LKF      0.036033
     50 HAY3       -4.7730   -4.0570   -8.0930 h1        1 LKF      0.036033
@<TRIPOS>BOND
     1    1    2 1   
     2    1    6 1   
     3    1   27 1   
     4    1   28 1   
     5    2    3 1   
     6    2   29 1   
     7    2   30 1   
     8    3    4 1   
     9    4    5 1   
    10    4   31 1   
    11    4   32 1   
    12    5    6 1   
    13    5   33 1   
    14    5   34 1   
    15    6    7 1   
    16    7    8 2   
    17    7   12 1   
    18    8    9 1   
    19    9   10 2   
    20    9   35 1   
    21   10   11 1   
    22   10   36 1   
    23   11   12 1   
    24   11   16 1   
    25   12   13 2   
    26   13   14 1   
    27   14   15 1   
    28   14   16 2   
    29   15   37 1   
    30   15   38 1   
    31   15   39 1   
    32   16   17 1   
    33   17   18 2   
    34   17   19 1   
    35   18   21 1   
    36   18   40 1   
    37   19   20 2   
    38   19   41 1   
    39   20   21 1   
    40   21   22 1   
    41   22   23 1   
    42   22   42 1   
    43   22   43 1   
    44   23   24 1   
    45   23   25 1   
    46   23   44 1   
    47   24   45 1   
    48   24   46 1   
    49   24   47 1   
    50   25   26 1   
    51   26   48 1   
    52   26   49 1   
    53   26   50 1   
@<TRIPOS>SUBSTRUCTURE
     1 LKF         1 TEMP              0 ****  ****    0 ROOT
