@<TRIPOS>MOLECULE
LKF
   50    53     1     0     0
SMALL
bcc


@<TRIPOS>ATOM
      1 CAL        -4.6990   -0.7500    0.7860 c3        1 LKF      0.143800
      2 CAO        -5.8580   -1.0840   -0.1630 c3        1 LKF      0.093900
      3 OAK        -6.8080   -0.0270   -0.2340 os        1 LKF     -0.415600
      4 CAN        -6.2160    1.2170   -0.5990 c3        1 LKF      0.093900
      5 CAM        -5.0720    1.5870    0.3510 c3        1 LKF      0.143800
      6 NAH        -4.0710    0.5430    0.5360 nh        1 LKF     -0.698300
      7 CAC        -2.9800    0.5220   -0.3790 cc        1 LKF      0.666200
      8 NAF        -2.9920    1.1750   -1.5480 nd        1 LKF     -0.719000
      9 CAJ        -1.8450    1.2030   -2.3010 cd        1 LKF      0.367200
     10 CAI        -0.6610    0.5750   -1.9620 cc        1 LKF     -0.205600
     11 NAB        -0.6150   -0.1350   -0.7800 na        1 LKF      0.038700
     12 CAA        -1.7680   -0.1860    0.0690 cc        1 LKF     -0.154600
     13 NAD        -1.5020   -0.8990    1.2000 nd        1 LKF     -0.252600
     14 CAG        -0.1820   -1.3100    1.0910 cd        1 LKF      0.061400
     15 CAP         0.5140   -2.1130    2.1130 c3        1 LKF     -0.023900
     16 CAE         0.3980   -0.8470   -0.1330 cc        1 LKF     -0.059300
     17 CAQ         1.7110   -1.0480   -0.6480 cc        1 LKF     -0.213100
     18 CAS         2.9140   -1.1220    0.0800 cd        1 LKF     -0.099300
     19 CAT         2.1110   -1.2500   -2.0300 cc        1 LKF      0.303200
     20 NAU         3.4510   -1.4270   -2.1090 nd        1 LKF     -0.511800
     21 NAR         3.9280   -1.3680   -0.8520 na        1 LKF      0.087400
     22 CAV         5.3320   -1.4710   -0.5100 c3        1 LKF      0.052300
     23 CAW         5.9900   -0.1260   -0.1360 c3        1 LKF      0.117100
     24 CAZ         7.4960   -0.3010   -0.0820 c3        1 LKF     -0.123100
     25 OAX         5.4750    0.2090    1.1560 os        1 LKF     -0.430600
     26 CAY         5.5720    1.5880    1.4680 c3        1 LKF      0.116700
     27 HAL1       -5.0930   -0.6980    1.8410 h1        1 LKF      0.075450
     28 HAL2       -3.9430   -1.5790    0.7330 h1        1 LKF      0.075450
     29 HAO1       -5.4770   -1.3130   -1.1940 h1        1 LKF      0.057950
     30 HAO2       -6.4420   -1.9560    0.2330 h1        1 LKF      0.057950
     31 HAN1       -5.8590    1.1660   -1.6610 h1        1 LKF      0.057950
     32 HAN2       -7.0530    1.9580   -0.5080 h1        1 LKF      0.057950
     33 HAM1       -4.5900    2.5380   -0.0010 h1        1 LKF      0.075450
     34 HAM2       -5.5010    1.7680    1.3780 h1        1 LKF      0.075450
     35 HAJ        -1.9280    1.7760   -3.2410 h4        1 LKF      0.036100
     36 HAI         0.2570    0.6110   -2.5680 h4        1 LKF      0.177000
     37 HAP1       -0.1660   -2.8870    2.5490 hc        1 LKF      0.052033
     38 HAP2        1.3990   -2.6220    1.6580 hc        1 LKF      0.052033
     39 HAP3        0.8680   -1.4500    2.9430 hc        1 LKF      0.052033
     40 HAS         3.1240   -1.0080    1.1440 h4        1 LKF      0.195000
     41 HAT         1.4700   -1.2880   -2.9100 h4        1 LKF      0.044100
     42 HAV1        5.4140   -2.1640    0.3750 h1        1 LKF      0.081200
     43 HAV2        5.8980   -1.9090   -1.3800 h1        1 LKF      0.081200
     44 HAW         5.7190    0.6750   -0.8800 h1        1 LKF      0.059700
     45 HAZ1        7.7700   -1.1000    0.6480 hc        1 LKF      0.049033
     46 HAZ2        7.8870   -0.5780   -1.0900 hc        1 LKF      0.049033
     47 HAZ3        7.9800    0.6510    0.2430 hc        1 LKF      0.049033
     48 HAY1        6.6410    1.9170    1.4850 h1        1 LKF      0.037700
     49 HAY2        4.9950    2.2020    0.7320 h1        1 LKF      0.037700
     50 HAY3        5.1210    1.6720    2.4880 h1        1 LKF      0.037700
@<TRIPOS>BOND
     1    1    2 1   
     2    1    6 1   
     3    1   27 1   
     4    1   28 1   
     5    2    3 1   
     6    2   29 1   
     7    2   30 1   
     8    3    4 1   
     9    4    5 1   
    10    4   31 1   
    11    4   32 1   
    12    5    6 1   
    13    5   33 1   
    14    5   34 1   
    15    6    7 1   
    16    7    8 2   
    17    7   12 1   
    18    8    9 1   
    19    9   10 2   
    20    9   35 1   
    21   10   11 1   
    22   10   36 1   
    23   11   12 1   
    24   11   16 1   
    25   12   13 2   
    26   13   14 1   
    27   14   15 1   
    28   14   16 2   
    29   15   37 1   
    30   15   38 1   
    31   15   39 1   
    32   16   17 1   
    33   17   18 2   
    34   17   19 1   
    35   18   21 1   
    36   18   40 1   
    37   19   20 2   
    38   19   41 1   
    39   20   21 1   
    40   21   22 1   
    41   22   23 1   
    42   22   42 1   
    43   22   43 1   
    44   23   24 1   
    45   23   25 1   
    46   23   44 1   
    47   24   45 1   
    48   24   46 1   
    49   24   47 1   
    50   25   26 1   
    51   26   48 1   
    52   26   49 1   
    53   26   50 1   
@<TRIPOS>SUBSTRUCTURE
     1 LKF         1 TEMP              0 ****  ****    0 ROOT
