@<TRIPOS>MOLECULE
LKF
   50    53     1     0     0
SMALL
bcc


@<TRIPOS>ATOM
      1 CAL         0.6010   -0.2770   -0.3230 c3        1 LKF      0.143800
      2 CAO         1.9110   -0.9420    0.1230 c3        1 LKF      0.093900
      3 OAK         2.2150   -0.6580    1.4840 os        1 LKF     -0.415600
      4 CAN         1.1550   -1.0170    2.3670 c3        1 LKF      0.093900
      5 CAM        -0.1590   -0.3440    1.9590 c3        1 LKF      0.143800
      6 NAH        -0.5320   -0.5280    0.5620 nh        1 LKF     -0.698300
      7 CAC        -1.3060   -1.6800    0.2440 cc        1 LKF      0.665200
      8 NAF        -1.4270   -2.7310    1.0660 nd        1 LKF     -0.717000
      9 CAJ        -2.2990   -3.7360    0.7310 cd        1 LKF      0.368200
     10 CAI        -3.0600   -3.7700   -0.4240 cc        1 LKF     -0.204600
     11 NAB        -2.9430   -2.7210   -1.3120 na        1 LKF      0.039700
     12 CAA        -2.0690   -1.6250   -1.0150 cc        1 LKF     -0.153600
     13 NAD        -2.1310   -0.6800   -1.9950 nd        1 LKF     -0.252600
     14 CAG        -3.0420   -1.1550   -2.9260 cd        1 LKF      0.061400
     15 CAP        -3.4090   -0.4300   -4.1560 c3        1 LKF     -0.022900
     16 CAE        -3.5670   -2.4250   -2.5260 cc        1 LKF     -0.062300
     17 CAQ        -4.5090   -3.2670   -3.1850 cc        1 LKF     -0.199100
     18 CAS        -5.6350   -2.8740   -3.9320 cd        1 LKF     -0.129300
     19 CAT        -4.5210   -4.7180   -3.2520 cc        1 LKF      0.295200
     20 NAU        -5.5750   -5.1450   -3.9860 nd        1 LKF     -0.483800
     21 NAR        -6.2500   -4.0500   -4.3780 na        1 LKF      0.094400
     22 CAV        -7.3990   -4.0700   -5.2610 c3        1 LKF      0.049300
     23 CAW        -7.0780   -3.7120   -6.7280 c3        1 LKF      0.118100
     24 CAZ        -8.3580   -3.3250   -7.4460 c3        1 LKF     -0.124100
     25 OAX        -6.5250   -4.8960   -7.3040 os        1 LKF     -0.410600
     26 CAY        -5.6730   -4.6470   -8.4090 c3        1 LKF      0.116700
     27 HAL1        0.3700   -0.6070   -1.3710 h1        1 LKF      0.075450
     28 HAL2        0.7420    0.8420   -0.3270 h1        1 LKF      0.075450
     29 HAO1        2.7750   -0.5140   -0.4500 h1        1 LKF      0.057950
     30 HAO2        1.8640   -2.0530   -0.0250 h1        1 LKF      0.057950
     31 HAN1        1.0480   -2.1330    2.3910 h1        1 LKF      0.057950
     32 HAN2        1.4920   -0.6400    3.3680 h1        1 LKF      0.057950
     33 HAM1       -0.0480    0.7720    2.0900 h1        1 LKF      0.075450
     34 HAM2       -0.9830   -0.6960    2.6370 h1        1 LKF      0.075450
     35 HAJ        -2.3560   -4.5580    1.4660 h4        1 LKF      0.037100
     36 HAI        -3.7650   -4.5760   -0.6790 h4        1 LKF      0.178000
     37 HAP1       -4.1520    0.3740   -3.9200 hc        1 LKF      0.050367
     38 HAP2       -3.8670   -1.1370   -4.8910 hc        1 LKF      0.050367
     39 HAP3       -2.5130    0.0490   -4.6230 hc        1 LKF      0.050367
     40 HAS        -6.0330   -1.8830   -4.1490 h4        1 LKF      0.181000
     41 HAT        -3.8040   -5.4120   -2.8110 h4        1 LKF      0.045100
     42 HAV1       -7.8640   -5.0980   -5.2410 h1        1 LKF      0.082700
     43 HAV2       -8.1380   -3.3180   -4.8650 h1        1 LKF      0.082700
     44 HAW        -6.3360   -2.8670   -6.7810 h1        1 LKF      0.048700
     45 HAZ1       -8.7830   -2.3940   -7.0020 hc        1 LKF      0.048033
     46 HAZ2       -8.1480   -3.1470   -8.5270 hc        1 LKF      0.048033
     47 HAZ3       -9.1110   -4.1450   -7.3660 hc        1 LKF      0.048033
     48 HAY1       -6.2290   -4.1390   -9.2340 h1        1 LKF      0.036033
     49 HAY2       -5.3370   -5.6650   -8.7300 h1        1 LKF      0.036033
     50 HAY3       -4.7960   -4.0250   -8.1000 h1        1 LKF      0.036033
@<TRIPOS>BOND
     1    1    2 1   
     2    1    6 1   
     3    1   27 1   
     4    1   28 1   
     5    2    3 1   
     6    2   29 1   
     7    2   30 1   
     8    3    4 1   
     9    4    5 1   
    10    4   31 1   
    11    4   32 1   
    12    5    6 1   
    13    5   33 1   
    14    5   34 1   
    15    6    7 1   
    16    7    8 2   
    17    7   12 1   
    18    8    9 1   
    19    9   10 2   
    20    9   35 1   
    21   10   11 1   
    22   10   36 1   
    23   11   12 1   
    24   11   16 1   
    25   12   13 2   
    26   13   14 1   
    27   14   15 1   
    28   14   16 2   
    29   15   37 1   
    30   15   38 1   
    31   15   39 1   
    32   16   17 1   
    33   17   18 2   
    34   17   19 1   
    35   18   21 1   
    36   18   40 1   
    37   19   20 2   
    38   19   41 1   
    39   20   21 1   
    40   21   22 1   
    41   22   23 1   
    42   22   42 1   
    43   22   43 1   
    44   23   24 1   
    45   23   25 1   
    46   23   44 1   
    47   24   45 1   
    48   24   46 1   
    49   24   47 1   
    50   25   26 1   
    51   26   48 1   
    52   26   49 1   
    53   26   50 1   
@<TRIPOS>SUBSTRUCTURE
     1 LKF         1 TEMP              0 ****  ****    0 ROOT
