@<TRIPOS>MOLECULE
LKF
   50    53     1     0     0
SMALL
bcc


@<TRIPOS>ATOM
      1 CAL         0.5860   -0.2580   -0.3180 c3        1 LKF      0.143800
      2 CAO         1.9020   -0.9140    0.1220 c3        1 LKF      0.093900
      3 OAK         2.2060   -0.6340    1.4840 os        1 LKF     -0.415600
      4 CAN         1.1510   -1.0060    2.3670 c3        1 LKF      0.093900
      5 CAM        -0.1700   -0.3420    1.9650 c3        1 LKF      0.143800
      6 NAH        -0.5430   -0.5230    0.5670 nh        1 LKF     -0.698300
      7 CAC        -1.3090   -1.6790    0.2460 cc        1 LKF      0.666200
      8 NAF        -1.4200   -2.7350    1.0630 nd        1 LKF     -0.717000
      9 CAJ        -2.2850   -3.7450    0.7240 cd        1 LKF      0.368200
     10 CAI        -3.0470   -3.7800   -0.4290 cc        1 LKF     -0.204600
     11 NAB        -2.9390   -2.7260   -1.3130 na        1 LKF      0.039700
     12 CAA        -2.0740   -1.6240   -1.0120 cc        1 LKF     -0.153600
     13 NAD        -2.1450   -0.6760   -1.9880 nd        1 LKF     -0.252600
     14 CAG        -3.0540   -1.1530   -2.9200 cd        1 LKF      0.061400
     15 CAP        -3.4280   -0.4250   -4.1460 c3        1 LKF     -0.022900
     16 CAE        -3.5680   -2.4290   -2.5250 cc        1 LKF     -0.062300
     17 CAQ        -4.5030   -3.2760   -3.1860 cc        1 LKF     -0.199100
     18 CAS        -5.6330   -2.8870   -3.9310 cd        1 LKF     -0.129300
     19 CAT        -4.5050   -4.7260   -3.2590 cc        1 LKF      0.295200
     20 NAU        -5.5570   -5.1580   -3.9950 nd        1 LKF     -0.483800
     21 NAR        -6.2400   -4.0670   -4.3810 na        1 LKF      0.094400
     22 CAV        -7.3890   -4.0910   -5.2640 c3        1 LKF      0.049300
     23 CAW        -7.0720   -3.7220   -6.7290 c3        1 LKF      0.118100
     24 CAZ        -8.3560   -3.3420   -7.4440 c3        1 LKF     -0.124100
     25 OAX        -6.5100   -4.8970   -7.3130 os        1 LKF     -0.410600
     26 CAY        -5.6600   -4.6340   -8.4160 c3        1 LKF      0.116700
     27 HAL1        0.3560   -0.5850   -1.3670 h1        1 LKF      0.075450
     28 HAL2        0.7180    0.8620   -0.3170 h1        1 LKF      0.075450
     29 HAO1        1.8640   -2.0250   -0.0310 h1        1 LKF      0.057950
     30 HAO2        2.7610   -0.4770   -0.4500 h1        1 LKF      0.057950
     31 HAN1        1.0530   -2.1230    2.3860 h1        1 LKF      0.057950
     32 HAN2        1.4870   -0.6320    3.3700 h1        1 LKF      0.057950
     33 HAM1       -0.0670    0.7740    2.1000 h1        1 LKF      0.075450
     34 HAM2       -0.9890   -0.7030    2.6430 h1        1 LKF      0.075450
     35 HAJ        -2.3350   -4.5700    1.4560 h4        1 LKF      0.037100
     36 HAI        -3.7470   -4.5900   -0.6870 h4        1 LKF      0.178000
     37 HAP1       -3.8790   -1.1340   -4.8850 hc        1 LKF      0.050367
     38 HAP2       -4.1790    0.3690   -3.9060 hc        1 LKF      0.050367
     39 HAP3       -2.5360    0.0640   -4.6110 hc        1 LKF      0.050367
     40 HAS        -6.0380   -1.8990   -4.1440 h4        1 LKF      0.181000
     41 HAT        -3.7830   -5.4170   -2.8220 h4        1 LKF      0.045100
     42 HAV1       -8.1340   -3.3480   -4.8630 h1        1 LKF      0.082700
     43 HAV2       -7.8450   -5.1230   -5.2500 h1        1 LKF      0.082700
     44 HAW        -6.3380   -2.8700   -6.7780 h1        1 LKF      0.048700
     45 HAZ1       -8.1480   -3.1550   -8.5240 hc        1 LKF      0.048033
     46 HAZ2       -9.1020   -4.1690   -7.3690 hc        1 LKF      0.048033
     47 HAZ3       -8.7890   -2.4170   -6.9940 hc        1 LKF      0.048033
     48 HAY1       -5.3150   -5.6470   -8.7430 h1        1 LKF      0.036033
     49 HAY2       -6.2220   -4.1260   -9.2380 h1        1 LKF      0.036033
     50 HAY3       -4.7890   -4.0060   -8.1040 h1        1 LKF      0.036033
@<TRIPOS>BOND
     1    1    2 1   
     2    1    6 1   
     3    1   27 1   
     4    1   28 1   
     5    2    3 1   
     6    2   29 1   
     7    2   30 1   
     8    3    4 1   
     9    4    5 1   
    10    4   31 1   
    11    4   32 1   
    12    5    6 1   
    13    5   33 1   
    14    5   34 1   
    15    6    7 1   
    16    7    8 2   
    17    7   12 1   
    18    8    9 1   
    19    9   10 2   
    20    9   35 1   
    21   10   11 1   
    22   10   36 1   
    23   11   12 1   
    24   11   16 1   
    25   12   13 2   
    26   13   14 1   
    27   14   15 1   
    28   14   16 2   
    29   15   37 1   
    30   15   38 1   
    31   15   39 1   
    32   16   17 1   
    33   17   18 2   
    34   17   19 1   
    35   18   21 1   
    36   18   40 1   
    37   19   20 2   
    38   19   41 1   
    39   20   21 1   
    40   21   22 1   
    41   22   23 1   
    42   22   42 1   
    43   22   43 1   
    44   23   24 1   
    45   23   25 1   
    46   23   44 1   
    47   24   45 1   
    48   24   46 1   
    49   24   47 1   
    50   25   26 1   
    51   26   48 1   
    52   26   49 1   
    53   26   50 1   
@<TRIPOS>SUBSTRUCTURE
     1 LKF         1 TEMP              0 ****  ****    0 ROOT
