@<TRIPOS>MOLECULE
LKG
   37    37     1     0     0
SMALL
bcc


@<TRIPOS>ATOM
      1 N1         -0.2330    0.4470   -0.3370 na        1 LKG     -0.093000
      2 N3          1.4750    0.8220   -1.7940 n2        1 LKG      0.061000
      3 C4         -0.8210   -0.0270    3.2230 c2        1 LKG     -0.056000
      4 C5         -1.8110    0.9630    3.6150 c2        1 LKG     -0.102000
      5 C6         -2.1200    1.3290    4.8710 c2        1 LKG     -0.059000
      6 C7         -0.1570    0.2120    1.9190 c2        1 LKG     -0.019000
      7 C8          1.3330    0.4320    1.9740 c3        1 LKG     -0.230000
      8 C10         1.2120    0.6410   -0.4500 c2        1 LKG     -0.222000
      9 C13        -2.9750    1.4050   -1.4390 c1        1 LKG     -0.178000
     10 C15         0.2620    0.8890   -6.2780 c1        1 LKG     -0.224000
     11 C17        -4.5320    3.1950   -0.3860 c2        1 LKG     -0.123000
     12 C14        -0.1250    0.8150   -7.4070 c1        1 LKG     -0.224000
     13 C16        -4.4470    3.7080    0.8580 c2        1 LKG     -0.007000
     14 O1         -3.4810    3.2770    1.7360 oh        1 LKG     -0.253000
     15 C18        -3.6850    2.2290   -0.9360 c1        1 LKG     -0.067000
     16 C11        -0.7190    0.5380   -1.6340 c2        1 LKG      0.021000
     17 N2         -0.8830    0.2180    0.8150 n2        1 LKG     -0.021000
     18 N4          0.3770    0.7650   -2.4710 n2        1 LKG     -0.114000
     19 C9          2.0360    0.6340    0.6980 c1        1 LKG      0.039000
     20 C3         -0.5030   -1.1110    3.9440 c2        1 LKG     -0.165000
     21 C2         -1.0630    0.4810    7.0900 c1        1 LKG     -0.194000
     22 C1         -1.5380    0.8540    6.0540 c1        1 LKG     -0.142000
     23 H5         -2.3490    1.4490    2.7750 ha        1 LKG      0.164000
     24 H6         -2.9090    2.0910    5.0290 ha        1 LKG      0.138000
     25 H8          1.5480    1.3390    2.6140 hc        1 LKG      0.169500
     26 H15         0.6080    0.9550   -5.2740 ha        1 LKG      0.224000
     27 H17        -5.1430    4.4790    1.2250 h4        1 LKG      0.132000
     28 H14        -0.4670    0.7490   -8.4080 ha        1 LKG      0.224000
     29 HO1        -3.5260    3.8490    2.5140 ho        1 LKG      0.214000
     30 H18        -5.3380    3.5570   -1.0510 ha        1 LKG      0.151000
     31 H12        -2.5110   -0.6180   -1.7760 hc        1 LKG      0.135000
     32 H12A       -2.2060    0.5100   -3.1780 hc        1 LKG      0.135000
     33 H9          1.8160   -0.4440    2.4970 hc        1 LKG      0.169500
     34 H3          0.2260   -1.8570    3.6000 ha        1 LKG      0.131000
     35 H2         -0.9670   -1.3140    4.9200 ha        1 LKG      0.131000
     36 H1         -0.6420    0.1530    8.0060 ha        1 LKG      0.227000
     37 C12        -2.1460    0.4140   -2.0540 c3        1 LKG      0.029000
@<TRIPOS>BOND
     1    1    8 1   
     2    1   16 1   
     3    1   17 1   
     4    2    8 1   
     5    2   18 1   
     6    3    4 1   
     7    3    6 1   
     8    3   20 1   
     9    4    5 1   
    10    4   23 1   
    11    5   22 1   
    12    5   24 1   
    13    6    7 1   
    14    6   17 1   
    15    7   19 1   
    16    7   25 1   
    17    7   33 1   
    18    8   19 1   
    19    9   15 1   
    20    9   37 1   
    21   10   12 1   
    22   10   26 1   
    23   11   13 1   
    24   11   15 1   
    25   11   30 1   
    26   12   28 1   
    27   13   14 1   
    28   13   27 1   
    29   14   29 1   
    30   16   18 1   
    31   16   37 1   
    32   20   34 1   
    33   20   35 1   
    34   21   22 1   
    35   21   36 1   
    36   31   37 1   
    37   32   37 1   
@<TRIPOS>SUBSTRUCTURE
     1 LKG         1 TEMP              0 ****  ****    0 ROOT
