@<TRIPOS>MOLECULE
LKG
   37    40     1     0     0
SMALL
bcc


@<TRIPOS>ATOM
      1 N1         -0.1310   -1.5500   -0.1980 na        1 LKG      0.081300
      2 N3          0.7270   -3.5160    0.5780 nc        1 LKG     -0.057000
      3 C4         -3.0950    0.4990    0.1840 ca        1 LKG     -0.157500
      4 C5         -2.6770    1.8350    0.1940 ca        1 LKG     -0.099000
      5 C6         -3.6170    2.8580    0.0690 ca        1 LKG     -0.133500
      6 C7         -2.1220   -0.5960    0.3330 cc        1 LKG      0.440800
      7 C8         -2.4570   -1.6800    1.2430 cc        1 LKG     -0.233300
      8 C10        -0.3590   -2.6840    0.6740 cd        1 LKG     -0.129300
      9 C13         2.6160    0.1420   -1.0580 ca        1 LKG     -0.128300
     10 C15         4.5120    0.7810    0.3110 ca        1 LKG     -0.187500
     11 C17         2.9900    2.4850   -0.5480 ca        1 LKG     -0.187500
     12 C14         3.7530   -0.2020   -0.3170 ca        1 LKG     -0.079000
     13 C16         4.1270    2.1250    0.1920 ca        1 LKG      0.128100
     14 O1          4.8270    3.1520    0.7820 oh        1 LKG     -0.498100
     15 C18         2.2430    1.4870   -1.1660 ca        1 LKG     -0.079000
     16 C11         1.1360   -1.8080   -0.7770 cd        1 LKG      0.349800
     17 N2         -0.9800   -0.5470   -0.3670 nd        1 LKG     -0.451800
     18 N4          1.5860   -3.0000   -0.2640 nc        1 LKG     -0.357700
     19 C9         -1.5860   -2.7150    1.4150 cd        1 LKG     -0.034000
     20 C3         -4.4550    0.1950    0.0390 ca        1 LKG     -0.099000
     21 C2         -5.3880    1.2220   -0.0890 ca        1 LKG     -0.133500
     22 C1         -4.9710    2.5540   -0.0720 ca        1 LKG     -0.112000
     23 H5         -1.6090    2.0810    0.3020 ha        1 LKG      0.142500
     24 H6         -3.2860    3.9070    0.0810 ha        1 LKG      0.138500
     25 H8         -3.4140   -1.6270    1.7810 ha        1 LKG      0.161000
     26 H15         5.4030    0.5080    0.8930 ha        1 LKG      0.143000
     27 H17         2.7060    3.5430   -0.6290 ha        1 LKG      0.143000
     28 H14         4.0440   -1.2600   -0.2260 ha        1 LKG      0.143500
     29 HO1         5.5770    2.7680    1.2580 ho        1 LKG      0.420000
     30 H18         1.3470    1.7620   -1.7450 ha        1 LKG      0.143500
     31 H12         1.0650   -0.4520   -2.4340 hc        1 LKG      0.078700
     32 H12A        2.5140   -1.5450   -2.3780 hc        1 LKG      0.078700
     33 H9         -1.7740   -3.5640    2.0870 ha        1 LKG      0.172000
     34 H3         -4.7860   -0.8540    0.0170 ha        1 LKG      0.142500
     35 H2         -6.4550    0.9810   -0.2060 ha        1 LKG      0.138500
     36 H1         -5.7100    3.3630   -0.1720 ha        1 LKG      0.137000
     37 C12         1.8260   -0.9160   -1.7480 c3        1 LKG     -0.025400
@<TRIPOS>BOND
     1    1    8 1   
     2    1   16 1   
     3    1   17 1   
     4    2    8 2   
     5    2   18 1   
     6    3    4 ar  
     7    3    6 1   
     8    3   20 ar  
     9    4    5 ar  
    10    4   23 1   
    11    5   22 ar  
    12    5   24 1   
    13    6    7 1   
    14    6   17 2   
    15    7   19 2   
    16    7   25 1   
    17    8   19 1   
    18    9   12 ar  
    19    9   15 ar  
    20    9   37 1   
    21   10   12 ar  
    22   10   13 ar  
    23   10   26 1   
    24   11   13 ar  
    25   11   15 ar  
    26   11   27 1   
    27   12   28 1   
    28   13   14 1   
    29   14   29 1   
    30   15   30 1   
    31   16   18 2   
    32   16   37 1   
    33   19   33 1   
    34   20   21 ar  
    35   20   34 1   
    36   21   22 ar  
    37   21   35 1   
    38   22   36 1   
    39   31   37 1   
    40   32   37 1   
@<TRIPOS>SUBSTRUCTURE
     1 LKG         1 TEMP              0 ****  ****    0 ROOT
