@<TRIPOS>MOLECULE
LKG
   37    39     1     0     0
SMALL
bcc


@<TRIPOS>ATOM
      1 N1         -0.7520    1.3330    0.6450 na        1 LKG     -0.105000
      2 N3          0.4930    2.8100   -0.5580 n2        1 LKG      0.058000
      3 C4         -0.7060   -0.4390    3.8120 ca        1 LKG     -0.066000
      4 C5         -1.9900   -0.3530    4.3650 ca        1 LKG     -0.097000
      5 C6         -2.3350   -1.1600    5.4490 ca        1 LKG     -0.132500
      6 C7         -0.3210    0.4280    2.6840 c2        1 LKG     -0.006000
      7 C8          0.9840    1.1700    2.8240 c3        1 LKG     -0.229000
      8 C10         0.4840    2.1140    0.6350 c2        1 LKG     -0.222000
      9 C13        -3.1200    1.5150   -2.3960 c3        1 LKG     -0.002000
     10 C15        -1.4540    0.6440   -4.2480 c1        1 LKG     -0.219000
     11 C17        -3.0950    3.9870   -3.1440 c2        1 LKG     -0.266000
     12 C14        -2.1970    1.0490   -3.4010 c1        1 LKG     -0.188000
     13 C16        -1.8950    4.0730   -3.7990 c2        1 LKG      0.099000
     14 O1         -1.5640    5.2410   -4.4080 oh        1 LKG     -0.237000
     15 C18        -3.4960    2.9260   -2.3450 c1        1 LKG     -0.107000
     16 C11        -1.3870    1.6270   -0.5570 c2        1 LKG      0.037000
     17 N2         -1.1310    0.5190    1.6420 n2        1 LKG     -0.039000
     18 N4         -0.5710    2.5350   -1.2370 n2        1 LKG     -0.126000
     19 C9          1.3870    2.0530    1.7180 c1        1 LKG      0.035000
     20 C3          0.2210   -1.3480    4.3390 ca        1 LKG     -0.097000
     21 C2         -0.1340   -2.1540    5.4190 ca        1 LKG     -0.132500
     22 C1         -1.4090   -2.0590    5.9770 ca        1 LKG     -0.109000
     23 H5         -2.7270    0.3500    3.9470 ha        1 LKG      0.142000
     24 H6         -3.3430   -1.0860    5.8850 ha        1 LKG      0.140500
     25 H8          0.9450    1.8050    3.7580 hc        1 LKG      0.168500
     26 H15        -0.7950    0.2840   -4.9960 ha        1 LKG      0.221000
     27 H17        -1.1430    3.2620   -3.8040 h4        1 LKG      0.157000
     28 H14        -4.1190    0.9960   -2.6040 hc        1 LKG      0.149000
     29 HO1        -0.6270    5.2050   -4.6560 ho        1 LKG      0.229000
     30 H18        -3.7660    4.8680   -3.1560 ha        1 LKG      0.159000
     31 H12        -3.4820    1.3930   -0.2600 hc        1 LKG      0.129500
     32 H12A       -2.6260   -0.0560   -0.9680 hc        1 LKG      0.129500
     33 H9          1.8230    0.4300    2.9800 hc        1 LKG      0.168500
     34 H3          1.2250   -1.4370    3.8980 ha        1 LKG      0.142000
     35 H2          0.5950   -2.8680    5.8300 ha        1 LKG      0.140500
     36 H1         -1.6840   -2.6960    6.8310 ha        1 LKG      0.139000
     37 C12        -2.6920    1.0660   -0.9930 c3        1 LKG     -0.064000
@<TRIPOS>BOND
     1    1    8 1   
     2    1   16 1   
     3    1   17 1   
     4    2    8 1   
     5    2   18 1   
     6    3    4 1   
     7    3    6 1   
     8    3   20 1   
     9    4    5 1   
    10    4   23 1   
    11    5   22 1   
    12    5   24 1   
    13    6    7 1   
    14    6   17 1   
    15    7   19 1   
    16    7   25 1   
    17    7   33 1   
    18    8   19 1   
    19    9   12 1   
    20    9   15 1   
    21    9   28 1   
    22    9   37 1   
    23   10   12 1   
    24   10   26 1   
    25   11   13 1   
    26   11   15 1   
    27   11   30 1   
    28   13   14 1   
    29   13   27 1   
    30   14   29 1   
    31   16   18 1   
    32   16   37 1   
    33   20   21 1   
    34   20   34 1   
    35   21   22 1   
    36   21   35 1   
    37   22   36 1   
    38   31   37 1   
    39   32   37 1   
@<TRIPOS>SUBSTRUCTURE
     1 LKG         1 TEMP              0 ****  ****    0 ROOT
