@<TRIPOS>MOLECULE
LKM
   52    54     1     0     0
SMALL
bcc


@<TRIPOS>ATOM
      1 N31        -1.4070   -1.6860   -1.2260 n1        1 LKM     -0.365800
      2 C30        -0.7050   -1.2410   -0.4120 cg        1 LKM      0.237800
      3 C27         0.1530   -0.6950    0.5810 ca        1 LKM      0.000000
      4 C28         1.5410   -0.7060    0.3930 ca        1 LKM     -0.101000
      5 C29         2.3780   -0.1640    1.3670 ca        1 LKM     -0.093000
      6 C26        -0.3990   -0.1460    1.7450 ca        1 LKM     -0.131000
      7 C25         0.4550    0.3970    2.7200 ca        1 LKM      0.115900
      8 C24         1.8570    0.3920    2.5360 ca        1 LKM     -0.115300
      9 C23         2.7220    0.9930    3.5950 c3        1 LKM      0.173700
     10 O22         4.1060    0.9900    3.2600 os        1 LKM     -0.335900
     11 C20         4.8220   -0.1460    3.6270 ca        1 LKM      0.107100
     12 C19         4.7800   -0.6530    4.9540 ca        1 LKM     -0.186000
     13 C18         5.5790   -1.7150    5.2960 ca        1 LKM     -0.064000
     14 C21         5.6640   -0.6870    2.6740 ca        1 LKM     -0.162000
     15 C15         6.5030   -1.7780    3.0210 ca        1 LKM      0.020000
     16 C16         6.4490   -2.3050    4.3370 ca        1 LKM     -0.084000
     17 C17         7.2780   -3.4070    4.6760 ca        1 LKM      0.022000
     18 C14         7.3940   -2.3680    2.0830 ca        1 LKM     -0.158000
     19 C13         8.1860   -3.4270    2.4470 ca        1 LKM     -0.031000
     20 C12         8.1390   -3.9660    3.7590 ca        1 LKM     -0.344500
     21 S11         9.1260   -5.3150    4.1540 sy        1 LKM      1.500200
     22 O33         8.3830   -6.1180    5.0610 o         1 LKM     -0.675800
     23 O32         9.4530   -5.9400    2.9210 o         1 LKM     -0.675800
     24 N          10.4020   -4.6730    4.8250 n3        1 LKM     -0.918100
     25 CA         10.7170   -4.6210    6.2320 c3        1 LKM      0.093500
     26 C          12.2220   -4.1880    6.4920 c         1 LKM      0.926600
     27 OXT        12.9280   -3.8490    5.5090 o         1 LKM     -0.813300
     28 O          12.5820   -4.2220    7.6970 o         1 LKM     -0.813300
     29 CB          9.8220   -3.6780    7.0500 c3        1 LKM     -0.093400
     30 CG          8.7500   -4.4470    7.8000 c3        1 LKM     -0.199400
     31 CD          7.8050   -3.5010    8.4700 c         1 LKM      0.637100
     32 OE1         6.6450   -3.2330    8.1420 o         1 LKM     -0.543000
     33 OE2         8.2200   -2.8190    9.5820 oh        1 LKM     -0.598100
     34 F2         -0.0810    0.9300    3.8450 f         1 LKM     -0.138900
     35 H28         1.9720   -1.1440   -0.5200 ha        1 LKM      0.151000
     36 H26        -1.4870   -0.1350    1.9050 ha        1 LKM      0.157000
     37 H29         3.4730   -0.1730    1.2240 ha        1 LKM      0.166000
     38 H231        2.5260    0.4800    4.5740 h1        1 LKM      0.074200
     39 H232        2.4800    2.0900    3.6960 h1        1 LKM      0.074200
     40 H19         4.1270   -0.1800    5.7010 ha        1 LKM      0.138000
     41 H21         5.7110   -0.2660    1.6600 ha        1 LKM      0.140000
     42 H18         5.5750   -2.1230    6.3240 ha        1 LKM      0.173000
     43 H14         7.4360   -1.9560    1.0640 ha        1 LKM      0.130000
     44 H17         7.2060   -3.8120    5.7050 ha        1 LKM      0.164000
     45 H13         8.8700   -3.8940    1.7160 ha        1 LKM      0.156000
     46 H          11.1570   -4.2790    4.2910 hn        1 LKM      0.487800
     47 HA         10.6200   -5.6650    6.6540 h1        1 LKM      0.050700
     48 HBC1       10.4750   -3.1450    7.7950 hc        1 LKM      0.061200
     49 HBC2        9.3480   -2.8970    6.4010 hc        1 LKM      0.061200
     50 HGC1        9.2300   -5.1030    8.5750 hc        1 LKM      0.093700
     51 HGC2        8.1760   -5.1180    7.1020 hc        1 LKM      0.093700
     52 H2          9.1560   -3.0100    9.7430 ho        1 LKM      0.438000
@<TRIPOS>BOND
     1    1    2 3   
     2    2    3 1   
     3    3    4 ar  
     4    3    6 ar  
     5    4    5 ar  
     6    4   35 1   
     7    5    8 ar  
     8    5   37 1   
     9    6    7 ar  
    10    6   36 1   
    11    7    8 ar  
    12    7   34 1   
    13    8    9 1   
    14    9   10 1   
    15    9   38 1   
    16    9   39 1   
    17   10   11 1   
    18   11   12 ar  
    19   11   14 ar  
    20   12   13 ar  
    21   12   40 1   
    22   13   16 ar  
    23   13   42 1   
    24   14   15 ar  
    25   14   41 1   
    26   15   16 ar  
    27   15   18 ar  
    28   16   17 ar  
    29   17   20 ar  
    30   17   44 1   
    31   18   19 ar  
    32   18   43 1   
    33   19   20 ar  
    34   19   45 1   
    35   20   21 1   
    36   21   22 2   
    37   21   23 2   
    38   21   24 1   
    39   24   25 1   
    40   24   46 1   
    41   25   26 1   
    42   25   29 1   
    43   25   47 1   
    44   26   27 1   
    45   26   28 1   
    46   29   30 1   
    47   29   48 1   
    48   29   49 1   
    49   30   31 1   
    50   30   50 1   
    51   30   51 1   
    52   31   32 2   
    53   31   33 1   
    54   33   52 1   
@<TRIPOS>SUBSTRUCTURE
     1 LKM         1 TEMP              0 ****  ****    0 ROOT
