@<TRIPOS>MOLECULE
LKM
   51    53     1     0     0
SMALL
bcc


@<TRIPOS>ATOM
      1 N31        -0.1020  -11.5160  -21.6390 n1        1 LKM     -0.387800
      2 C30        -0.3900  -12.6410  -21.7130 cg        1 LKM      0.248800
      3 C27        -0.7450  -14.0150  -21.8020 ca        1 LKM     -0.014000
      4 C28        -0.2110  -14.9420  -20.8970 ca        1 LKM     -0.101000
      5 C29        -0.5690  -16.2850  -20.9880 ca        1 LKM     -0.094000
      6 C26        -1.6340  -14.4340  -22.7990 ca        1 LKM     -0.136000
      7 C25        -1.9870  -15.7910  -22.8810 ca        1 LKM      0.111900
      8 C24        -1.4540  -16.7330  -21.9700 ca        1 LKM     -0.100300
      9 C23        -1.8370  -18.1740  -22.0940 c3        1 LKM      0.169700
     10 O22        -1.7560  -18.8670  -20.8540 os        1 LKM     -0.340900
     11 C20        -0.5580  -19.5440  -20.6180 ca        1 LKM      0.095100
     12 C19        -0.0180  -20.4430  -21.5740 ca        1 LKM     -0.207000
     13 C18         1.1320  -21.1370  -21.2770 ca        1 LKM     -0.041000
     14 C21         0.0040  -19.3870  -19.3640 ca        1 LKM     -0.186000
     15 C15         1.1720  -20.1220  -19.0330 ca        1 LKM      0.015000
     16 C16         1.7740  -20.9410  -20.0220 ca        1 LKM     -0.089000
     17 C17         2.9860  -21.6160  -19.7130 ca        1 LKM      0.042000
     18 C14         1.7510  -20.0830  -17.7340 ca        1 LKM     -0.182000
     19 C13         2.8530  -20.8470  -17.4410 ca        1 LKM     -0.027000
     20 C12         3.4910  -21.6360  -18.4330 ca        1 LKM     -0.347500
     21 S11         4.8630  -22.6040  -18.0340 sy        1 LKM      1.502200
     22 O33         5.8270  -22.3950  -19.0550 o         1 LKM     -0.686300
     23 O32         5.2740  -22.1320  -16.7510 o         1 LKM     -0.686300
     24 N           4.2950  -24.0670  -17.9610 n3        1 LKM     -0.916100
     25 CA          4.6650  -25.2040  -18.7920 c3        1 LKM      0.100500
     26 C           5.0410  -26.4300  -17.8780 c         1 LKM      0.915600
     27 OXT         4.3420  -26.6450  -16.8470 o         1 LKM     -0.840300
     28 O           6.0350  -27.1180  -18.2310 o         1 LKM     -0.840300
     29 CB          3.5790  -25.6690  -19.7750 c3        1 LKM     -0.065400
     30 CG          3.1010  -24.5620  -20.6750 c3        1 LKM     -0.195400
     31 CD          2.2990  -24.9310  -21.9250 c         1 LKM      0.912600
     32 OE1         1.8020  -23.9480  -22.5720 o         1 LKM     -0.870300
     33 OE2         2.1520  -26.1270  -22.2930 o         1 LKM     -0.870300
     34 F2         -2.8530  -16.1860  -23.8460 f         1 LKM     -0.141900
     35 H28         0.4920  -14.6120  -20.1180 ha        1 LKM      0.149000
     36 H26        -2.0570  -13.7160  -23.5170 ha        1 LKM      0.150000
     37 H29        -0.1510  -17.0190  -20.2740 ha        1 LKM      0.178000
     38 H231       -2.9240  -18.2540  -22.3790 h1        1 LKM      0.074200
     39 H232       -1.2060  -18.6550  -22.8890 h1        1 LKM      0.074200
     40 H19        -0.5420  -20.6160  -22.5230 ha        1 LKM      0.138000
     41 H21        -0.4620  -18.7350  -18.6140 ha        1 LKM      0.128000
     42 H18         1.5360  -21.9190  -21.9660 ha        1 LKM      0.235000
     43 H14         1.2840  -19.4490  -16.9680 ha        1 LKM      0.115000
     44 H17         3.5130  -22.1330  -20.5400 ha        1 LKM      0.184000
     45 H13         3.2820  -20.8500  -16.4230 ha        1 LKM      0.150000
     46 H           3.7170  -24.3820  -17.2080 hn        1 LKM      0.472800
     47 HA          5.5820  -24.9130  -19.3830 h1        1 LKM      0.054700
     48 HBC1        4.0180  -26.4980  -20.3900 hc        1 LKM      0.057700
     49 HBC2        2.7170  -26.1010  -19.2040 hc        1 LKM      0.057700
     50 HGC1        2.4370  -23.8800  -20.0780 hc        1 LKM      0.015200
     51 HGC2        3.9920  -23.9810  -21.0370 hc        1 LKM      0.015200
@<TRIPOS>BOND
     1    1    2 3   
     2    2    3 1   
     3    3    4 ar  
     4    3    6 ar  
     5    4    5 ar  
     6    4   35 1   
     7    5    8 ar  
     8    5   37 1   
     9    6    7 ar  
    10    6   36 1   
    11    7    8 ar  
    12    7   34 1   
    13    8    9 1   
    14    9   10 1   
    15    9   38 1   
    16    9   39 1   
    17   10   11 1   
    18   11   12 ar  
    19   11   14 ar  
    20   12   13 ar  
    21   12   40 1   
    22   13   16 ar  
    23   13   42 1   
    24   14   15 ar  
    25   14   41 1   
    26   15   16 ar  
    27   15   18 ar  
    28   16   17 ar  
    29   17   20 ar  
    30   17   44 1   
    31   18   19 ar  
    32   18   43 1   
    33   19   20 ar  
    34   19   45 1   
    35   20   21 1   
    36   21   22 2   
    37   21   23 2   
    38   21   24 1   
    39   24   25 1   
    40   24   46 1   
    41   25   26 1   
    42   25   29 1   
    43   25   47 1   
    44   26   27 1   
    45   26   28 1   
    46   29   30 1   
    47   29   48 1   
    48   29   49 1   
    49   30   31 1   
    50   30   50 1   
    51   30   51 1   
    52   31   32 1   
    53   31   33 1   
@<TRIPOS>SUBSTRUCTURE
     1 LKM         1 TEMP              0 ****  ****    0 ROOT
