@<TRIPOS>MOLECULE
LKM
   52    54     1     0     0
SMALL
bcc


@<TRIPOS>ATOM
      1 N31        -0.4420   -0.8830   -2.5240 n1        1 LKM     -0.362800
      2 C30         0.0160   -0.6200   -1.4870 cg        1 LKM      0.235800
      3 C27         0.5760   -0.2950   -0.2210 ca        1 LKM      0.003000
      4 C28         1.9320    0.0420   -0.1190 ca        1 LKM     -0.103000
      5 C29         2.4740    0.3670    1.1220 ca        1 LKM     -0.092000
      6 C26        -0.2360   -0.3140    0.9180 ca        1 LKM     -0.130000
      7 C25         0.3220    0.0140    2.1660 ca        1 LKM      0.119900
      8 C24         1.6880    0.3600    2.2760 ca        1 LKM     -0.119300
      9 C23         2.2410    0.7330    3.6120 c3        1 LKM      0.172700
     10 O22         3.6630    0.8310    3.6180 os        1 LKM     -0.335900
     11 C20         4.3480   -0.3520    3.8810 ca        1 LKM      0.104100
     12 C19         4.0880   -1.1010    5.0610 ca        1 LKM     -0.175000
     13 C18         4.8560   -2.2030    5.3410 ca        1 LKM     -0.071000
     14 C21         5.3640   -0.7020    3.0150 ca        1 LKM     -0.148000
     15 C15         6.1700   -1.8360    3.3030 ca        1 LKM      0.018000
     16 C16         5.9080   -2.5980    4.4700 ca        1 LKM     -0.079000
     17 C17         6.7130   -3.7360    4.7460 ca        1 LKM      0.015000
     18 C14         7.2310   -2.2330    2.4440 ca        1 LKM     -0.152000
     19 C13         7.9900   -3.3360    2.7440 ca        1 LKM     -0.028000
     20 C12         7.7390   -4.1060    3.9080 ca        1 LKM     -0.333500
     21 S11         8.7000   -5.4980    4.2220 sy        1 LKM      1.503200
     22 O33         7.9410   -6.3230    5.0910 o         1 LKM     -0.671800
     23 O32         9.0020   -6.0590    2.9540 o         1 LKM     -0.671800
     24 N          10.0040   -4.9200    4.8980 n7        1 LKM     -0.918100
     25 CA         10.2750   -4.8380    6.3130 c3        1 LKM      0.092500
     26 C          11.8150   -4.6570    6.6060 c         1 LKM      0.922600
     27 OXT        12.5920   -4.4120    5.6500 o         1 LKM     -0.820800
     28 O          12.1560   -4.7560    7.8200 o         1 LKM     -0.820800
     29 CB          9.5400   -3.6850    7.0190 c3        1 LKM     -0.074400
     30 CG          9.4650   -3.9310    8.5150 c3        1 LKM     -0.178400
     31 CD          9.9200   -2.7320    9.2920 c         1 LKM      0.642100
     32 OE1         9.2100   -1.9910    9.9830 o         1 LKM     -0.563000
     33 OE2        11.2330   -2.3890    9.2810 oh        1 LKM     -0.608100
     34 F2         -0.4670   -0.0040    3.2680 f         1 LKM     -0.137900
     35 H28         2.5680    0.0490   -1.0170 ha        1 LKM      0.151000
     36 H26        -1.3010   -0.5820    0.8510 ha        1 LKM      0.159000
     37 H29         3.5420    0.6290    1.2100 ha        1 LKM      0.164000
     38 H231        1.9070    1.7780    3.8760 h1        1 LKM      0.073700
     39 H232        1.8720    0.0160    4.3930 h1        1 LKM      0.073700
     40 H19         3.2910   -0.7780    5.7460 ha        1 LKM      0.138000
     41 H21         5.5700   -0.1030    2.1170 ha        1 LKM      0.141000
     42 H18         4.6770   -2.7930    6.2530 ha        1 LKM      0.143000
     43 H14         7.4310   -1.6390    1.5410 ha        1 LKM      0.132000
     44 H17         6.4940   -4.3350    5.6500 ha        1 LKM      0.158000
     45 H13         8.8040   -3.6560    2.0710 ha        1 LKM      0.152000
     46 H          11.7470   -3.0350    8.7510 ho        1 LKM      0.486000
     47 HA          9.9570   -5.8140    6.7870 h1        1 LKM      0.057700
     48 HBC1       10.0870   -2.7290    6.8060 hc        1 LKM      0.038700
     49 HBC2        8.4990   -3.5680    6.6150 hc        1 LKM      0.038700
     50 HGC1        8.4150   -4.1820    8.8170 hc        1 LKM      0.086700
     51 HGC2       10.1330   -4.7940    8.8000 hc        1 LKM      0.086700
     52 H2         10.8030   -4.6220    4.3690 hn        1 LKM      0.486800
@<TRIPOS>BOND
     1    1    2 3   
     2    2    3 1   
     3    3    4 ar  
     4    3    6 ar  
     5    4    5 ar  
     6    4   35 1   
     7    5    8 ar  
     8    5   37 1   
     9    6    7 ar  
    10    6   36 1   
    11    7    8 ar  
    12    7   34 1   
    13    8    9 1   
    14    9   10 1   
    15    9   38 1   
    16    9   39 1   
    17   10   11 1   
    18   11   12 ar  
    19   11   14 ar  
    20   12   13 ar  
    21   12   40 1   
    22   13   16 ar  
    23   13   42 1   
    24   14   15 ar  
    25   14   41 1   
    26   15   16 ar  
    27   15   18 ar  
    28   16   17 ar  
    29   17   20 ar  
    30   17   44 1   
    31   18   19 ar  
    32   18   43 1   
    33   19   20 ar  
    34   19   45 1   
    35   20   21 1   
    36   21   22 2   
    37   21   23 2   
    38   21   24 1   
    39   24   25 1   
    40   24   52 1   
    41   25   26 1   
    42   25   29 1   
    43   25   47 1   
    44   26   27 1   
    45   26   28 1   
    46   29   30 1   
    47   29   48 1   
    48   29   49 1   
    49   30   31 1   
    50   30   50 1   
    51   30   51 1   
    52   31   32 2   
    53   31   33 1   
    54   33   46 1   
@<TRIPOS>SUBSTRUCTURE
     1 LKM         1 TEMP              0 ****  ****    0 ROOT
