@<TRIPOS>MOLECULE
LKS
   41    42     1     0     0
SMALL
bcc


@<TRIPOS>ATOM
      1 C5         -0.4180   -1.4070    1.6030 c3        1 LKS     -0.033600
      2 S1         -0.7850   -2.8470    0.6250 ss        1 LKS     -0.287200
      3 C1          0.8270   -3.6100    0.3770 c3        1 LKS      0.264600
      4 N1          1.2040   -4.3920    1.5170 nh        1 LKS     -0.863200
      5 C2          1.8860   -2.5830   -0.0870 c3        1 LKS      0.079100
      6 O2          1.5960   -2.0760   -1.3810 oh        1 LKS     -0.593800
      7 C3          1.9870   -1.3610    0.8370 c3        1 LKS      0.107100
      8 O3          3.0100   -0.4900    0.3890 oh        1 LKS     -0.593800
      9 C4          0.6650   -0.5740    0.9300 c3        1 LKS      0.121100
     10 O4          0.8500    0.5960    1.7140 oh        1 LKS     -0.598800
     11 C6         -1.7190   -0.6250    1.7420 c3        1 LKS      0.144400
     12 O6         -2.5210   -1.1170    2.7940 oh        1 LKS     -0.590800
     13 C7          2.2130   -5.3850    1.4320 c2        1 LKS      0.617200
     14 C8          2.6360   -5.9340    2.8010 c3        1 LKS     -0.078400
     15 C9          3.1580   -4.8590    3.6880 ca        1 LKS     -0.103300
     16 C10         4.4930   -4.4510    3.5900 ca        1 LKS     -0.128500
     17 C11         4.9860   -3.4560    4.4330 ca        1 LKS     -0.127000
     18 C14         2.3250   -4.2640    4.6440 ca        1 LKS     -0.128500
     19 C13         2.8220   -3.2710    5.4870 ca        1 LKS     -0.127000
     20 C12         4.1520   -2.8640    5.3810 ca        1 LKS     -0.124000
     21 N2          2.7330   -5.9150    0.3710 n2        1 LKS     -0.832100
     22 H5         -0.0700   -1.7090    2.6250 h1        1 LKS      0.091700
     23 H1          0.6210   -4.3080   -0.4890 h2        1 LKS      0.092700
     24 HN1         1.1650   -3.9060    2.3890 hn        1 LKS      0.423800
     25 H2          2.8990   -3.0840   -0.1170 h1        1 LKS      0.065700
     26 HO2         1.5320   -2.8290   -1.9790 ho        1 LKS      0.416000
     27 H3          2.3220   -1.6840    1.8630 h1        1 LKS      0.094700
     28 HO3         2.8400   -0.3000   -0.5440 ho        1 LKS      0.422000
     29 H4          0.3380   -0.2710   -0.1060 h1        1 LKS      0.070700
     30 HO4         1.7170    0.9600    1.4850 ho        1 LKS      0.423000
     31 H61        -2.2860   -0.6390    0.7720 h1        1 LKS      0.072200
     32 H62        -1.4900    0.4390    2.0340 h1        1 LKS      0.072200
     33 HO6        -2.7590   -2.0270    2.5760 ho        1 LKS      0.403000
     34 H81         1.7420   -6.4310    3.2640 hc        1 LKS      0.081700
     35 H82         3.4250   -6.7230    2.6590 hc        1 LKS      0.081700
     36 H10         5.1540   -4.9200    2.8450 ha        1 LKS      0.138500
     37 H11         6.0370   -3.1390    4.3490 ha        1 LKS      0.137000
     38 H14         1.2780   -4.5910    4.7390 ha        1 LKS      0.138500
     39 H13         2.1630   -2.8090    6.2370 ha        1 LKS      0.137000
     40 H12         4.5430   -2.0800    6.0460 ha        1 LKS      0.136000
     41 HN2         2.4350   -5.5570   -0.5100 hn        1 LKS      0.377400
@<TRIPOS>BOND
     1    1    2 1   
     2    1    9 1   
     3    1   11 1   
     4    1   22 1   
     5    2    3 1   
     6    3    4 1   
     7    3    5 1   
     8    3   23 1   
     9    4   13 1   
    10    4   24 1   
    11    5    6 1   
    12    5    7 1   
    13    5   25 1   
    14    6   26 1   
    15    7    8 1   
    16    7    9 1   
    17    7   27 1   
    18    8   28 1   
    19    9   10 1   
    20    9   29 1   
    21   10   30 1   
    22   11   12 1   
    23   11   31 1   
    24   11   32 1   
    25   12   33 1   
    26   13   14 1   
    27   13   21 2   
    28   14   15 1   
    29   14   34 1   
    30   14   35 1   
    31   15   16 ar  
    32   15   18 ar  
    33   16   17 ar  
    34   16   36 1   
    35   17   20 ar  
    36   17   37 1   
    37   18   19 ar  
    38   18   38 1   
    39   19   20 ar  
    40   19   39 1   
    41   20   40 1   
    42   21   41 1   
@<TRIPOS>SUBSTRUCTURE
     1 LKS         1 TEMP              0 ****  ****    0 ROOT
