@<TRIPOS>MOLECULE
LKS
   42    43     1     0     0
SMALL
bcc


@<TRIPOS>ATOM
      1 C5         -0.8290    0.3790    0.6010 c3        1 LKS     -0.057600
      2 S1          0.2870   -0.8830    1.1410 ss        1 LKS     -0.192200
      3 C1          1.1620   -0.0800    2.4650 c3        1 LKS      0.125600
      4 N1          1.0290   -0.9060    3.7100 n4        1 LKS     -0.796000
      5 C2          0.6950    1.3770    2.6980 c3        1 LKS      0.145100
      6 O2          1.4920    1.9370    3.7210 oh        1 LKS     -0.612800
      7 C3          0.7640    2.2130    1.4100 c3        1 LKS      0.074100
      8 O3          2.1440    2.2690    1.0810 oh        1 LKS     -0.612800
      9 C4         -0.0640    1.6460    0.2360 c3        1 LKS      0.116100
     10 O4         -1.0510    2.5970   -0.1360 oh        1 LKS     -0.589800
     11 C6         -1.5760   -0.1960   -0.6070 c3        1 LKS      0.155400
     12 O6         -2.8780    0.3320   -0.6720 oh        1 LKS     -0.572800
     13 C7          2.3650   -1.1500    4.4070 c2        1 LKS      0.557200
     14 C8          2.7850   -2.6130    4.3320 c3        1 LKS     -0.077400
     15 C9          1.7020   -3.5220    4.7940 ca        1 LKS     -0.161300
     16 C10         1.4820   -3.7140    6.1630 ca        1 LKS     -0.127500
     17 C11         0.4940   -4.5980    6.5950 ca        1 LKS     -0.116500
     18 C14         0.9340   -4.2330    3.8630 ca        1 LKS     -0.127500
     19 C13        -0.0510   -5.1170    4.2990 ca        1 LKS     -0.116500
     20 C12        -0.2740   -5.2980    5.6650 ca        1 LKS     -0.098000
     21 N2          3.0490   -0.2540    4.9870 n2        1 LKS     -0.693100
     22 H5         -1.5900    0.6200    1.3910 h1        1 LKS      0.111700
     23 H1          2.2560   -0.0570    2.1780 hx        1 LKS      0.152700
     24 HN1         0.3940   -0.4350    4.3660 hn        1 LKS      0.460800
     25 H2         -0.3610    1.4000    3.0980 h1        1 LKS      0.103700
     26 HO2         2.2390    2.4050    3.3140 ho        1 LKS      0.451000
     27 H3          0.3810    3.2470    1.6600 h1        1 LKS      0.095700
     28 HO3         2.2650    2.9790    0.4370 ho        1 LKS      0.439000
     29 H4          0.6320    1.4350   -0.6270 h1        1 LKS      0.081700
     30 HO4        -0.6300    3.2450   -0.7150 ho        1 LKS      0.426000
     31 H61        -1.0070    0.0150   -1.5510 h1        1 LKS      0.070200
     32 H62        -1.7220   -1.3060   -0.4890 h1        1 LKS      0.070200
     33 HO6        -2.8020    1.2830   -0.8420 ho        1 LKS      0.424000
     34 H81         3.0780   -2.8370    3.2700 hc        1 LKS      0.108200
     35 H82         3.7030   -2.7560    4.9710 hc        1 LKS      0.108200
     36 H10         2.1020   -3.1800    6.9010 ha        1 LKS      0.141000
     37 H11         0.3300   -4.7510    7.6740 ha        1 LKS      0.155000
     38 H14         1.1310   -4.1270    2.7850 ha        1 LKS      0.141000
     39 H13        -0.6450   -5.6840    3.5640 ha        1 LKS      0.155000
     40 H12        -1.0490   -6.0030    6.0080 ha        1 LKS      0.157000
     41 HN2         2.7700    0.7050    5.0250 hn        1 LKS      0.465400
     42 H121        0.6100   -1.8200    3.4610 hn        1 LKS      0.460800
@<TRIPOS>BOND
     1    1    2 1   
     2    1    9 1   
     3    1   11 1   
     4    1   22 1   
     5    2    3 1   
     6    3    4 1   
     7    3    5 1   
     8    3   23 1   
     9    4   13 1   
    10    4   24 1   
    11    4   42 1   
    12    5    6 1   
    13    5    7 1   
    14    5   25 1   
    15    6   26 1   
    16    7    8 1   
    17    7    9 1   
    18    7   27 1   
    19    8   28 1   
    20    9   10 1   
    21    9   29 1   
    22   10   30 1   
    23   11   12 1   
    24   11   31 1   
    25   11   32 1   
    26   12   33 1   
    27   13   14 1   
    28   13   21 2   
    29   14   15 1   
    30   14   34 1   
    31   14   35 1   
    32   15   16 ar  
    33   15   18 ar  
    34   16   17 ar  
    35   16   36 1   
    36   17   20 ar  
    37   17   37 1   
    38   18   19 ar  
    39   18   38 1   
    40   19   20 ar  
    41   19   39 1   
    42   20   40 1   
    43   21   41 1   
@<TRIPOS>SUBSTRUCTURE
     1 LKS         1 TEMP              0 ****  ****    0 ROOT
