@<TRIPOS>MOLECULE
LKS
   42    43     1     0     0
SMALL
bcc


@<TRIPOS>ATOM
      1 C5         -0.5990    0.1610    0.6500 c3        1 LKS     -0.073600
      2 S1          0.7120   -1.0090    0.8580 ss        1 LKS     -0.145200
      3 C1          1.7490   -0.3210    2.1150 c3        1 LKS      0.111600
      4 N1          1.2540   -0.7590    3.4670 n4        1 LKS     -0.812000
      5 C2          1.9650    1.2080    2.0360 c3        1 LKS      0.108100
      6 O2          2.7500    1.5130    0.9040 oh        1 LKS     -0.562800
      7 C3          0.6470    1.9910    1.8670 c3        1 LKS      0.099100
      8 O3          0.9250    3.3740    1.8620 oh        1 LKS     -0.570800
      9 C4         -0.1040    1.5980    0.5810 c3        1 LKS      0.121100
     10 O4         -1.2640    2.4020    0.4380 oh        1 LKS     -0.591800
     11 C6         -1.3140   -0.2520   -0.6430 c3        1 LKS      0.160400
     12 O6         -2.6910    0.0060   -0.5390 oh        1 LKS     -0.575800
     13 C7          2.3860   -1.1270    4.4170 c2        1 LKS      0.554200
     14 C8          2.6010   -2.6370    4.4840 c3        1 LKS     -0.074400
     15 C9          1.3460   -3.3430    4.8570 ca        1 LKS     -0.166300
     16 C10         0.9470   -3.4020    6.1970 ca        1 LKS     -0.126500
     17 C11        -0.2070   -4.1000    6.5520 ca        1 LKS     -0.115500
     18 C14         0.5890   -4.0010    3.8780 ca        1 LKS     -0.126500
     19 C13        -0.5620   -4.6990    4.2380 ca        1 LKS     -0.115500
     20 C12        -0.9640   -4.7470    5.5740 ca        1 LKS     -0.095000
     21 N2          3.0750   -0.3010    5.0900 n2        1 LKS     -0.694100
     22 H5         -1.3360    0.0710    1.4920 h1        1 LKS      0.102700
     23 H1          2.7500   -0.8250    1.9470 hx        1 LKS      0.140700
     24 HN1         0.6690   -0.0260    3.8790 hn        1 LKS      0.460300
     25 H2          2.4800    1.5720    2.9710 h1        1 LKS      0.058700
     26 HO2         3.6750    1.3260    1.1160 ho        1 LKS      0.433000
     27 H3         -0.0140    1.8450    2.7670 h1        1 LKS      0.083700
     28 HO3         1.5180    3.5550    1.1170 ho        1 LKS      0.433000
     29 H4          0.5750    1.7480   -0.3070 h1        1 LKS      0.086700
     30 HO4        -0.9920    3.3260    0.5420 ho        1 LKS      0.439000
     31 H61        -0.8640    0.2860   -1.5200 h1        1 LKS      0.071700
     32 H62        -1.2380   -1.3650   -0.7970 h1        1 LKS      0.071700
     33 HO6        -2.8090    0.9680   -0.5200 ho        1 LKS      0.429000
     34 H81         2.9820   -2.9820    3.4840 hc        1 LKS      0.107700
     35 H82         3.4050   -2.8540    5.2450 hc        1 LKS      0.107700
     36 H10         1.5530   -2.9130    6.9760 ha        1 LKS      0.141500
     37 H11        -0.5140   -4.1500    7.6090 ha        1 LKS      0.157000
     38 H14         0.9200   -4.0040    2.8280 ha        1 LKS      0.141500
     39 H13        -1.1480   -5.2250    3.4670 ha        1 LKS      0.157000
     40 H12        -1.8700   -5.3050    5.8570 ha        1 LKS      0.159000
     41 HN2         2.9330    0.6850    5.0560 hn        1 LKS      0.447400
     42 H121        0.6610   -1.6020    3.3290 hn        1 LKS      0.460300
@<TRIPOS>BOND
     1    1    2 1   
     2    1    9 1   
     3    1   11 1   
     4    1   22 1   
     5    2    3 1   
     6    3    4 1   
     7    3    5 1   
     8    3   23 1   
     9    4   13 1   
    10    4   24 1   
    11    4   42 1   
    12    5    6 1   
    13    5    7 1   
    14    5   25 1   
    15    6   26 1   
    16    7    8 1   
    17    7    9 1   
    18    7   27 1   
    19    8   28 1   
    20    9   10 1   
    21    9   29 1   
    22   10   30 1   
    23   11   12 1   
    24   11   31 1   
    25   11   32 1   
    26   12   33 1   
    27   13   14 1   
    28   13   21 2   
    29   14   15 1   
    30   14   34 1   
    31   14   35 1   
    32   15   16 ar  
    33   15   18 ar  
    34   16   17 ar  
    35   16   36 1   
    36   17   20 ar  
    37   17   37 1   
    38   18   19 ar  
    39   18   38 1   
    40   19   20 ar  
    41   19   39 1   
    42   20   40 1   
    43   21   41 1   
@<TRIPOS>SUBSTRUCTURE
     1 LKS         1 TEMP              0 ****  ****    0 ROOT
