@<TRIPOS>MOLECULE
LKS
   42    43     1     0     0
SMALL
bcc


@<TRIPOS>ATOM
      1 C5         -0.4970    0.0460    0.4760 c3        1 LKS     -0.059600
      2 S1          1.0160   -0.8800    0.5080 ss        1 LKS     -0.172200
      3 C1          1.9390   -0.3470    1.9230 c3        1 LKS      0.140600
      4 N1          1.7410   -1.3270    3.0380 ny        1 LKS     -0.804000
      5 C2          1.7360    1.1070    2.4000 c3        1 LKS      0.143100
      6 O2          2.5740    1.8900    1.5740 oh        1 LKS     -0.585800
      7 C3          0.2670    1.5570    2.3580 c3        1 LKS      0.105100
      8 O3          0.3040    2.8980    2.8120 oh        1 LKS     -0.598800
      9 C4         -0.3460    1.4860    0.9460 c3        1 LKS      0.123100
     10 O4         -1.6080    2.1140    1.0880 oh        1 LKS     -0.601800
     11 C6         -0.9310   -0.0260   -0.9870 c3        1 LKS      0.138400
     12 O6         -2.3140    0.2830   -1.0050 oh        1 LKS     -0.607800
     13 C7          2.9600   -1.6050    3.9090 c2        1 LKS      0.551200
     14 C8          2.8330   -2.9530    4.6160 c3        1 LKS     -0.081400
     15 C9          1.4350   -3.2560    5.0210 ca        1 LKS     -0.169300
     16 C10         0.9320   -2.7710    6.2340 ca        1 LKS     -0.131000
     17 C11        -0.3630   -3.0990    6.6350 ca        1 LKS     -0.116500
     18 C14         0.6350   -4.0830    4.2210 ca        1 LKS     -0.131000
     19 C13        -0.6570   -4.4100    4.6260 ca        1 LKS     -0.116500
     20 C12        -1.1590   -3.9170    5.8320 ca        1 LKS     -0.097000
     21 N2          3.9670   -0.8490    4.0520 n2        1 LKS     -0.690100
     22 H5         -1.2790   -0.4570    1.1060 h1        1 LKS      0.112700
     23 H1          3.0130   -0.4350    1.5580 hx        1 LKS      0.159700
     24 HN1         1.4320   -2.2260    2.6280 hn        1 LKS      0.462800
     25 H2          2.0900    1.2260    3.4690 h1        1 LKS      0.065700
     26 HO2         2.2950    2.8150    1.6770 ho        1 LKS      0.462000
     27 H3         -0.3490    0.9370    3.0670 h1        1 LKS      0.051700
     28 HO3        -0.5760    3.2810    2.6730 ho        1 LKS      0.460000
     29 H4          0.2950    2.0720    0.2260 h1        1 LKS      0.080700
     30 HO4        -2.0910    2.0130    0.2540 ho        1 LKS      0.454000
     31 H61        -0.3640    0.7190   -1.6090 h1        1 LKS      0.056700
     32 H62        -0.7550   -1.0610   -1.3920 h1        1 LKS      0.056700
     33 HO6        -2.6270    0.1400   -1.9080 ho        1 LKS      0.434000
     34 H81         3.2290   -3.7390    3.9140 hc        1 LKS      0.113200
     35 H82         3.5040   -2.9450    5.5220 hc        1 LKS      0.113200
     36 H10         1.5660   -2.1490    6.8850 ha        1 LKS      0.141500
     37 H11        -0.7500   -2.7240    7.5960 ha        1 LKS      0.157000
     38 H14         1.0390   -4.5120    3.2910 ha        1 LKS      0.141500
     39 H13        -1.2770   -5.0730    4.0020 ha        1 LKS      0.157000
     40 H12        -2.1770   -4.1850    6.1560 ha        1 LKS      0.159000
     41 HN2         4.0700    0.0230    3.5780 hn        1 LKS      0.458400
     42 H121        0.9940   -1.0050    3.6670 hn        1 LKS      0.462800
@<TRIPOS>BOND
     1    1    2 1   
     2    1    9 1   
     3    1   11 1   
     4    1   22 1   
     5    2    3 1   
     6    3    4 1   
     7    3    5 1   
     8    3   23 1   
     9    4   13 1   
    10    4   24 1   
    11    4   42 1   
    12    5    6 1   
    13    5    7 1   
    14    5   25 1   
    15    6   26 1   
    16    7    8 1   
    17    7    9 1   
    18    7   27 1   
    19    8   28 1   
    20    9   10 1   
    21    9   29 1   
    22   10   30 1   
    23   11   12 1   
    24   11   31 1   
    25   11   32 1   
    26   12   33 1   
    27   13   14 1   
    28   13   21 2   
    29   14   15 1   
    30   14   34 1   
    31   14   35 1   
    32   15   16 ar  
    33   15   18 ar  
    34   16   17 ar  
    35   16   36 1   
    36   17   20 ar  
    37   17   37 1   
    38   18   19 ar  
    39   18   38 1   
    40   19   20 ar  
    41   19   39 1   
    42   20   40 1   
    43   21   41 1   
@<TRIPOS>SUBSTRUCTURE
     1 LKS         1 TEMP              0 ****  ****    0 ROOT
