@<TRIPOS>MOLECULE
LKS
   41    39     1     0     0
SMALL
bcc


@<TRIPOS>ATOM
      1 C5         -2.0080    1.7070   -1.2230 c3        1 LKS     -0.237000
      2 S1         -0.3820    1.6850   -1.1890 ss        1 LKS     -0.011000
      3 C1          0.2000    1.5480    0.3220 c3        1 LKS     -0.097000
      4 N1         -0.1010    0.1930    0.8350 n3        1 LKS     -0.347000
      5 C2         -0.4210    2.6150    1.2950 c3        1 LKS     -0.004000
      6 O2          0.0410    3.8420    0.9570 oh        1 LKS     -0.320000
      7 C3         -2.0250    2.6350    1.2490 c3        1 LKS     -0.043000
      8 O3         -2.4710    3.6650    1.9770 oh        1 LKS     -0.323000
      9 C4         -2.6050    2.7720   -0.2370 c3        1 LKS      0.012000
     10 O4         -3.9490    2.6290   -0.1950 oh        1 LKS     -0.321000
     11 C6         -2.4960    2.0530   -2.7150 c3        1 LKS     -0.005000
     12 O6         -1.9450    1.1080   -3.6350 oh        1 LKS     -0.316000
     13 C7          0.9260   -0.8670    0.7590 c2        1 LKS      0.099000
     14 C8          0.6550   -2.1340   -0.0640 c3        1 LKS     -0.093000
     15 C9          1.8020   -3.1100    0.1080 c2        1 LKS     -0.093000
     16 C10         3.0880   -2.7780   -0.3670 c2        1 LKS     -0.117000
     17 C11         4.1050   -3.7220   -0.3310 c1        1 LKS     -0.127000
     18 C14         1.5590   -4.3520    0.6000 c1        1 LKS     -0.139000
     19 C13         2.5760   -5.2990    0.6360 c1        1 LKS     -0.126500
     20 C12         3.8570   -4.9730    0.1640 c1        1 LKS     -0.126500
     21 N2          2.1290   -0.7130    1.4260 n1        1 LKS     -0.283000
     22 H5         -2.3440    0.8200   -0.9750 h1        1 LKS      0.148000
     23 H1          1.1690    1.6680    0.2990 h2        1 LKS      0.129000
     24 HN1        -0.9070    0.0230    1.2280 hn        1 LKS      0.216000
     25 H2         -0.1360    2.4100    2.2120 h1        1 LKS      0.140000
     26 HO2         0.6900    4.1280    1.5990 ho        1 LKS      0.222000
     27 H3         -2.3720    1.7740    1.6530 h1        1 LKS      0.136000
     28 HO3        -2.5680    3.4240    2.7780 ho        1 LKS      0.219000
     29 H4         -2.4030    3.6360   -0.5640 h1        1 LKS      0.086000
     30 HO4        -4.3530    3.4530   -0.3240 ho        1 LKS      0.223000
     31 H61        -2.1860    2.9750   -2.9600 h1        1 LKS      0.107500
     32 H62        -3.4860    2.0130   -2.7560 h1        1 LKS      0.107500
     33 HO6        -2.2040    1.3160   -4.4640 ho        1 LKS      0.205000
     34 H81         0.5700   -1.8980   -0.9930 hc        1 LKS      0.121000
     35 H82        -0.2090   -2.5670    0.2560 hc        1 LKS      0.121000
     36 H10         3.2620   -1.8880   -0.7160 ha        1 LKS      0.143000
     37 H11         5.0430   -3.4830   -0.6780 ha        1 LKS      0.136000
     38 H14         0.6640   -4.5820    0.9280 ha        1 LKS      0.132000
     39 H13         2.4010   -6.1790    0.9860 ha        1 LKS      0.135500
     40 H12         4.5400   -5.6120    0.1890 ha        1 LKS      0.135500
     41 HN2         2.2930    0.0670    1.9280 DU        1 LKS      0.154000
@<TRIPOS>BOND
     1    1    2 1   
     2    1    9 1   
     3    1   11 1   
     4    1   22 1   
     5    2    3 1   
     6    3    4 1   
     7    3    5 1   
     8    3   23 1   
     9    4   13 1   
    10    4   24 1   
    11    5    6 1   
    12    5    7 1   
    13    5   25 1   
    14    6   26 1   
    15    7    8 1   
    16    7    9 1   
    17    7   27 1   
    18    8   28 1   
    19    9   10 1   
    20    9   29 1   
    21   10   30 1   
    22   11   12 1   
    23   11   31 1   
    24   11   32 1   
    25   12   33 1   
    26   13   14 1   
    27   13   21 1   
    28   14   15 1   
    29   14   34 1   
    30   14   35 1   
    31   15   16 1   
    32   15   18 1   
    33   16   17 1   
    34   16   36 1   
    35   17   37 1   
    36   18   38 1   
    37   19   20 1   
    38   19   39 1   
    39   20   40 1   
@<TRIPOS>SUBSTRUCTURE
     1 LKS         1 TEMP              0 ****  ****    0 ROOT
