@<TRIPOS>MOLECULE
LL1
   24    26     1     0     0
SMALL
bcc


@<TRIPOS>ATOM
      1 C4          1.1290   -0.1850    0.0340 ca        1 LL1     -0.194900
      2 C5          1.3760   -1.5430    0.2330 ca        1 LL1     -0.065000
      3 C6          2.6930   -1.9730    0.3060 ca        1 LL1     -0.156000
      4 C1          3.7690   -1.0730    0.1910 ca        1 LL1     -0.098000
      5 C2          3.5680    0.2860    0.0060 ca        1 LL1     -0.139000
      6 C3          2.2410    0.7330   -0.0710 ca        1 LL1     -0.055200
      7 N11         1.6750    2.0120   -0.2040 na        1 LL1     -0.012100
      8 N12         0.3420    1.9640   -0.2480 nc        1 LL1     -0.494100
      9 C13        -0.0510    0.6720   -0.0890 cd        1 LL1      0.378500
     10 C14        -1.4360    0.2360   -0.0470 ca        1 LL1     -0.050900
     11 C15        -1.8130   -0.9950   -0.6060 ca        1 LL1     -0.228800
     12 C16        -3.1620   -1.3790   -0.5360 ca        1 LL1      0.389200
     13 N17        -4.1240   -0.6300    0.0380 nb        1 LL1     -0.662000
     14 C18        -3.7490    0.5510    0.5660 ca        1 LL1      0.389200
     15 C19        -2.4270    1.0290    0.5500 ca        1 LL1     -0.228800
     16 H5          0.5410   -2.2510    0.3370 ha        1 LL1      0.142000
     17 H6          2.9090   -3.0410    0.4600 ha        1 LL1      0.136000
     18 H1          4.7970   -1.4620    0.2530 ha        1 LL1      0.135000
     19 H2          4.4100    0.9850   -0.0740 ha        1 LL1      0.140000
     20 H15        -1.0730   -1.6410   -1.0970 ha        1 LL1      0.151500
     21 H16        -3.4950   -2.3410   -0.9660 h4        1 LL1      0.022600
     22 H18        -4.5560    1.1480    1.0270 h4        1 LL1      0.022600
     23 H19        -2.1830    2.0030    0.9950 ha        1 LL1      0.151500
     24 HN11        2.1500    2.8410   -0.4740 hn        1 LL1      0.324700
@<TRIPOS>BOND
     1    1    2 ar  
     2    1    6 ar  
     3    1    9 1   
     4    2    3 ar  
     5    2   16 1   
     6    3    4 ar  
     7    3   17 1   
     8    4    5 ar  
     9    4   18 1   
    10    5    6 ar  
    11    5   19 1   
    12    6    7 1   
    13    7    8 1   
    14    7   24 1   
    15    8    9 2   
    16    9   10 1   
    17   10   11 ar  
    18   10   15 ar  
    19   11   12 ar  
    20   11   20 1   
    21   12   13 ar  
    22   12   21 1   
    23   13   14 ar  
    24   14   15 ar  
    25   14   22 1   
    26   15   23 1   
@<TRIPOS>SUBSTRUCTURE
     1 LL1         1 TEMP              0 ****  ****    0 ROOT
