@<TRIPOS>MOLECULE
LL2
   23    19     1     0     0
SMALL
bcc


@<TRIPOS>ATOM
      1 C8          1.2740   -0.6360   -1.8890 c1        1 LL2     -0.116000
      2 C11         2.6600   -0.6190   -1.9310 c1        1 LL2     -0.128250
      3 C13         3.3920   -0.9200   -0.7940 c1        1 LL2     -0.128250
      4 C12         2.7390   -1.2380    0.3860 c1        1 LL2     -0.128250
      5 C9          1.3540   -1.2560    0.4290 c1        1 LL2     -0.128250
      6 C5          0.6210   -0.9550   -0.7080 c1        1 LL2     -0.080000
      7 C2         -0.8890   -1.0560   -0.6840 c3        1 LL2     -0.048000
      8 C1         -1.4660    0.1720   -0.0120 c2        1 LL2     -0.403000
      9 S4         -1.6920    0.3510    1.4860 ss        1 LL2      0.480000
     10 C3         -2.0130    1.3270   -0.6820 c1        1 LL2     -0.114000
     11 N6         -2.6130    2.2890    0.4030 n2        1 LL2     -0.165000
     12 C7         -2.4160    1.6990    1.6880 c1        1 LL2     -0.178000
     13 N10        -2.8790    2.2190    2.9250 n2        1 LL2     -0.283000
     14 H8          0.7580   -0.4240   -2.6900 ha        1 LL2      0.137000
     15 H11         3.1190   -0.3950   -2.7630 ha        1 LL2      0.131250
     16 H13         4.3680   -0.9080   -0.8240 ha        1 LL2      0.131250
     17 H12         3.2550   -1.4500    1.1880 ha        1 LL2      0.131250
     18 H9          0.8940   -1.4800    1.2610 ha        1 LL2      0.131250
     19 H2         -1.2270   -1.1160   -1.5990 hc        1 LL2      0.100000
     20 H2A        -1.1540   -1.8550   -0.1860 hc        1 LL2      0.100000
     21 H3         -2.0100    1.4830   -1.6460 DU        1 LL2      0.179000
     22 HN10       -3.1520    3.0900    2.9810 hn        1 LL2      0.189500
     23 HN1A       -2.9230    1.6780    3.6600 hn        1 LL2      0.189500
@<TRIPOS>BOND
     1    1    6 1   
     2    1   14 1   
     3    2    3 1   
     4    2   15 1   
     5    3   16 1   
     6    4    5 1   
     7    4   17 1   
     8    5   18 1   
     9    6    7 1   
    10    7    8 1   
    11    7   19 1   
    12    7   20 1   
    13    8    9 1   
    14    8   10 1   
    15    9   12 1   
    16   10   11 1   
    17   11   12 1   
    18   13   22 1   
    19   13   23 1   
@<TRIPOS>SUBSTRUCTURE
     1 LL2         1 TEMP              0 ****  ****    0 ROOT
