@<TRIPOS>MOLECULE
LL2
   23    24     1     0     0
SMALL
bcc


@<TRIPOS>ATOM
      1 C8          0.0780    0.4320   -0.0910 ca        1 LL2     -0.123000
      2 C11         1.4710    0.4790   -0.0300 ca        1 LL2     -0.128500
      3 C13         2.1380    0.0220    1.1050 ca        1 LL2     -0.130000
      4 C12         1.4100   -0.4840    2.1830 ca        1 LL2     -0.128500
      5 C9          0.0180   -0.5300    2.1250 ca        1 LL2     -0.123000
      6 C5         -0.6570   -0.0730    0.9870 ca        1 LL2     -0.084300
      7 C2         -2.1490   -0.0930    0.9370 c3        1 LL2      0.045200
      8 C1         -2.7210   -1.4340    1.1450 cc        1 LL2     -0.203700
      9 S4         -2.7880   -2.6390   -0.0320 ss        1 LL2     -0.110300
     10 C3         -3.2980   -1.8880    2.3250 cd        1 LL2      0.352200
     11 N6         -3.7650   -3.1850    2.3140 nd        1 LL2     -0.691000
     12 C7         -3.5610   -3.7260    1.0930 cc        1 LL2      0.596300
     13 N10        -4.0020   -4.9790    0.6590 nh        1 LL2     -0.885500
     14 H8         -0.4420    0.7950   -0.9900 ha        1 LL2      0.133000
     15 H11         2.0420    0.8770   -0.8810 ha        1 LL2      0.131500
     16 H13         3.2360    0.0590    1.1520 ha        1 LL2      0.131000
     17 H12         1.9330   -0.8460    3.0790 ha        1 LL2      0.131500
     18 H9         -0.5590   -0.9330    2.9710 ha        1 LL2      0.133000
     19 H2         -2.5020    0.3170   -0.0500 hc        1 LL2      0.061200
     20 H2A        -2.5400    0.6000    1.7360 hc        1 LL2      0.061200
     21 H3         -3.4010   -1.3080    3.2500 h4        1 LL2      0.042100
     22 HN10       -4.5080   -5.4920    1.3550 hn        1 LL2      0.394300
     23 HN1A       -3.2630   -5.5230    0.2630 hn        1 LL2      0.394300
@<TRIPOS>BOND
     1    1    2 ar  
     2    1    6 ar  
     3    1   14 1   
     4    2    3 ar  
     5    2   15 1   
     6    3    4 ar  
     7    3   16 1   
     8    4    5 ar  
     9    4   17 1   
    10    5    6 ar  
    11    5   18 1   
    12    6    7 1   
    13    7    8 1   
    14    7   19 1   
    15    7   20 1   
    16    8    9 1   
    17    8   10 2   
    18    9   12 1   
    19   10   11 1   
    20   10   21 1   
    21   11   12 2   
    22   12   13 1   
    23   13   22 1   
    24   13   23 1   
@<TRIPOS>SUBSTRUCTURE
     1 LL2         1 TEMP              0 ****  ****    0 ROOT
