@<TRIPOS>MOLECULE
LL2
   23    24     1     0     0
SMALL
bcc


@<TRIPOS>ATOM
      1 C8          0.0790    0.4370   -0.0900 ca        1 LL2     -0.123000
      2 C11         1.4720    0.4850   -0.0280 ca        1 LL2     -0.128500
      3 C13         2.1380    0.0230    1.1060 ca        1 LL2     -0.130000
      4 C12         1.4080   -0.4880    2.1800 ca        1 LL2     -0.128500
      5 C9          0.0170   -0.5360    2.1200 ca        1 LL2     -0.123000
      6 C5         -0.6570   -0.0740    0.9840 ca        1 LL2     -0.083300
      7 C2         -2.1490   -0.0940    0.9320 c3        1 LL2      0.045200
      8 C1         -2.7210   -1.4340    1.1430 cc        1 LL2     -0.203700
      9 S4         -2.7910   -2.6420   -0.0310 ss        1 LL2     -0.110300
     10 C3         -3.2960   -1.8870    2.3250 cd        1 LL2      0.352200
     11 N6         -3.7630   -3.1830    2.3180 nd        1 LL2     -0.691000
     12 C7         -3.5620   -3.7270    1.0970 cc        1 LL2      0.596300
     13 N10        -4.0040   -4.9800    0.6660 nv        1 LL2     -0.885500
     14 H8         -0.4400    0.8040   -0.9880 ha        1 LL2      0.133000
     15 H11         2.0440    0.8880   -0.8760 ha        1 LL2      0.131500
     16 H13         3.2360    0.0600    1.1550 ha        1 LL2      0.131000
     17 H12         1.9310   -0.8540    3.0760 ha        1 LL2      0.131500
     18 H9         -0.5610   -0.9430    2.9640 ha        1 LL2      0.133000
     19 H2         -2.5010    0.3120   -0.0570 hc        1 LL2      0.061200
     20 H2A        -2.5410    0.6010    1.7280 hc        1 LL2      0.061200
     21 H3         -3.3970   -1.3040    3.2490 h4        1 LL2      0.042100
     22 HN10       -4.5080   -5.4920    1.3630 hn        1 LL2      0.394300
     23 HN1A       -3.2650   -5.5250    0.2700 hn        1 LL2      0.394300
@<TRIPOS>BOND
     1    1    2 ar  
     2    1    6 ar  
     3    1   14 1   
     4    2    3 ar  
     5    2   15 1   
     6    3    4 ar  
     7    3   16 1   
     8    4    5 ar  
     9    4   17 1   
    10    5    6 ar  
    11    5   18 1   
    12    6    7 1   
    13    7    8 1   
    14    7   19 1   
    15    7   20 1   
    16    8    9 1   
    17    8   10 2   
    18    9   12 1   
    19   10   11 1   
    20   10   21 1   
    21   11   12 2   
    22   12   13 1   
    23   13   22 1   
    24   13   23 1   
@<TRIPOS>SUBSTRUCTURE
     1 LL2         1 TEMP              0 ****  ****    0 ROOT
