@<TRIPOS>MOLECULE
LL2
   24    25     1     0     0
SMALL
bcc


@<TRIPOS>ATOM
      1 C8         -0.1210    0.2220    0.0850 ca        1 LL2     -0.120000
      2 C11         1.2480    0.2280   -0.1760 ca        1 LL2     -0.123000
      3 C13         2.1540   -0.1060    0.8310 ca        1 LL2     -0.104000
      4 C12         1.6880   -0.4430    2.1030 ca        1 LL2     -0.123000
      5 C9          0.3200   -0.4500    2.3670 ca        1 LL2     -0.120000
      6 C5         -0.5930   -0.1270    1.3560 ca        1 LL2     -0.148300
      7 C2         -2.0540   -0.0920    1.6480 c3        1 LL2      0.018200
      8 C1         -2.7180   -1.3840    1.3960 cc        1 LL2     -0.136700
      9 S4         -1.9660   -2.7540    0.8470 ss        1 LL2      0.184700
     10 C3         -4.0980   -1.6210    1.5920 cd        1 LL2      0.337200
     11 N6         -4.5160   -2.8800    1.3020 nd        1 LL2     -0.565000
     12 C7         -3.4380   -3.6110    0.8790 cc        1 LL2      0.244300
     13 N10        -3.6010   -5.0010    0.5010 n4        1 LL2     -0.761300
     14 H8         -0.8300    0.5110   -0.7070 ha        1 LL2      0.138000
     15 H11         1.6150    0.5100   -1.1750 ha        1 LL2      0.150000
     16 H13         3.2360   -0.0920    0.6260 ha        1 LL2      0.151000
     17 H12         2.4030   -0.6900    2.9040 ha        1 LL2      0.150000
     18 H9         -0.0410   -0.6910    3.3790 ha        1 LL2      0.138000
     19 H2         -2.5530    0.7010    1.0190 hc        1 LL2      0.097700
     20 H2A        -2.2230    0.1980    2.7260 hc        1 LL2      0.097700
     21 H3         -4.8270   -0.8790    1.9520 h4        1 LL2      0.087100
     22 HN10       -2.6970   -5.3860    0.2150 hn        1 LL2      0.469467
     23 HN1A       -3.9690   -5.5380    1.2990 hn        1 LL2      0.469467
     24 H103       -4.2700   -5.0740   -0.2790 hn        1 LL2      0.469467
@<TRIPOS>BOND
     1    1    2 ar  
     2    1    6 ar  
     3    1   14 1   
     4    2    3 ar  
     5    2   15 1   
     6    3    4 ar  
     7    3   16 1   
     8    4    5 ar  
     9    4   17 1   
    10    5    6 ar  
    11    5   18 1   
    12    6    7 1   
    13    7    8 1   
    14    7   19 1   
    15    7   20 1   
    16    8    9 1   
    17    8   10 2   
    18    9   12 1   
    19   10   11 1   
    20   10   21 1   
    21   11   12 2   
    22   12   13 1   
    23   13   22 1   
    24   13   23 1   
    25   13   24 1   
@<TRIPOS>SUBSTRUCTURE
     1 LL2         1 TEMP              0 ****  ****    0 ROOT
