@<TRIPOS>MOLECULE
LL2
   23    24     1     0     0
SMALL
bcc


@<TRIPOS>ATOM
      1 C8         -2.4130   -1.1450    0.7430 ca        1 LL2     -0.122500
      2 C11        -3.5270   -1.3430   -0.0710 ca        1 LL2     -0.128500
      3 C13        -3.8640   -0.3990   -1.0400 ca        1 LL2     -0.130000
      4 C12        -3.0830    0.7480   -1.1930 ca        1 LL2     -0.128500
      5 C9         -1.9700    0.9490   -0.3800 ca        1 LL2     -0.122500
      6 C5         -1.6260    0.0030    0.5940 ca        1 LL2     -0.084300
      7 C2         -0.4520    0.2320    1.4860 c3        1 LL2      0.045200
      8 C1          0.8190    0.3710    0.7550 cc        1 LL2     -0.203700
      9 S4          1.6470   -0.9000    0.0200 ss        1 LL2     -0.109300
     10 C3          1.5210    1.5580    0.5840 cd        1 LL2      0.352200
     11 N6          2.6900    1.4760   -0.1420 nd        1 LL2     -0.691000
     12 C7          2.8970    0.1930   -0.5160 cc        1 LL2      0.595300
     13 N10         4.0290   -0.3060   -1.1640 nh        1 LL2     -0.885500
     14 H8         -2.1530   -1.8940    1.5060 ha        1 LL2      0.133500
     15 H11        -4.1400   -2.2480    0.0520 ha        1 LL2      0.131500
     16 H13        -4.7430   -0.5560   -1.6810 ha        1 LL2      0.131000
     17 H12        -3.3460    1.4950   -1.9560 ha        1 LL2      0.131500
     18 H9         -1.3510    1.8510   -0.5010 ha        1 LL2      0.133500
     19 H2         -0.6360    1.1710    2.0820 hc        1 LL2      0.060700
     20 H2A        -0.3660   -0.6110    2.2270 hc        1 LL2      0.060700
     21 H3          1.2190    2.5390    0.9700 h4        1 LL2      0.042100
     22 HN10        3.7940   -0.8310   -1.9820 hn        1 LL2      0.394300
     23 HN1A        4.7240    0.3890   -1.3570 hn        1 LL2      0.394300
@<TRIPOS>BOND
     1    1    2 ar  
     2    1    6 ar  
     3    1   14 1   
     4    2    3 ar  
     5    2   15 1   
     6    3    4 ar  
     7    3   16 1   
     8    4    5 ar  
     9    4   17 1   
    10    5    6 ar  
    11    5   18 1   
    12    6    7 1   
    13    7    8 1   
    14    7   19 1   
    15    7   20 1   
    16    8    9 1   
    17    8   10 2   
    18    9   12 1   
    19   10   11 1   
    20   10   21 1   
    21   11   12 2   
    22   12   13 1   
    23   13   22 1   
    24   13   23 1   
@<TRIPOS>SUBSTRUCTURE
     1 LL2         1 TEMP              0 ****  ****    0 ROOT
