@<TRIPOS>MOLECULE
LL3
   44    47     1     0     0
SMALL
bcc


@<TRIPOS>ATOM
      1 C34        -0.0080    0.6060    0.2980 ca        1 LL3     -0.109500
      2 C43         1.3780    0.7330    0.3670 ca        1 LL3     -0.132500
      3 C41         2.0790    0.1820    1.4400 ca        1 LL3     -0.124000
      4 C39         1.3900   -0.4990    2.4430 ca        1 LL3     -0.132500
      5 C37         0.0030   -0.6260    2.3780 ca        1 LL3     -0.109500
      6 C36        -0.7060   -0.0710    1.3060 ca        1 LL3     -0.085300
      7 C01        -2.1900   -0.1500    1.2460 c3        1 LL3     -0.097100
      8 C04        -2.7330   -1.5670    1.3410 c         1 LL3      0.657100
      9 O06        -2.0300   -2.5200    1.7260 o         1 LL3     -0.590100
     10 N05        -4.0470   -1.8060    0.9220 n         1 LL3     -0.466800
     11 C18        -4.6020   -3.1390    1.0520 c3        1 LL3      0.083000
     12 C15        -5.6470   -3.2790    2.1600 c3        1 LL3     -0.105900
     13 C07        -5.0420   -0.7610    0.8500 c3        1 LL3      0.083000
     14 C10        -6.1030   -0.8260    1.9530 c3        1 LL3     -0.105900
     15 C13        -6.7270   -2.2140    2.0080 c3        1 LL3     -0.090000
     16 C21        -7.6940   -2.3000    3.1340 cc        1 LL3      0.509700
     17 N25        -8.9800   -2.6270    3.1960 nd        1 LL3     -0.690000
     18 O22        -7.2150   -1.9880    4.4430 os        1 LL3     -0.143100
     19 N23        -8.2020   -2.1230    5.2990 nc        1 LL3     -0.363300
     20 C24        -9.2980   -2.5110    4.5880 cd        1 LL3      0.623500
     21 C26       -10.6100   -2.7800    5.1100 cd        1 LL3     -0.192600
     22 C27       -10.9770   -2.6830    6.4470 cc        1 LL3     -0.109000
     23 C29       -12.3500   -3.0170    6.6320 cc        1 LL3     -0.165000
     24 C31       -12.9550   -3.3500    5.4340 cd        1 LL3     -0.182100
     25 S33       -11.9050   -3.2600    4.1540 ss        1 LL3      0.119200
     26 H34        -0.5530    1.0400   -0.5530 ha        1 LL3      0.137000
     27 H43         1.9190    1.2660   -0.4280 ha        1 LL3      0.132500
     28 H41         3.1730    0.2820    1.4930 ha        1 LL3      0.131000
     29 H39         1.9390   -0.9430    3.2860 ha        1 LL3      0.132500
     30 H37        -0.5390   -1.1880    3.1540 ha        1 LL3      0.137000
     31 H01        -2.5460    0.3260    0.2920 hc        1 LL3      0.070700
     32 H01A       -2.6190    0.4340    2.1080 hc        1 LL3      0.070700
     33 H18        -3.7700   -3.8760    1.2420 h1        1 LL3      0.062450
     34 H18A       -5.0830   -3.3950    0.0640 h1        1 LL3      0.062450
     35 H15        -6.1040   -4.3000    2.0920 hc        1 LL3      0.066200
     36 H15A       -5.1620   -3.1840    3.1660 hc        1 LL3      0.066200
     37 H07        -5.5590   -0.8620   -0.1490 h1        1 LL3      0.062450
     38 H07A       -4.5620    0.2550    0.8840 h1        1 LL3      0.062450
     39 H10        -5.6470   -0.5790    2.9470 hc        1 LL3      0.066200
     40 H10A       -6.8900   -0.0600    1.7350 hc        1 LL3      0.066200
     41 H13        -7.2900   -2.4000    1.0470 hc        1 LL3      0.087700
     42 H27       -10.3090   -2.3890    7.2600 ha        1 LL3      0.168000
     43 H29       -12.8430   -3.0060    7.6060 ha        1 LL3      0.158000
     44 H31       -13.9990   -3.6410    5.3240 h4        1 LL3      0.174000
@<TRIPOS>BOND
     1    1    2 ar  
     2    1    6 ar  
     3    1   26 1   
     4    2    3 ar  
     5    2   27 1   
     6    3    4 ar  
     7    3   28 1   
     8    4    5 ar  
     9    4   29 1   
    10    5    6 ar  
    11    5   30 1   
    12    6    7 1   
    13    7    8 1   
    14    7   31 1   
    15    7   32 1   
    16    8    9 2   
    17    8   10 1   
    18   10   11 1   
    19   10   13 1   
    20   11   12 1   
    21   11   33 1   
    22   11   34 1   
    23   12   15 1   
    24   12   35 1   
    25   12   36 1   
    26   13   14 1   
    27   13   37 1   
    28   13   38 1   
    29   14   15 1   
    30   14   39 1   
    31   14   40 1   
    32   15   16 1   
    33   15   41 1   
    34   16   17 2   
    35   16   18 1   
    36   17   20 1   
    37   18   19 1   
    38   19   20 2   
    39   20   21 1   
    40   21   22 2   
    41   21   25 1   
    42   22   23 1   
    43   22   42 1   
    44   23   24 2   
    45   23   43 1   
    46   24   25 1   
    47   24   44 1   
@<TRIPOS>SUBSTRUCTURE
     1 LL3         1 TEMP              0 ****  ****    0 ROOT
