@<TRIPOS>MOLECULE
LL3
   44    41     1     0     0
SMALL
bcc


@<TRIPOS>ATOM
      1 C34         5.2280    0.4610   -2.6700 c1        1 LL3     -0.123000
      2 C43         6.6130    0.4510   -2.7190 c1        1 LL3     -0.121250
      3 C41         7.3310   -0.3680   -1.8620 c1        1 LL3     -0.121250
      4 C39         6.6640   -1.1770   -0.9560 c1        1 LL3     -0.121250
      5 C37         5.2790   -1.1670   -0.9070 c1        1 LL3     -0.121250
      6 C36         4.5610   -0.3480   -1.7640 c1        1 LL3     -0.078000
      7 C01         3.0480   -0.3990   -1.7680 c3        1 LL3     -0.133000
      8 C04         2.5030    0.6590   -0.8260 c2        1 LL3      0.301000
      9 O06         3.2660    1.3210   -0.1500 o         1 LL3     -0.351000
     10 N05         1.1080    0.9240   -0.7870 n         1 LL3     -0.325000
     11 C18         0.1330    0.1700   -1.5710 c3        1 LL3     -0.033000
     12 C15        -1.0000   -0.3610   -0.7210 c3        1 LL3     -0.184500
     13 C07         0.5200    1.9760    0.0420 c3        1 LL3     -0.033000
     14 C10        -0.6100    1.4610    0.9060 c3        1 LL3     -0.184500
     15 C13        -1.6250    0.7050    0.1170 c3        1 LL3     -0.035000
     16 C21        -2.6370    0.0470    1.0960 c2        1 LL3      0.023000
     17 N25        -3.9680    0.2770    1.1350 n2        1 LL3     -0.164000
     18 O22        -2.3450   -0.8670    2.0390 os        1 LL3     -0.086000
     19 N23        -3.5050   -1.2070    2.6680 n2        1 LL3     -0.028000
     20 C24        -4.5010   -0.5020    2.1100 c2        1 LL3     -0.010000
     21 C26        -5.8330   -0.5410    2.4820 c2        1 LL3     -0.355000
     22 C27        -6.7250   -1.6770    2.3440 c1        1 LL3     -0.109000
     23 C29        -8.1480   -1.2700    2.9290 c1        1 LL3     -0.165000
     24 C31        -8.0710    0.0980    3.4030 c1        1 LL3     -0.452000
     25 S33        -6.6300    0.6120    3.1460 ss        1 LL3      0.659000
     26 H34         4.7220    1.0380   -3.2740 ha        1 LL3      0.127000
     27 H43         7.0840    1.0220   -3.3580 ha        1 LL3      0.135750
     28 H41         8.3070   -0.3750   -1.8960 ha        1 LL3      0.135750
     29 H39         7.1700   -1.7540   -0.3520 ha        1 LL3      0.135750
     30 H37         4.8090   -1.7370   -0.2680 ha        1 LL3      0.135750
     31 H01         2.7190   -0.2310   -2.6740 hc        1 LL3      0.110000
     32 H01A        2.7510   -1.2830   -1.4720 hc        1 LL3      0.110000
     33 H18         0.5860   -0.5830   -2.0000 h1        1 LL3      0.101750
     34 H18A       -0.2360    0.7540   -2.2630 h1        1 LL3      0.101750
     35 H15        -0.6540   -1.0630   -0.1340 hc        1 LL3      0.105500
     36 H15A       -1.6830   -0.7440   -1.3060 hc        1 LL3      0.105500
     37 H07         0.1760    2.6830   -0.5410 h1        1 LL3      0.101750
     38 H07A        1.2150    2.3510    0.6190 h1        1 LL3      0.101750
     39 H10        -0.2400    0.8720    1.5930 hc        1 LL3      0.105500
     40 H10A       -1.0480    2.2210    1.3410 hc        1 LL3      0.105500
     41 H13        -2.1030    1.3270   -0.4650 hc        1 LL3      0.127000
     42 H27        -6.4920   -2.5430    1.9570 DU        1 LL3      0.166667
     43 H29        -8.9380   -1.8440    2.9640 DU        1 LL3      0.166667
     44 H31        -8.7980    0.6070    3.8110 DU        1 LL3      0.166667
@<TRIPOS>BOND
     1    1    6 1   
     2    1   26 1   
     3    2    3 1   
     4    2   27 1   
     5    3   28 1   
     6    4    5 1   
     7    4   29 1   
     8    5   30 1   
     9    6    7 1   
    10    7    8 1   
    11    7   31 1   
    12    7   32 1   
    13    8    9 1   
    14    8   10 1   
    15   10   11 1   
    16   10   13 1   
    17   11   12 1   
    18   11   33 1   
    19   11   34 1   
    20   12   15 1   
    21   12   35 1   
    22   12   36 1   
    23   13   14 1   
    24   13   37 1   
    25   13   38 1   
    26   14   15 1   
    27   14   39 1   
    28   14   40 1   
    29   15   16 1   
    30   15   41 1   
    31   16   17 1   
    32   16   18 1   
    33   17   20 1   
    34   18   19 1   
    35   19   20 1   
    36   20   21 1   
    37   21   22 1   
    38   21   25 1   
    39   22   23 1   
    40   23   24 1   
    41   24   25 1   
@<TRIPOS>SUBSTRUCTURE
     1 LL3         1 TEMP              0 ****  ****    0 ROOT
