@<TRIPOS>MOLECULE
LL3
   44    47     1     0     0
SMALL
bcc


@<TRIPOS>ATOM
      1 C34        -0.0090    0.6050    0.2950 ca        1 LL3     -0.109500
      2 C43         1.3770    0.7330    0.3650 ca        1 LL3     -0.132500
      3 C41         2.0780    0.1860    1.4400 ca        1 LL3     -0.124000
      4 C39         1.3880   -0.4930    2.4440 ca        1 LL3     -0.132500
      5 C37         0.0020   -0.6220    2.3780 ca        1 LL3     -0.109500
      6 C36        -0.7070   -0.0710    1.3040 ca        1 LL3     -0.085300
      7 C01        -2.1910   -0.1510    1.2430 c3        1 LL3     -0.097100
      8 C04        -2.7320   -1.5680    1.3410 c         1 LL3      0.657100
      9 O06        -2.0290   -2.5190    1.7300 o         1 LL3     -0.590100
     10 N05        -4.0470   -1.8090    0.9230 n         1 LL3     -0.466800
     11 C18        -4.6000   -3.1420    1.0550 c3        1 LL3      0.083000
     12 C15        -5.6460   -3.2810    2.1630 c3        1 LL3     -0.105900
     13 C07        -5.0420   -0.7650    0.8470 c3        1 LL3      0.083000
     14 C10        -6.1030   -0.8280    1.9500 c3        1 LL3     -0.105900
     15 C13        -6.7260   -2.2170    2.0090 c3        1 LL3     -0.090000
     16 C21        -7.6930   -2.3010    3.1340 cc        1 LL3      0.509700
     17 N25        -8.9790   -2.6290    3.1970 nd        1 LL3     -0.690000
     18 O22        -7.2150   -1.9840    4.4430 os        1 LL3     -0.143100
     19 N23        -8.2020   -2.1180    5.2980 nc        1 LL3     -0.363300
     20 C24        -9.2980   -2.5100    4.5890 cd        1 LL3      0.623500
     21 C26       -10.6090   -2.7790    5.1110 cd        1 LL3     -0.192600
     22 C27       -10.9770   -2.6780    6.4480 cc        1 LL3     -0.109000
     23 C29       -12.3490   -3.0130    6.6330 cc        1 LL3     -0.165000
     24 C31       -12.9530   -3.3510    5.4360 cd        1 LL3     -0.182100
     25 S33       -11.9030   -3.2640    4.1560 ss        1 LL3      0.119200
     26 H34        -0.5530    1.0360   -0.5580 ha        1 LL3      0.137000
     27 H43         1.9180    1.2650   -0.4310 ha        1 LL3      0.132500
     28 H41         3.1710    0.2870    1.4940 ha        1 LL3      0.131000
     29 H39         1.9370   -0.9340    3.2890 ha        1 LL3      0.132500
     30 H37        -0.5410   -1.1830    3.1550 ha        1 LL3      0.137000
     31 H01        -2.6220    0.4350    2.1030 hc        1 LL3      0.070700
     32 H01A       -2.5470    0.3220    0.2870 hc        1 LL3      0.070700
     33 H18        -3.7670   -3.8780    1.2470 h1        1 LL3      0.062450
     34 H18A       -5.0800   -3.4010    0.0680 h1        1 LL3      0.062450
     35 H15        -6.1010   -4.3020    2.0980 hc        1 LL3      0.066200
     36 H15A       -5.1610   -3.1820    3.1700 hc        1 LL3      0.066200
     37 H07        -5.5590   -0.8700   -0.1520 h1        1 LL3      0.062450
     38 H07A       -4.5630    0.2510    0.8790 h1        1 LL3      0.062450
     39 H10        -5.6490   -0.5790    2.9440 hc        1 LL3      0.066200
     40 H10A       -6.8910   -0.0630    1.7290 hc        1 LL3      0.066200
     41 H13        -7.2880   -2.4060    1.0480 hc        1 LL3      0.087700
     42 H27       -10.3090   -2.3810    7.2600 ha        1 LL3      0.168000
     43 H29       -12.8430   -3.0000    7.6060 ha        1 LL3      0.158000
     44 H31       -13.9970   -3.6440    5.3270 h4        1 LL3      0.174000
@<TRIPOS>BOND
     1    1    2 ar  
     2    1    6 ar  
     3    1   26 1   
     4    2    3 ar  
     5    2   27 1   
     6    3    4 ar  
     7    3   28 1   
     8    4    5 ar  
     9    4   29 1   
    10    5    6 ar  
    11    5   30 1   
    12    6    7 1   
    13    7    8 1   
    14    7   31 1   
    15    7   32 1   
    16    8    9 2   
    17    8   10 1   
    18   10   11 1   
    19   10   13 1   
    20   11   12 1   
    21   11   33 1   
    22   11   34 1   
    23   12   15 1   
    24   12   35 1   
    25   12   36 1   
    26   13   14 1   
    27   13   37 1   
    28   13   38 1   
    29   14   15 1   
    30   14   39 1   
    31   14   40 1   
    32   15   16 1   
    33   15   41 1   
    34   16   17 2   
    35   16   18 1   
    36   17   20 1   
    37   18   19 1   
    38   19   20 2   
    39   20   21 1   
    40   21   22 2   
    41   21   25 1   
    42   22   23 1   
    43   22   42 1   
    44   23   24 2   
    45   23   43 1   
    46   24   25 1   
    47   24   44 1   
@<TRIPOS>SUBSTRUCTURE
     1 LL3         1 TEMP              0 ****  ****    0 ROOT
