@<TRIPOS>MOLECULE
LL3
   44    47     1     0     0
SMALL
bcc


@<TRIPOS>ATOM
      1 C34         6.6280    0.3290    1.0720 ca        1 LL3     -0.109500
      2 C43         7.9150   -0.1410    0.8180 ca        1 LL3     -0.132500
      3 C41         8.1080   -1.2390   -0.0200 ca        1 LL3     -0.124000
      4 C39         7.0080   -1.8650   -0.6070 ca        1 LL3     -0.132500
      5 C37         5.7190   -1.3990   -0.3540 ca        1 LL3     -0.109500
      6 C36         5.5200   -0.3000    0.4900 ca        1 LL3     -0.085300
      7 C01         4.1490    0.1780    0.8150 c3        1 LL3     -0.097100
      8 C04         3.3100    0.5080   -0.4090 c         1 LL3      0.657100
      9 O06         3.6310    0.1340   -1.5520 o         1 LL3     -0.590100
     10 N05         2.1740    1.3080   -0.2400 n         1 LL3     -0.466800
     11 C18         1.3310    1.5930   -1.3850 c3        1 LL3      0.083000
     12 C15        -0.0130    0.8630   -1.3720 c3        1 LL3     -0.105900
     13 C07         1.5040    1.4500    1.0310 c3        1 LL3      0.083000
     14 C10         0.1640    0.7140    1.1210 c3        1 LL3     -0.105900
     15 C13        -0.7330    1.0980   -0.0490 c3        1 LL3     -0.090000
     16 C21        -1.9970    0.3180   -0.0070 cc        1 LL3      0.509700
     17 N25        -3.2770    0.6750    0.0140 nd        1 LL3     -0.690000
     18 O22        -1.8960   -1.1070    0.0110 os        1 LL3     -0.143100
     19 N23        -3.1060   -1.6160    0.0440 nc        1 LL3     -0.363300
     20 C24        -3.9820   -0.5720    0.0460 cd        1 LL3      0.623500
     21 C26        -5.4170   -0.6530    0.0760 cd        1 LL3     -0.192600
     22 C27        -6.1530   -1.8310    0.1100 cc        1 LL3     -0.109000
     23 C29        -7.5520   -1.5650    0.1320 cc        1 LL3     -0.165000
     24 C31        -7.8090   -0.2060    0.1150 cd        1 LL3     -0.182100
     25 S33        -6.4180    0.6950    0.0720 ss        1 LL3      0.119200
     26 H34         6.4850    1.1980    1.7300 ha        1 LL3      0.137000
     27 H43         8.7800    0.3590    1.2780 ha        1 LL3      0.132500
     28 H41         9.1240   -1.6080   -0.2200 ha        1 LL3      0.131000
     29 H39         7.1570   -2.7250   -1.2760 ha        1 LL3      0.132500
     30 H37         4.8530   -1.8750   -0.8390 ha        1 LL3      0.137000
     31 H01         3.6100   -0.6280    1.3860 hc        1 LL3      0.070700
     32 H01A        4.2220    1.0840    1.4760 hc        1 LL3      0.070700
     33 H18         1.1390    2.7050   -1.3870 h1        1 LL3      0.062450
     34 H18A        1.8800    1.3270   -2.3330 h1        1 LL3      0.062450
     35 H15        -0.6360    1.2460   -2.2200 hc        1 LL3      0.066200
     36 H15A        0.1410   -0.2370   -1.5260 hc        1 LL3      0.066200
     37 H07         2.1580    1.0920    1.8730 h1        1 LL3      0.062450
     38 H07A        1.3170    2.5530    1.1890 h1        1 LL3      0.062450
     39 H10         0.3270   -0.3960    1.1200 hc        1 LL3      0.066200
     40 H10A       -0.3290    0.9890    2.0890 hc        1 LL3      0.066200
     41 H13        -0.9920    2.1940    0.0340 hc        1 LL3      0.087700
     42 H27        -5.7260   -2.8370    0.1170 ha        1 LL3      0.168000
     43 H29        -8.3110   -2.3490    0.1600 ha        1 LL3      0.158000
     44 H31        -8.8040    0.2390    0.1260 h4        1 LL3      0.174000
@<TRIPOS>BOND
     1    1    2 ar  
     2    1    6 ar  
     3    1   26 1   
     4    2    3 ar  
     5    2   27 1   
     6    3    4 ar  
     7    3   28 1   
     8    4    5 ar  
     9    4   29 1   
    10    5    6 ar  
    11    5   30 1   
    12    6    7 1   
    13    7    8 1   
    14    7   31 1   
    15    7   32 1   
    16    8    9 2   
    17    8   10 1   
    18   10   11 1   
    19   10   13 1   
    20   11   12 1   
    21   11   33 1   
    22   11   34 1   
    23   12   15 1   
    24   12   35 1   
    25   12   36 1   
    26   13   14 1   
    27   13   37 1   
    28   13   38 1   
    29   14   15 1   
    30   14   39 1   
    31   14   40 1   
    32   15   16 1   
    33   15   41 1   
    34   16   17 2   
    35   16   18 1   
    36   17   20 1   
    37   18   19 1   
    38   19   20 2   
    39   20   21 1   
    40   21   22 2   
    41   21   25 1   
    42   22   23 1   
    43   22   42 1   
    44   23   24 2   
    45   23   43 1   
    46   24   25 1   
    47   24   44 1   
@<TRIPOS>SUBSTRUCTURE
     1 LL3         1 TEMP              0 ****  ****    0 ROOT
