@<TRIPOS>MOLECULE
LL4
   46    48     1     0     0
SMALL
bcc


@<TRIPOS>ATOM
      1 CAV         7.4590   -1.1280   -1.3600 c3        1 LL4     -0.090600
      2 CAU         6.7590   -1.4720   -0.0620 c3        1 LL4     -0.068700
      3 CAW         7.7780   -1.8450    0.9960 c3        1 LL4     -0.090600
      4 CAT         5.9000   -0.3180    0.4320 c3        1 LL4     -0.072400
      5 CAS         4.6290   -0.1710   -0.3790 c3        1 LL4     -0.144400
      6 CAQ         3.7720    0.9570    0.1630 c         1 LL4      0.655100
      7 OAR         4.1020    1.5850    1.1880 o         1 LL4     -0.599100
      8 NAN         2.6310    1.3440   -0.5450 n         1 LL4     -0.465800
      9 CAO         1.7300    2.3220    0.0310 c3        1 LL4      0.083500
     10 CAP         0.3940    1.7410    0.4970 c3        1 LL4     -0.105400
     11 CAM         2.0290    0.5190   -1.5650 c3        1 LL4      0.083500
     12 CAL         0.7040   -0.1250   -1.1470 c3        1 LL4     -0.105400
     13 CAK        -0.2570    0.9360   -0.6230 c3        1 LL4     -0.090000
     14 CAH        -1.5100    0.3020   -0.1370 cc        1 LL4      0.509700
     15 NAG        -2.7900    0.4810   -0.4440 nd        1 LL4     -0.690000
     16 OAI        -1.3940   -0.7100    0.8660 os        1 LL4     -0.142100
     17 NAJ        -2.5960   -1.1450    1.1680 nc        1 LL4     -0.363300
     18 CAF        -3.4800   -0.4500    0.3980 cd        1 LL4      0.623500
     19 CAE        -4.9110   -0.5910    0.3920 cd        1 LL4     -0.191600
     20 CAD        -5.6340   -1.4760    1.1820 cc        1 LL4     -0.110000
     21 CAC        -7.0320   -1.3670    0.9350 cc        1 LL4     -0.165000
     22 CAB        -7.3020   -0.4100   -0.0260 cd        1 LL4     -0.182100
     23 SAA        -5.9240    0.3160   -0.5940 ss        1 LL4      0.119200
     24 HAV         6.7150   -0.8980   -2.1610 hc        1 LL4      0.034700
     25 HAVA        8.1200   -0.2380   -1.2260 hc        1 LL4      0.034700
     26 HAVB        8.0880   -1.9870   -1.6990 hc        1 LL4      0.034700
     27 HAU         6.0930   -2.3640   -0.2410 hc        1 LL4      0.042700
     28 HAW         8.4340   -0.9730    1.2310 hc        1 LL4      0.034700
     29 HAWA        7.2660   -2.1650    1.9350 hc        1 LL4      0.034700
     30 HAWB        8.4190   -2.6850    0.6360 hc        1 LL4      0.034700
     31 HAT         5.6280   -0.4830    1.5090 hc        1 LL4      0.060700
     32 HATA        6.4840    0.6390    0.3900 hc        1 LL4      0.060700
     33 HAS         4.8860    0.0360   -1.4520 hc        1 LL4      0.063700
     34 HASA        4.0410   -1.1260   -0.3350 hc        1 LL4      0.063700
     35 HAO         2.2330    2.8260    0.9060 h1        1 LL4      0.062450
     36 HAOA        1.5310    3.1020   -0.7600 h1        1 LL4      0.062450
     37 HAP         0.5470    1.0840    1.3920 hc        1 LL4      0.065950
     38 HAPA       -0.2770    2.5860    0.7990 hc        1 LL4      0.065950
     39 HAM         1.8350    1.1820   -2.4590 h1        1 LL4      0.062450
     40 HAMA        2.7330   -0.2930   -1.8920 h1        1 LL4      0.062450
     41 HAL         0.2590   -0.6380   -2.0380 hc        1 LL4      0.065950
     42 HALA        0.8780   -0.8980   -0.3540 hc        1 LL4      0.065950
     43 HAK        -0.5220    1.6370   -1.4680 hc        1 LL4      0.086700
     44 HAD        -5.1970   -2.1710    1.9040 ha        1 LL4      0.168000
     45 HAC        -7.7810   -1.9720    1.4500 ha        1 LL4      0.158000
     46 HAB        -8.2990   -0.1480   -0.3810 h4        1 LL4      0.174000
@<TRIPOS>BOND
     1    1    2 1   
     2    1   24 1   
     3    1   25 1   
     4    1   26 1   
     5    2    3 1   
     6    2    4 1   
     7    2   27 1   
     8    3   28 1   
     9    3   29 1   
    10    3   30 1   
    11    4    5 1   
    12    4   31 1   
    13    4   32 1   
    14    5    6 1   
    15    5   33 1   
    16    5   34 1   
    17    6    7 2   
    18    6    8 1   
    19    8    9 1   
    20    8   11 1   
    21    9   10 1   
    22    9   35 1   
    23    9   36 1   
    24   10   13 1   
    25   10   37 1   
    26   10   38 1   
    27   11   12 1   
    28   11   39 1   
    29   11   40 1   
    30   12   13 1   
    31   12   41 1   
    32   12   42 1   
    33   13   14 1   
    34   13   43 1   
    35   14   15 2   
    36   14   16 1   
    37   15   18 1   
    38   16   17 1   
    39   17   18 2   
    40   18   19 1   
    41   19   20 2   
    42   19   23 1   
    43   20   21 1   
    44   20   44 1   
    45   21   22 2   
    46   21   45 1   
    47   22   23 1   
    48   22   46 1   
@<TRIPOS>SUBSTRUCTURE
     1 LL4         1 TEMP              0 ****  ****    0 ROOT
