@<TRIPOS>MOLECULE
LL4
   46    48     1     0     0
SMALL
bcc


@<TRIPOS>ATOM
      1 CAV         0.2430    0.0010    0.2990 c3        1 LL4     -0.090600
      2 CAU         1.6900    0.0680   -0.1420 c3        1 LL4     -0.068700
      3 CAW         2.5900    0.2930    1.0570 c3        1 LL4     -0.090600
      4 CAT         2.1100   -1.1990   -0.8720 c3        1 LL4     -0.072400
      5 CAS         1.5380   -1.2590   -2.2730 c3        1 LL4     -0.144400
      6 CAQ         2.0080   -2.5090   -2.9940 c         1 LL4      0.655100
      7 OAR         2.8170   -3.2950   -2.4630 o         1 LL4     -0.599100
      8 NAN         1.4660   -2.8180   -4.2450 n         1 LL4     -0.465800
      9 CAO         2.0050   -3.9290   -5.0020 c3        1 LL4      0.083500
     10 CAP         2.8130   -3.5100   -6.2330 c3        1 LL4     -0.105400
     11 CAM         0.7500   -1.8520   -5.0440 c3        1 LL4      0.083500
     12 CAL         1.5220   -1.3630   -6.2730 c3        1 LL4     -0.105400
     13 CAK         2.0060   -2.5490   -7.0980 c3        1 LL4     -0.090000
     14 CAH         2.8290   -2.0780   -8.2430 cc        1 LL4      0.509700
     15 NAG         2.7370   -2.2630   -9.5560 nd        1 LL4     -0.690000
     16 OAI         3.9640   -1.2620   -7.9520 os        1 LL4     -0.142100
     17 NAJ         4.5620   -0.9510   -9.0790 nc        1 LL4     -0.363300
     18 CAF         3.8530   -1.5370  -10.0850 cd        1 LL4      0.623500
     19 CAE         4.1410   -1.4690  -11.4920 cd        1 LL4     -0.191600
     20 CAD         5.2050   -0.7800  -12.0620 cc        1 LL4     -0.110000
     21 CAC         5.2060   -0.9130  -13.4800 cc        1 LL4     -0.165000
     22 CAB         4.1500   -1.6920  -13.9160 cd        1 LL4     -0.182100
     23 SAA         3.2080   -2.2310  -12.6630 ss        1 LL4      0.119200
     24 HAV        -0.4330   -0.1160   -0.5820 hc        1 LL4      0.034700
     25 HAVA        0.0810   -0.8640    0.9860 hc        1 LL4      0.034700
     26 HAVB       -0.0400    0.9380    0.8380 hc        1 LL4      0.034700
     27 HAU         1.8100    0.9430   -0.8420 hc        1 LL4      0.042700
     28 HAW         2.5290   -0.5740    1.7590 hc        1 LL4      0.034700
     29 HAWA        2.2810    1.2150    1.6050 hc        1 LL4      0.034700
     30 HAWB        3.6520    0.4110    0.7320 hc        1 LL4      0.034700
     31 HAT         3.2300   -1.2460   -0.9340 hc        1 LL4      0.060700
     32 HATA        1.7790   -2.1020   -0.2940 hc        1 LL4      0.060700
     33 HAS         0.4170   -1.2540   -2.2260 hc        1 LL4      0.063700
     34 HASA        1.8700   -0.3590   -2.8560 hc        1 LL4      0.063700
     35 HAO         2.6600   -4.5570   -4.3330 h1        1 LL4      0.062450
     36 HAOA        1.1330   -4.5600   -5.3390 h1        1 LL4      0.062450
     37 HAP         3.0710   -4.4290   -6.8190 hc        1 LL4      0.065950
     38 HAPA        3.7720   -3.0200   -5.9200 hc        1 LL4      0.065950
     39 HAM        -0.2010   -2.3500   -5.3970 h1        1 LL4      0.062450
     40 HAMA        0.4570   -0.9590   -4.4280 h1        1 LL4      0.062450
     41 HAL         0.8430   -0.7190   -6.8890 hc        1 LL4      0.065950
     42 HALA        2.4000   -0.7390   -5.9600 hc        1 LL4      0.065950
     43 HAK         1.1090   -3.0960   -7.5110 hc        1 LL4      0.086700
     44 HAD         5.9500   -0.2080  -11.5040 ha        1 LL4      0.168000
     45 HAC         5.9560   -0.4510  -14.1240 ha        1 LL4      0.158000
     46 HAB         3.9440   -1.9340  -14.9590 h4        1 LL4      0.174000
@<TRIPOS>BOND
     1    1    2 1   
     2    1   24 1   
     3    1   25 1   
     4    1   26 1   
     5    2    3 1   
     6    2    4 1   
     7    2   27 1   
     8    3   28 1   
     9    3   29 1   
    10    3   30 1   
    11    4    5 1   
    12    4   31 1   
    13    4   32 1   
    14    5    6 1   
    15    5   33 1   
    16    5   34 1   
    17    6    7 2   
    18    6    8 1   
    19    8    9 1   
    20    8   11 1   
    21    9   10 1   
    22    9   35 1   
    23    9   36 1   
    24   10   13 1   
    25   10   37 1   
    26   10   38 1   
    27   11   12 1   
    28   11   39 1   
    29   11   40 1   
    30   12   13 1   
    31   12   41 1   
    32   12   42 1   
    33   13   14 1   
    34   13   43 1   
    35   14   15 2   
    36   14   16 1   
    37   15   18 1   
    38   16   17 1   
    39   17   18 2   
    40   18   19 1   
    41   19   20 2   
    42   19   23 1   
    43   20   21 1   
    44   20   44 1   
    45   21   22 2   
    46   21   45 1   
    47   22   23 1   
    48   22   46 1   
@<TRIPOS>SUBSTRUCTURE
     1 LL4         1 TEMP              0 ****  ****    0 ROOT
