@<TRIPOS>MOLECULE
LL4
   46    48     1     0     0
SMALL
bcc


@<TRIPOS>ATOM
      1 CAV         0.2250   -0.0080    0.2940 c3        1 LL4     -0.090600
      2 CAU         1.6690    0.0860   -0.1510 c3        1 LL4     -0.068700
      3 CAW         2.5670    0.3380    1.0430 c3        1 LL4     -0.090600
      4 CAT         2.1140   -1.1770   -0.8740 c3        1 LL4     -0.072400
      5 CAS         1.5400   -1.2590   -2.2730 c3        1 LL4     -0.144400
      6 CAQ         2.0340   -2.5030   -2.9870 c         1 LL4      0.655100
      7 OAR         2.8610   -3.2680   -2.4530 o         1 LL4     -0.599100
      8 NAN         1.4950   -2.8310   -4.2340 n         1 LL4     -0.465800
      9 CAO         2.0570   -3.9360   -4.9860 c3        1 LL4      0.083500
     10 CAP         2.8530   -3.5080   -6.2210 c3        1 LL4     -0.105400
     11 CAM         0.7570   -1.8870   -5.0380 c3        1 LL4      0.083500
     12 CAL         1.5160   -1.3890   -6.2720 c3        1 LL4     -0.105400
     13 CAK         2.0240   -2.5690   -7.0910 c3        1 LL4     -0.090000
     14 CAH         2.8340   -2.0880   -8.2410 cc        1 LL4      0.509700
     15 NAG         2.7440   -2.2840   -9.5520 nd        1 LL4     -0.690000
     16 OAI         3.9520   -1.2460   -7.9570 os        1 LL4     -0.142100
     17 NAJ         4.5410   -0.9290   -9.0870 nc        1 LL4     -0.363300
     18 CAF         3.8430   -1.5370  -10.0870 cd        1 LL4      0.623500
     19 CAE         4.1260   -1.4720  -11.4950 cd        1 LL4     -0.191600
     20 CAD         5.1740   -0.7650  -12.0720 cc        1 LL4     -0.110000
     21 CAC         5.1760   -0.9070  -13.4890 cc        1 LL4     -0.165000
     22 CAB         4.1360   -1.7110  -13.9180 cd        1 LL4     -0.182100
     23 SAA         3.2080   -2.2620  -12.6590 ss        1 LL4      0.119200
     24 HAV        -0.4510   -0.1460   -0.5840 hc        1 LL4      0.034700
     25 HAVA        0.0830   -0.8720    0.9880 hc        1 LL4      0.034700
     26 HAVB       -0.0760    0.9260    0.8280 hc        1 LL4      0.034700
     27 HAU         1.7680    0.9580   -0.8580 hc        1 LL4      0.042700
     28 HAW         3.6250    0.4760    0.7150 hc        1 LL4      0.034700
     29 HAWA        2.2400    1.2570    1.5860 hc        1 LL4      0.034700
     30 HAWB        2.5260   -0.5250    1.7510 hc        1 LL4      0.034700
     31 HAT         1.8040   -2.0820   -0.2890 hc        1 LL4      0.060700
     32 HATA        3.2340   -1.2000   -0.9390 hc        1 LL4      0.060700
     33 HAS         1.8510   -0.3550   -2.8630 hc        1 LL4      0.063700
     34 HASA        0.4190   -1.2770   -2.2230 hc        1 LL4      0.063700
     35 HAO         1.1970   -4.5870   -5.3160 h1        1 LL4      0.062450
     36 HAOA        2.7260   -4.5460   -4.3140 h1        1 LL4      0.062450
     37 HAP         3.1290   -4.4240   -6.8020 hc        1 LL4      0.065950
     38 HAPA        3.8010   -2.9950   -5.9130 hc        1 LL4      0.065950
     39 HAM        -0.1830   -2.4070   -5.3860 h1        1 LL4      0.062450
     40 HAMA        0.4470   -0.9960   -4.4260 h1        1 LL4      0.062450
     41 HAL         2.3810   -0.7440   -5.9650 hc        1 LL4      0.065950
     42 HALA        0.8220   -0.7640   -6.8900 hc        1 LL4      0.065950
     43 HAK         1.1380   -3.1380   -7.4980 hc        1 LL4      0.086700
     44 HAD         5.9080   -0.1730  -11.5190 ha        1 LL4      0.168000
     45 HAC         5.9150   -0.4330  -14.1380 ha        1 LL4      0.158000
     46 HAB         3.9340   -1.9640  -14.9590 h4        1 LL4      0.174000
@<TRIPOS>BOND
     1    1    2 1   
     2    1   24 1   
     3    1   25 1   
     4    1   26 1   
     5    2    3 1   
     6    2    4 1   
     7    2   27 1   
     8    3   28 1   
     9    3   29 1   
    10    3   30 1   
    11    4    5 1   
    12    4   31 1   
    13    4   32 1   
    14    5    6 1   
    15    5   33 1   
    16    5   34 1   
    17    6    7 2   
    18    6    8 1   
    19    8    9 1   
    20    8   11 1   
    21    9   10 1   
    22    9   35 1   
    23    9   36 1   
    24   10   13 1   
    25   10   37 1   
    26   10   38 1   
    27   11   12 1   
    28   11   39 1   
    29   11   40 1   
    30   12   13 1   
    31   12   41 1   
    32   12   42 1   
    33   13   14 1   
    34   13   43 1   
    35   14   15 2   
    36   14   16 1   
    37   15   18 1   
    38   16   17 1   
    39   17   18 2   
    40   18   19 1   
    41   19   20 2   
    42   19   23 1   
    43   20   21 1   
    44   20   44 1   
    45   21   22 2   
    46   21   45 1   
    47   22   23 1   
    48   22   46 1   
@<TRIPOS>SUBSTRUCTURE
     1 LL4         1 TEMP              0 ****  ****    0 ROOT
