@<TRIPOS>MOLECULE
LL5
   46    48     1     0     0
SMALL
bcc


@<TRIPOS>ATOM
      1 C22         0.5140    0.1830   -0.5100 c3        1 LL5     -0.118100
      2 C20         1.9050    0.1040    0.0870 c3        1 LL5     -0.080700
      3 C21         2.7460    1.2530   -0.4320 c3        1 LL5     -0.118100
      4 C19         1.8030    0.1060    1.6280 c3        1 LL5      0.047500
      5 N33         3.1420    0.3440    2.2770 n4        1 LL5     -0.838600
      6 C7          1.3110   -1.2900    2.1160 c         1 LL5      0.635100
      7 O32         2.1960   -2.1700    2.2250 o         1 LL5     -0.609100
      8 N1         -0.0110   -1.5400    2.3530 n         1 LL5     -0.416800
      9 C2         -0.3940   -2.7940    2.9970 c3        1 LL5      0.073500
     10 C3         -0.8890   -2.5950    4.4280 c3        1 LL5     -0.106400
     11 C6         -1.0600   -0.5390    2.3830 c3        1 LL5      0.073500
     12 C5         -1.5720   -0.2490    3.7930 c3        1 LL5     -0.106400
     13 C4         -1.9860   -1.5370    4.4990 c3        1 LL5     -0.086000
     14 C14        -2.3000   -1.2430    5.9210 cc        1 LL5      0.487700
     15 N23        -3.3670   -1.4620    6.6780 nd        1 LL5     -0.665000
     16 O26        -1.2830   -0.5990    6.6920 os        1 LL5     -0.164100
     17 N25        -1.7310   -0.4250    7.9170 nc        1 LL5     -0.365300
     18 C24        -2.9940   -0.9340    7.9600 cd        1 LL5      0.649500
     19 C27        -3.8710   -0.9660    9.0970 cd        1 LL5     -0.221600
     20 C31        -3.5600   -0.4680   10.3590 cc        1 LL5     -0.096000
     21 C30        -4.6400   -0.6520   11.2670 cc        1 LL5     -0.164000
     22 C29        -5.7130   -1.2760   10.6550 cd        1 LL5     -0.167100
     23 S28        -5.4180   -1.6190    9.0630 ss        1 LL5      0.133200
     24 H22        -0.1160   -0.6810   -0.1910 hc        1 LL5      0.061200
     25 H22A        0.0070    1.1350   -0.2170 hc        1 LL5      0.061200
     26 H22B        0.5910    0.1570   -1.6260 hc        1 LL5      0.061200
     27 H20         2.3790   -0.8710   -0.2290 hc        1 LL5      0.097700
     28 H21         3.8380    1.0710   -0.2820 hc        1 LL5      0.061200
     29 H21A        2.4570    2.2190    0.0480 hc        1 LL5      0.061200
     30 H21B        2.5850    1.3620   -1.5350 hc        1 LL5      0.061200
     31 H19         1.1350    0.9480    1.9690 hx        1 LL5      0.115700
     32 HN33        3.5890    1.1700    1.8690 hn        1 LL5      0.469800
     33 HN3A        3.7330   -0.4890    2.1210 hn        1 LL5      0.469800
     34 H2          0.4810   -3.5040    2.9990 h1        1 LL5      0.078700
     35 H2A        -1.2160   -3.2450    2.3700 h1        1 LL5      0.078700
     36 H3         -1.2880   -3.5770    4.7980 hc        1 LL5      0.076450
     37 H3A        -0.0390   -2.3010    5.0970 hc        1 LL5      0.076450
     38 H6         -1.9120   -0.9460    1.7610 h1        1 LL5      0.078700
     39 H6A        -0.7250    0.4180    1.9000 h1        1 LL5      0.078700
     40 H5         -0.7860    0.2750    4.3970 hc        1 LL5      0.076450
     41 H5A        -2.4550    0.4380    3.7130 hc        1 LL5      0.076450
     42 H4         -2.9160   -1.9420    4.0020 hc        1 LL5      0.098700
     43 H31        -2.6120    0.0040   10.6310 ha        1 LL5      0.168000
     44 H30        -4.6090   -0.3340   12.3110 ha        1 LL5      0.166000
     45 H29        -6.6530   -1.5230   11.1510 h4        1 LL5      0.183000
     46 H333        3.0220    0.4730    3.2850 hn        1 LL5      0.469800
@<TRIPOS>BOND
     1    1    2 1   
     2    1   24 1   
     3    1   25 1   
     4    1   26 1   
     5    2    3 1   
     6    2    4 1   
     7    2   27 1   
     8    3   28 1   
     9    3   29 1   
    10    3   30 1   
    11    4    5 1   
    12    4    6 1   
    13    4   31 1   
    14    5   32 1   
    15    5   33 1   
    16    5   46 1   
    17    6    7 2   
    18    6    8 1   
    19    8    9 1   
    20    8   11 1   
    21    9   10 1   
    22    9   34 1   
    23    9   35 1   
    24   10   13 1   
    25   10   36 1   
    26   10   37 1   
    27   11   12 1   
    28   11   38 1   
    29   11   39 1   
    30   12   13 1   
    31   12   40 1   
    32   12   41 1   
    33   13   14 1   
    34   13   42 1   
    35   14   15 2   
    36   14   16 1   
    37   15   18 1   
    38   16   17 1   
    39   17   18 2   
    40   18   19 1   
    41   19   20 2   
    42   19   23 1   
    43   20   21 1   
    44   20   43 1   
    45   21   22 2   
    46   21   44 1   
    47   22   23 1   
    48   22   45 1   
@<TRIPOS>SUBSTRUCTURE
     1 LL5         1 TEMP              0 ****  ****    0 ROOT
