@<TRIPOS>MOLECULE
LL5
   46    48     1     0     0
SMALL
bcc


@<TRIPOS>ATOM
      1 C22         0.5250    0.1750   -0.5090 c3        1 LL5     -0.118100
      2 C20         1.9150    0.0950    0.0920 c3        1 LL5     -0.080700
      3 C21         2.7580    1.2430   -0.4260 c3        1 LL5     -0.118100
      4 C19         1.8080    0.0990    1.6320 c3        1 LL5      0.047500
      5 N33         3.1450    0.3370    2.2850 nz        1 LL5     -0.838600
      6 C7          1.3130   -1.2950    2.1200 c         1 LL5      0.635100
      7 O32         2.1970   -2.1760    2.2330 o         1 LL5     -0.609100
      8 N1         -0.0090   -1.5440    2.3540 n         1 LL5     -0.416800
      9 C2         -0.3960   -2.7960    3.0000 c3        1 LL5      0.073000
     10 C3         -0.8940   -2.5950    4.4300 c3        1 LL5     -0.106400
     11 C6         -1.0570   -0.5420    2.3810 c3        1 LL5      0.073000
     12 C5         -1.5730   -0.2480    3.7900 c3        1 LL5     -0.106400
     13 C4         -1.9890   -1.5350    4.4960 c3        1 LL5     -0.086000
     14 C14        -2.3050   -1.2390    5.9180 cc        1 LL5      0.487700
     15 N23        -3.3730   -1.4550    6.6730 nd        1 LL5     -0.665000
     16 O26        -1.2890   -0.5940    6.6890 os        1 LL5     -0.164100
     17 N25        -1.7380   -0.4170    7.9130 nc        1 LL5     -0.365300
     18 C24        -3.0020   -0.9250    7.9550 cd        1 LL5      0.649500
     19 C27        -3.8800   -0.9530    9.0900 cd        1 LL5     -0.221600
     20 C31        -3.5710   -0.4540   10.3530 cc        1 LL5     -0.096000
     21 C30        -4.6530   -0.6350   11.2580 cc        1 LL5     -0.164000
     22 C29        -5.7260   -1.2590   10.6460 cd        1 LL5     -0.167100
     23 S28        -5.4280   -1.6050    9.0550 ss        1 LL5      0.133200
     24 H22         0.6050    0.1470   -1.6250 hc        1 LL5      0.061200
     25 H22A       -0.1060   -0.6890   -0.1910 hc        1 LL5      0.061200
     26 H22B        0.0190    1.1270   -0.2190 hc        1 LL5      0.061200
     27 H20         2.3890   -0.8810   -0.2210 hc        1 LL5      0.097700
     28 H21         2.6000    1.3510   -1.5300 hc        1 LL5      0.061200
     29 H21A        2.4690    2.2100    0.0520 hc        1 LL5      0.061200
     30 H21B        3.8490    1.0600   -0.2730 hc        1 LL5      0.061200
     31 H19         1.1390    0.9420    1.9700 hx        1 LL5      0.115700
     32 HN33        3.5940    1.1620    1.8770 hn        1 LL5      0.469800
     33 HN3A        3.7360   -0.4960    2.1320 hn        1 LL5      0.469800
     34 H2         -1.2170   -3.2480    2.3720 h1        1 LL5      0.078700
     35 H2A         0.4790   -3.5070    3.0040 h1        1 LL5      0.078700
     36 H3         -0.0440   -2.3000    5.1000 hc        1 LL5      0.076450
     37 H3A        -1.2940   -3.5750    4.8000 hc        1 LL5      0.076450
     38 H6         -1.9090   -0.9490    1.7570 h1        1 LL5      0.078700
     39 H6A        -0.7200    0.4140    1.8960 h1        1 LL5      0.078700
     40 H5         -0.7870    0.2760    4.3940 hc        1 LL5      0.076450
     41 H5A        -2.4550    0.4390    3.7060 hc        1 LL5      0.076450
     42 H4         -2.9180   -1.9400    3.9990 hc        1 LL5      0.098700
     43 H31        -2.6230    0.0170   10.6250 ha        1 LL5      0.168000
     44 H30        -4.6220   -0.3160   12.3030 ha        1 LL5      0.166000
     45 H29        -6.6670   -1.5030   11.1410 h4        1 LL5      0.183000
     46 H333        3.0220    0.4680    3.2920 hn        1 LL5      0.469800
@<TRIPOS>BOND
     1    1    2 1   
     2    1   24 1   
     3    1   25 1   
     4    1   26 1   
     5    2    3 1   
     6    2    4 1   
     7    2   27 1   
     8    3   28 1   
     9    3   29 1   
    10    3   30 1   
    11    4    5 1   
    12    4    6 1   
    13    4   31 1   
    14    5   32 1   
    15    5   33 1   
    16    5   46 1   
    17    6    7 2   
    18    6    8 1   
    19    8    9 1   
    20    8   11 1   
    21    9   10 1   
    22    9   34 1   
    23    9   35 1   
    24   10   13 1   
    25   10   36 1   
    26   10   37 1   
    27   11   12 1   
    28   11   38 1   
    29   11   39 1   
    30   12   13 1   
    31   12   40 1   
    32   12   41 1   
    33   13   14 1   
    34   13   42 1   
    35   14   15 2   
    36   14   16 1   
    37   15   18 1   
    38   16   17 1   
    39   17   18 2   
    40   18   19 1   
    41   19   20 2   
    42   19   23 1   
    43   20   21 1   
    44   20   43 1   
    45   21   22 2   
    46   21   44 1   
    47   22   23 1   
    48   22   45 1   
@<TRIPOS>SUBSTRUCTURE
     1 LL5         1 TEMP              0 ****  ****    0 ROOT
