@<TRIPOS>MOLECULE
LL5
   45    47     1     0     0
SMALL
bcc


@<TRIPOS>ATOM
      1 C22        -5.4790   -2.1340   -0.1910 c3        1 LL5     -0.091100
      2 C20        -5.9700   -0.7940    0.3140 c3        1 LL5     -0.062700
      3 C21        -6.9610   -1.0090    1.4410 c3        1 LL5     -0.091100
      4 C19        -4.7800    0.0820    0.7720 c3        1 LL5      0.121500
      5 N33        -5.1950    1.2450    1.5310 n3        1 LL5     -0.888800
      6 C7         -3.9840    0.4970   -0.4950 c         1 LL5      0.614100
      7 O32        -4.4080    1.4600   -1.1700 o         1 LL5     -0.620100
      8 N1         -2.8360   -0.1640   -0.9030 n         1 LL5     -0.465800
      9 C2         -2.0110    0.4010   -1.9530 c3        1 LL5      0.088000
     10 C3         -0.6050    0.7820   -1.4830 c3        1 LL5     -0.102900
     11 C6         -2.2140   -1.2560   -0.1970 c3        1 LL5      0.088000
     12 C5         -0.8210   -0.9220    0.3440 c3        1 LL5     -0.102900
     13 C4          0.0640   -0.3920   -0.7780 c3        1 LL5     -0.090000
     14 C14         1.3860    0.0200   -0.2380 cc        1 LL5      0.508700
     15 N23         2.6300   -0.3580   -0.5110 nd        1 LL5     -0.689000
     16 O26         1.4010    1.0210    0.7810 os        1 LL5     -0.143100
     17 N25         2.6470    1.2530    1.1270 nc        1 LL5     -0.363300
     18 C24         3.4330    0.4390    0.3680 cd        1 LL5      0.624500
     19 C27         4.8670    0.3510    0.4050 cd        1 LL5     -0.192600
     20 C31         5.6960    1.0940    1.2370 cc        1 LL5     -0.109000
     21 C30         7.0660    0.7690    1.0260 cc        1 LL5     -0.165000
     22 C29         7.2120   -0.2000    0.0500 cd        1 LL5     -0.181100
     23 S28         5.7550   -0.6850   -0.5750 ss        1 LL5      0.119200
     24 H22        -4.9430   -2.6880    0.6170 hc        1 LL5      0.038867
     25 H22A       -6.3470   -2.7530   -0.5240 hc        1 LL5      0.038867
     26 H22B       -4.7880   -2.0100   -1.0590 hc        1 LL5      0.038867
     27 H20        -6.4900   -0.2560   -0.5290 hc        1 LL5      0.065700
     28 H21        -6.4360   -1.3560    2.3630 hc        1 LL5      0.038867
     29 H21A       -7.5090   -0.0670    1.6800 hc        1 LL5      0.038867
     30 H21B       -7.7110   -1.7830    1.1450 hc        1 LL5      0.038867
     31 H19        -4.1360   -0.5230    1.4730 h1        1 LL5      0.069700
     32 HN33       -4.4110    1.8430    1.7050 hn        1 LL5      0.360800
     33 HN3A       -5.8920    1.7630    1.0280 hn        1 LL5      0.360800
     34 H2         -1.9240   -0.3680   -2.7740 h1        1 LL5      0.062950
     35 H2A        -2.5140    1.3150   -2.3790 h1        1 LL5      0.062950
     36 H3         -0.0020    1.0850   -2.3770 hc        1 LL5      0.066200
     37 H3A        -0.6530    1.6590   -0.7860 hc        1 LL5      0.066200
     38 H6         -2.8600   -1.6160    0.6490 h1        1 LL5      0.062950
     39 H6A        -2.1140   -2.1150   -0.9270 h1        1 LL5      0.062950
     40 H5         -0.8910   -0.1580    1.1620 hc        1 LL5      0.066200
     41 H5A        -0.3740   -1.8530    0.7780 hc        1 LL5      0.066200
     42 H4          0.2330   -1.2180   -1.5290 hc        1 LL5      0.086700
     43 H31         5.3520    1.8350    1.9630 ha        1 LL5      0.169000
     44 H30         7.8850    1.2370    1.5760 ha        1 LL5      0.158000
     45 H29         8.1650   -0.6080   -0.2840 h4        1 LL5      0.175000
@<TRIPOS>BOND
     1    1    2 1   
     2    1   24 1   
     3    1   25 1   
     4    1   26 1   
     5    2    3 1   
     6    2    4 1   
     7    2   27 1   
     8    3   28 1   
     9    3   29 1   
    10    3   30 1   
    11    4    5 1   
    12    4    6 1   
    13    4   31 1   
    14    5   32 1   
    15    5   33 1   
    16    6    7 2   
    17    6    8 1   
    18    8    9 1   
    19    8   11 1   
    20    9   10 1   
    21    9   34 1   
    22    9   35 1   
    23   10   13 1   
    24   10   36 1   
    25   10   37 1   
    26   11   12 1   
    27   11   38 1   
    28   11   39 1   
    29   12   13 1   
    30   12   40 1   
    31   12   41 1   
    32   13   14 1   
    33   13   42 1   
    34   14   15 2   
    35   14   16 1   
    36   15   18 1   
    37   16   17 1   
    38   17   18 2   
    39   18   19 1   
    40   19   20 2   
    41   19   23 1   
    42   20   21 1   
    43   20   43 1   
    44   21   22 2   
    45   21   44 1   
    46   22   23 1   
    47   22   45 1   
@<TRIPOS>SUBSTRUCTURE
     1 LL5         1 TEMP              0 ****  ****    0 ROOT
