@<TRIPOS>MOLECULE
LL5
   45    44     1     0     0
SMALL
bcc


@<TRIPOS>ATOM
      1 C22        -4.5260   -0.5750   -3.6970 c3        1 LL5     -0.214500
      2 C20        -3.0550   -0.3470   -3.9760 c3        1 LL5     -0.135000
      3 C21        -2.9040    0.5230   -5.2050 c3        1 LL5     -0.214500
      4 C19        -2.4180    0.3410   -2.7900 c3        1 LL5     -0.043000
      5 N33        -2.6000    1.7460   -2.9020 n3        1 LL5     -0.334000
      6 C7         -0.9400    0.0260   -2.7590 c2        1 LL5      0.304000
      7 O32        -0.2600    0.2090   -3.7490 o         1 LL5     -0.367000
      8 N1         -0.3660   -0.5790   -1.6060 n         1 LL5     -0.309000
      9 C2         -1.1220   -0.8310   -0.3800 c3        1 LL5     -0.033500
     10 C3         -0.4290   -0.2760    0.8460 c3        1 LL5     -0.182500
     11 C6          1.0310   -1.0030   -1.5420 c3        1 LL5     -0.033500
     12 C5          1.7430   -0.4510   -0.3260 c3        1 LL5     -0.182500
     13 C4          0.9940   -0.7170    0.9370 c3        1 LL5     -0.037000
     14 C14         1.6840    0.0460    2.1030 c2        1 LL5      0.025000
     15 N23         2.2970   -0.5180    3.1680 n2        1 LL5     -0.166000
     16 O26         1.8310    1.3800    2.1970 os        1 LL5     -0.083000
     17 N25         2.5410    1.6450    3.3300 n2        1 LL5     -0.029000
     18 C24         2.8260    0.4770    3.9240 c2        1 LL5     -0.012000
     19 C27         3.5560    0.3130    5.0920 c2        1 LL5     -0.352000
     20 C31         3.3070    0.9830    6.3550 c1        1 LL5     -0.111000
     21 C30         4.4400    0.5450    7.3860 c1        1 LL5     -0.165000
     22 C29         5.3370   -0.3750    6.7130 c1        1 LL5     -0.453000
     23 S28         4.8280   -0.5610    5.2590 ss        1 LL5      0.658000
     24 H22        -4.6240   -1.1400   -2.9020 hc        1 LL5      0.078167
     25 H22A       -4.9390   -1.0210   -4.4670 hc        1 LL5      0.078167
     26 H22B       -4.9670    0.2860   -3.5430 hc        1 LL5      0.078167
     27 H20        -2.6160   -1.2050   -4.1300 hc        1 LL5      0.112000
     28 H21        -3.6960    1.0920   -5.3010 hc        1 LL5      0.078167
     29 H21A       -2.1070    1.0860   -5.1100 hc        1 LL5      0.078167
     30 H21B       -2.8110   -0.0450   -5.9980 hc        1 LL5      0.078167
     31 H19        -2.8350    0.0230   -1.9660 h1        1 LL5      0.110000
     32 HN33       -3.4750    1.9250   -3.1080 hn        1 LL5      0.153000
     33 HN3A       -2.3860    2.1470   -2.1070 hn        1 LL5      0.153000
     34 H2         -1.2360   -1.7960   -0.2710 h1        1 LL5      0.104500
     35 H2A        -2.0030   -0.4150   -0.4610 h1        1 LL5      0.104500
     36 H3         -0.4560    0.7010    0.8110 hc        1 LL5      0.107000
     37 H3A        -0.9060   -0.5790    1.6440 hc        1 LL5      0.107000
     38 H6          1.0640   -1.9810   -1.5110 h1        1 LL5      0.104500
     39 H6A         1.4930   -0.6950   -2.3470 h1        1 LL5      0.104500
     40 H5          2.6280   -0.8630   -0.2620 hc        1 LL5      0.107000
     41 H5A         1.8510    0.5150   -0.4330 hc        1 LL5      0.107000
     42 H4          1.0180   -1.6750    1.1250 hc        1 LL5      0.124000
     43 H31         2.5710    1.5970    6.5410 DU        1 LL5      0.166333
     44 H30         4.5170    0.8450    8.3120 DU        1 LL5      0.166333
     45 H29         6.1220   -0.8030    7.1060 DU        1 LL5      0.166333
@<TRIPOS>BOND
     1    1    2 1   
     2    1   24 1   
     3    1   25 1   
     4    1   26 1   
     5    2    3 1   
     6    2    4 1   
     7    2   27 1   
     8    3   28 1   
     9    3   29 1   
    10    3   30 1   
    11    4    5 1   
    12    4    6 1   
    13    4   31 1   
    14    5   32 1   
    15    5   33 1   
    16    6    7 1   
    17    6    8 1   
    18    8    9 1   
    19    8   11 1   
    20    9   10 1   
    21    9   34 1   
    22    9   35 1   
    23   10   13 1   
    24   10   36 1   
    25   10   37 1   
    26   11   12 1   
    27   11   38 1   
    28   11   39 1   
    29   12   13 1   
    30   12   40 1   
    31   12   41 1   
    32   13   14 1   
    33   13   42 1   
    34   14   15 1   
    35   14   16 1   
    36   15   18 1   
    37   16   17 1   
    38   17   18 1   
    39   18   19 1   
    40   19   20 1   
    41   19   23 1   
    42   20   21 1   
    43   21   22 1   
    44   22   23 1   
@<TRIPOS>SUBSTRUCTURE
     1 LL5         1 TEMP              0 ****  ****    0 ROOT
