@<TRIPOS>MOLECULE
LL8
   32    33     1     0     0
SMALL
bcc


@<TRIPOS>ATOM
      1 C1          2.0950    1.5020   -0.2460 ca        1 LL8     -0.071000
      2 O1         -3.0210    1.1120   -0.5700 o         1 LL8     -0.540100
      3 C2          3.4390    1.2320   -0.1830 ca        1 LL8     -0.189000
      4 O2         -5.4150   -0.4140    1.8250 o         1 LL8     -0.526100
      5 C3          3.8760   -0.1050    0.0200 ca        1 LL8      0.139100
      6 O3          5.2050   -0.4730    0.0970 os        1 LL8     -0.324900
      7 C4          2.9650   -1.1420    0.1560 ca        1 LL8     -0.169000
      8 C5          1.5780   -0.8680    0.0910 ca        1 LL8      0.018000
      9 C6          1.1340    0.4650   -0.1110 ca        1 LL8     -0.087000
     10 C7         -0.2590    0.7300   -0.1750 ca        1 LL8     -0.031000
     11 C8         -1.1830   -0.2870   -0.0340 ca        1 LL8     -0.191600
     12 C9         -0.7320   -1.6210    0.1650 ca        1 LL8     -0.093000
     13 C10         0.6090   -1.9030    0.2240 ca        1 LL8     -0.133000
     14 C11        -2.6220    0.0380   -0.1000 c         1 LL8      0.596700
     15 C12        -3.5650   -1.0040    0.4360 c3        1 LL8     -0.291400
     16 C13        -4.9650   -0.4990    0.6780 c         1 LL8      0.583100
     17 C14        -5.7610   -0.1470   -0.5330 c3        1 LL8     -0.205100
     18 C31         6.1620    0.5720   -0.0320 c3        1 LL8      0.112700
     19 H1          1.7400    2.5330   -0.4040 ha        1 LL8      0.140000
     20 H2          4.1730    2.0430   -0.2890 ha        1 LL8      0.142000
     21 H4          3.3160   -2.1720    0.3130 ha        1 LL8      0.154000
     22 H7         -0.6030    1.7660   -0.3420 ha        1 LL8      0.155000
     23 H9         -1.4680   -2.4330    0.2660 ha        1 LL8      0.133000
     24 H10         0.9600   -2.9350    0.3750 ha        1 LL8      0.140000
     25 H12        -3.6110   -1.8490   -0.3020 hc        1 LL8      0.091700
     26 H12A       -3.1500   -1.4040    1.4020 hc        1 LL8      0.091700
     27 H14        -6.8070    0.1270   -0.2540 hc        1 LL8      0.071700
     28 H14A       -5.2780    0.7260   -1.0440 hc        1 LL8      0.071700
     29 H14B       -5.7850   -1.0090   -1.2420 hc        1 LL8      0.071700
     30 H31         7.1410    0.0380    0.0650 h1        1 LL8      0.046700
     31 H31A        6.0800    1.0630   -1.0320 h1        1 LL8      0.046700
     32 H31B        6.0410    1.3230    0.7860 h1        1 LL8      0.046700
@<TRIPOS>BOND
     1    1    3 ar  
     2    1    9 ar  
     3    1   19 1   
     4    2   14 2   
     5    3    5 ar  
     6    3   20 1   
     7    4   16 2   
     8    5    6 1   
     9    5    7 ar  
    10    6   18 1   
    11    7    8 ar  
    12    7   21 1   
    13    8    9 ar  
    14    8   13 ar  
    15    9   10 ar  
    16   10   11 ar  
    17   10   22 1   
    18   11   12 ar  
    19   11   14 1   
    20   12   13 ar  
    21   12   23 1   
    22   13   24 1   
    23   14   15 1   
    24   15   16 1   
    25   15   25 1   
    26   15   26 1   
    27   16   17 1   
    28   17   27 1   
    29   17   28 1   
    30   17   29 1   
    31   18   30 1   
    32   18   31 1   
    33   18   32 1   
@<TRIPOS>SUBSTRUCTURE
     1 LL8         1 TEMP              0 ****  ****    0 ROOT
