@<TRIPOS>MOLECULE
LL8
   32    33     1     0     0
SMALL
bcc


@<TRIPOS>ATOM
      1 C1         -0.1700   -0.2200    0.0650 ca        1 LL8     -0.071000
      2 O1         -4.9620   -0.5340    1.8970 o         1 LL8     -0.540100
      3 C2          1.1960   -0.1650   -0.0590 ca        1 LL8     -0.189000
      4 O2         -6.8020    1.8430    4.0800 o         1 LL8     -0.526100
      5 C3          1.9990    0.0150    1.0990 ca        1 LL8      0.139100
      6 O3          3.3780    0.0810    1.0730 os        1 LL8     -0.324900
      7 C4          1.4230    0.1360    2.3560 ca        1 LL8     -0.169000
      8 C5          0.0160    0.0800    2.4890 ca        1 LL8      0.018000
      9 C6         -0.7930   -0.0990    1.3360 ca        1 LL8     -0.087000
     10 C7         -2.2040   -0.1540    1.4790 ca        1 LL8     -0.031000
     11 C8         -2.7970   -0.0270    2.7200 ca        1 LL8     -0.191600
     12 C9         -1.9820    0.1480    3.8720 ca        1 LL8     -0.093000
     13 C10        -0.6170    0.1990    3.7600 ca        1 LL8     -0.133000
     14 C11        -4.2700   -0.0830    2.8190 c         1 LL8      0.596700
     15 C12        -4.8710    0.4390    4.0950 c3        1 LL8     -0.291400
     16 C13        -6.3560    0.6940    4.0150 c         1 LL8      0.583100
     17 C14        -7.2280   -0.5090    3.8880 c3        1 LL8     -0.205100
     18 C31         3.9950   -0.0330   -0.2040 c3        1 LL8      0.112700
     19 H1         -0.8050   -0.3580   -0.8230 ha        1 LL8      0.140000
     20 H2          1.6670   -0.2600   -1.0480 ha        1 LL8      0.142000
     21 H4          2.0550    0.2750    3.2440 ha        1 LL8      0.154000
     22 H7         -2.8310   -0.3020    0.5830 ha        1 LL8      0.155000
     23 H9         -2.4540    0.2380    4.8620 ha        1 LL8      0.133000
     24 H10         0.0160    0.3310    4.6500 ha        1 LL8      0.140000
     25 H12        -4.3520    1.3970    4.3750 hc        1 LL8      0.091700
     26 H12A       -4.6800   -0.3140    4.9070 hc        1 LL8      0.091700
     27 H14        -7.0190   -1.0070    2.9060 hc        1 LL8      0.071700
     28 H14A       -8.3070   -0.2220    3.9290 hc        1 LL8      0.071700
     29 H14B       -7.0110   -1.2320    4.7100 hc        1 LL8      0.071700
     30 H31         3.7680   -1.0250   -0.6650 h1        1 LL8      0.046700
     31 H31A        5.0870    0.0520    0.0290 h1        1 LL8      0.046700
     32 H31B        3.6710    0.7980   -0.8760 h1        1 LL8      0.046700
@<TRIPOS>BOND
     1    1    3 ar  
     2    1    9 ar  
     3    1   19 1   
     4    2   14 2   
     5    3    5 ar  
     6    3   20 1   
     7    4   16 2   
     8    5    6 1   
     9    5    7 ar  
    10    6   18 1   
    11    7    8 ar  
    12    7   21 1   
    13    8    9 ar  
    14    8   13 ar  
    15    9   10 ar  
    16   10   11 ar  
    17   10   22 1   
    18   11   12 ar  
    19   11   14 1   
    20   12   13 ar  
    21   12   23 1   
    22   13   24 1   
    23   14   15 1   
    24   15   16 1   
    25   15   25 1   
    26   15   26 1   
    27   16   17 1   
    28   17   27 1   
    29   17   28 1   
    30   17   29 1   
    31   18   30 1   
    32   18   31 1   
    33   18   32 1   
@<TRIPOS>SUBSTRUCTURE
     1 LL8         1 TEMP              0 ****  ****    0 ROOT
