@<TRIPOS>MOLECULE
LL8
   32    33     1     0     0
SMALL
bcc


@<TRIPOS>ATOM
      1 C1         -0.1640   -0.3130    0.0820 ca        1 LL8     -0.071000
      2 O1         -4.9520   -0.6110    1.9270 o         1 LL8     -0.540100
      3 C2          1.2020   -0.2420   -0.0460 ca        1 LL8     -0.189000
      4 O2         -6.8320    1.8560    3.9720 o         1 LL8     -0.526100
      5 C3          2.0000    0.0140    1.1020 ca        1 LL8      0.139100
      6 O3          3.3770    0.1020    1.0730 os        1 LL8     -0.324900
      7 C4          1.4210    0.1930    2.3500 ca        1 LL8     -0.169000
      8 C5          0.0140    0.1200    2.4860 ca        1 LL8      0.018000
      9 C6         -0.7900   -0.1340    1.3440 ca        1 LL8     -0.087000
     10 C7         -2.2000   -0.2060    1.4890 ca        1 LL8     -0.031000
     11 C8         -2.7970   -0.0220    2.7210 ca        1 LL8     -0.191600
     12 C9         -1.9860    0.2290    3.8620 ca        1 LL8     -0.093000
     13 C10        -0.6220    0.2960    3.7480 ca        1 LL8     -0.133000
     14 C11        -4.2690   -0.0980    2.8230 c         1 LL8      0.596700
     15 C12        -4.8800    0.4850    4.0670 c3        1 LL8     -0.291400
     16 C13        -6.3680    0.7120    3.9720 c         1 LL8      0.583100
     17 C14        -7.2220   -0.5090    3.9110 c3        1 LL8     -0.205100
     18 C31         3.9980   -0.0700   -0.1960 c3        1 LL8      0.112700
     19 H1         -0.7950   -0.5100   -0.7990 ha        1 LL8      0.140000
     20 H2          1.6750   -0.3820   -1.0280 ha        1 LL8      0.142000
     21 H4          2.0490    0.3900    3.2300 ha        1 LL8      0.154000
     22 H7         -2.8230   -0.4130    0.6020 ha        1 LL8      0.155000
     23 H9         -2.4610    0.3640    4.8460 ha        1 LL8      0.133000
     24 H10         0.0080    0.4870    4.6300 ha        1 LL8      0.140000
     25 H12        -4.3760    1.4640    4.2940 hc        1 LL8      0.091700
     26 H12A       -4.6790   -0.2190    4.9200 hc        1 LL8      0.091700
     27 H14        -7.0030   -1.0580    2.9590 hc        1 LL8      0.071700
     28 H14A       -8.3050   -0.2370    3.9340 hc        1 LL8      0.071700
     29 H14B       -6.9950   -1.1810    4.7730 hc        1 LL8      0.071700
     30 H31         3.7890   -1.0890   -0.6040 h1        1 LL8      0.046700
     31 H31A        5.0880    0.0470    0.0330 h1        1 LL8      0.046700
     32 H31B        3.6600    0.7180   -0.9120 h1        1 LL8      0.046700
@<TRIPOS>BOND
     1    1    3 ar  
     2    1    9 ar  
     3    1   19 1   
     4    2   14 2   
     5    3    5 ar  
     6    3   20 1   
     7    4   16 2   
     8    5    6 1   
     9    5    7 ar  
    10    6   18 1   
    11    7    8 ar  
    12    7   21 1   
    13    8    9 ar  
    14    8   13 ar  
    15    9   10 ar  
    16   10   11 ar  
    17   10   22 1   
    18   11   12 ar  
    19   11   14 1   
    20   12   13 ar  
    21   12   23 1   
    22   13   24 1   
    23   14   15 1   
    24   15   16 1   
    25   15   25 1   
    26   15   26 1   
    27   16   17 1   
    28   17   27 1   
    29   17   28 1   
    30   17   29 1   
    31   18   30 1   
    32   18   31 1   
    33   18   32 1   
@<TRIPOS>SUBSTRUCTURE
     1 LL8         1 TEMP              0 ****  ****    0 ROOT
