@<TRIPOS>MOLECULE
LL8
   32    28     1     0     0
SMALL
bcc


@<TRIPOS>ATOM
      1 C1          1.6730   -0.1720   -2.2050 c1        1 LL8     -0.051000
      2 O1         -3.0230    0.0550   -1.0140 o         1 LL8     -0.301000
      3 C2          3.0390   -0.1480   -2.2250 c1        1 LL8     -0.161000
      4 O2         -5.2740   -0.0770   -0.4050 o         1 LL8     -0.287000
      5 C3          3.7350   -0.1140   -1.0570 c1        1 LL8      0.056000
      6 O3          5.1790   -0.4290   -0.7280 o         1 LL8     -0.208000
      7 C4          3.0500   -0.1030    0.1660 c2        1 LL8     -0.169000
      8 C5          1.7050   -0.1270    0.1840 c1        1 LL8      0.056000
      9 C6          0.9990   -0.1620   -1.0030 c1        1 LL8     -0.087000
     10 C7         -0.4340   -0.2120   -0.9840 c1        1 LL8     -0.051000
     11 C8         -1.1150   -0.2250    0.2310 c1        1 LL8     -0.171000
     12 C9         -0.3970   -0.1880    1.4520 c1        1 LL8     -0.093000
     13 C10         0.9990   -0.1400    1.4380 c1        1 LL8     -0.161000
     14 C11        -2.5830   -0.0580    0.0480 c2        1 LL8      0.287000
     15 C12        -3.5220   -0.0440    1.2830 c3        1 LL8     -0.270000
     16 C13        -4.9990    0.0080    0.8120 c2        1 LL8      0.244000
     17 C14        -6.0960    0.1020    1.8220 c3        1 LL8     -0.273000
     18 C31         6.0670    0.4990   -1.1980 c3        1 LL8     -0.077000
     19 H1          1.2040   -0.1970   -2.9930 ha        1 LL8      0.147500
     20 H2          3.5330   -0.1310   -3.1120 ha        1 LL8      0.141000
     21 H4          3.5680   -0.0770    1.0400 ha        1 LL8      0.154000
     22 H7         -0.9670   -0.2410   -1.8760 ha        1 LL8      0.147500
     23 H9         -0.8630   -0.1980    2.2760 ha        1 LL8      0.133000
     24 H10         1.4660   -0.1150    2.2300 ha        1 LL8      0.141000
     25 H12        -3.3230    0.7700    1.8540 hc        1 LL8      0.131000
     26 H12A       -3.3830   -0.8230    1.7900 hc        1 LL8      0.131000
     27 H14        -6.9610    0.1030    1.3710 hc        1 LL8      0.111000
     28 H14A       -5.9930    0.9410    2.3380 hc        1 LL8      0.111000
     29 H14B       -6.0460   -0.6580    2.4260 hc        1 LL8      0.111000
     30 H31         6.8170    0.4510   -0.7340 h1        1 LL8      0.086000
     31 H31A        6.2520    0.3260   -2.1230 h1        1 LL8      0.086000
     32 H31B        5.6900    1.3870   -1.1030 h1        1 LL8      0.086000
@<TRIPOS>BOND
     1    1    9 1   
     2    1   19 1   
     3    2   14 1   
     4    3    5 1   
     5    3   20 1   
     6    4   16 1   
     7    5    7 1   
     8    6   18 1   
     9    7    8 1   
    10    7   21 1   
    11    8   13 1   
    12    9   10 1   
    13   10   22 1   
    14   11   12 1   
    15   11   14 1   
    16   12   23 1   
    17   13   24 1   
    18   14   15 1   
    19   15   16 1   
    20   15   25 1   
    21   15   26 1   
    22   16   17 1   
    23   17   27 1   
    24   17   28 1   
    25   17   29 1   
    26   18   30 1   
    27   18   31 1   
    28   18   32 1   
@<TRIPOS>SUBSTRUCTURE
     1 LL8         1 TEMP              0 ****  ****    0 ROOT
