@<TRIPOS>MOLECULE
LL9
   31    31     1     0     0
SMALL
bcc


@<TRIPOS>ATOM
      1 OAD        -0.0130    0.1320   -0.3300 o         1 LL9     -0.723533
      2 SAQ         1.3250   -0.1520   -0.0260 s6        1 LL9      1.444800
      3 OAB         1.6660   -0.2380    1.3180 o         1 LL9     -0.723533
      4 OAC         1.9480   -1.0420   -0.9070 o         1 LL9     -0.723533
      5 CAJ         2.1350    1.4700   -0.5510 c3        1 LL9     -0.305600
      6 CAI         1.7970    1.6710   -1.9810 c3        1 LL9      0.162800
      7 NAL         2.3450    2.9700   -2.5180 n4        1 LL9     -0.770000
      8 CAK         1.9920    3.1830   -3.9510 c3        1 LL9      0.166100
      9 CAN         2.4990    4.4900   -4.4580 ca        1 LL9     -0.202300
     10 CAH         3.8050    4.5870   -4.9500 ca        1 LL9     -0.076000
     11 CAO         4.2870    5.7960   -5.4500 ca        1 LL9     -0.016600
     12 CL          5.8770    5.8620   -6.0310 cl        1 LL9     -0.040400
     13 CAP         3.4380    6.9300   -5.4610 ca        1 LL9      0.172100
     14 OAM         3.9730    8.0890   -5.9630 os        1 LL9     -0.301900
     15 CAA         3.1160    9.2290   -6.0030 c3        1 LL9      0.108700
     16 CAG         2.1270    6.8240   -4.9710 ca        1 LL9     -0.202000
     17 CAF         1.6640    5.6110   -4.4740 ca        1 LL9     -0.062000
     18 H1          3.2220    1.3530   -0.3620 h1        1 LL9      0.083200
     19 H2          1.7200    2.2510    0.1200 h1        1 LL9      0.083200
     20 H3          2.2280    0.8360   -2.6080 hx        1 LL9      0.111200
     21 H4          0.6750    1.6950   -2.1180 hx        1 LL9      0.111200
     22 H5          3.3630    2.9720   -2.4080 hn        1 LL9      0.435800
     23 H7          2.4330    2.3280   -4.5420 hx        1 LL9      0.104700
     24 H8          0.8690    3.1290   -4.0390 hx        1 LL9      0.104700
     25 H9          4.4590    3.6990   -4.9540 ha        1 LL9      0.153000
     26 H10         2.8020    9.5200   -4.9720 h1        1 LL9      0.056700
     27 H11         2.2290    9.0320   -6.6510 h1        1 LL9      0.056700
     28 H12         3.7720   10.0180   -6.4550 h1        1 LL9      0.056700
     29 H13         1.4560    7.6960   -4.9790 ha        1 LL9      0.157000
     30 H14         0.6300    5.5380   -4.1010 ha        1 LL9      0.145000
     31 HAL2        1.9750    3.7410   -1.9530 hn        1 LL9      0.435800
@<TRIPOS>BOND
     1    1    2 1   
     2    2    3 1   
     3    2    4 1   
     4    2    5 1   
     5    5    6 1   
     6    5   18 1   
     7    5   19 1   
     8    6    7 1   
     9    6   20 1   
    10    6   21 1   
    11    7    8 1   
    12    7   22 1   
    13    7   31 1   
    14    8    9 1   
    15    8   23 1   
    16    8   24 1   
    17    9   10 ar  
    18    9   17 ar  
    19   10   11 ar  
    20   10   25 1   
    21   11   12 1   
    22   11   13 ar  
    23   13   14 1   
    24   13   16 ar  
    25   14   15 1   
    26   15   26 1   
    27   15   27 1   
    28   15   28 1   
    29   16   17 ar  
    30   16   29 1   
    31   17   30 1   
@<TRIPOS>SUBSTRUCTURE
     1 LL9         1 TEMP              0 ****  ****    0 ROOT
