@<TRIPOS>MOLECULE
LL9
   31    31     1     0     0
SMALL
bcc


@<TRIPOS>ATOM
      1 OAD        -0.0100    0.1300   -0.3250 o         1 LL9     -0.723533
      2 SAQ         1.3290   -0.1550   -0.0280 s6        1 LL9      1.444800
      3 OAB         1.6770   -0.2460    1.3140 o         1 LL9     -0.723533
      4 OAC         1.9480   -1.0440   -0.9140 o         1 LL9     -0.723533
      5 CAJ         2.1380    1.4670   -0.5520 c3        1 LL9     -0.305600
      6 CAI         1.7960    1.6720   -1.9800 c3        1 LL9      0.162800
      7 NAL         2.3420    2.9710   -2.5170 n4        1 LL9     -0.770000
      8 CAK         1.9860    3.1870   -3.9480 c3        1 LL9      0.166100
      9 CAN         2.4950    4.4930   -4.4550 ca        1 LL9     -0.202300
     10 CAH         3.8050    4.5890   -4.9370 ca        1 LL9     -0.076000
     11 CAO         4.2900    5.7970   -5.4370 ca        1 LL9     -0.016600
     12 CL          5.8840    5.8630   -6.0060 cl        1 LL9     -0.040400
     13 CAP         3.4400    6.9300   -5.4580 ca        1 LL9      0.172100
     14 OAM         3.9780    8.0880   -5.9600 os        1 LL9     -0.301900
     15 CAA         3.1200    9.2280   -6.0110 c3        1 LL9      0.108700
     16 CAG         2.1250    6.8250   -4.9780 ca        1 LL9     -0.202000
     17 CAF         1.6590    5.6130   -4.4810 ca        1 LL9     -0.062000
     18 H1          1.7250    2.2470    0.1220 h1        1 LL9      0.083200
     19 H2          3.2250    1.3490   -0.3670 h1        1 LL9      0.083200
     20 H3          0.6730    1.6970   -2.1140 hx        1 LL9      0.111700
     21 H4          2.2240    0.8380   -2.6110 hx        1 LL9      0.111700
     22 H5          3.3600    2.9720   -2.4100 hn        1 LL9      0.435800
     23 H7          0.8620    3.1360   -4.0330 hx        1 LL9      0.104700
     24 H8          2.4220    2.3320   -4.5410 hx        1 LL9      0.104700
     25 H9          4.4590    3.7020   -4.9340 ha        1 LL9      0.153000
     26 H10         2.7970    9.5220   -4.9840 h1        1 LL9      0.056700
     27 H11         2.2380    9.0270   -6.6660 h1        1 LL9      0.056700
     28 H12         3.7780   10.0150   -6.4610 h1        1 LL9      0.056700
     29 H13         1.4530    7.6960   -4.9950 ha        1 LL9      0.157000
     30 H14         0.6220    5.5400   -4.1150 ha        1 LL9      0.145000
     31 HAL2        1.9740    3.7410   -1.9490 hn        1 LL9      0.435800
@<TRIPOS>BOND
     1    1    2 1   
     2    2    3 1   
     3    2    4 1   
     4    2    5 1   
     5    5    6 1   
     6    5   18 1   
     7    5   19 1   
     8    6    7 1   
     9    6   20 1   
    10    6   21 1   
    11    7    8 1   
    12    7   22 1   
    13    7   31 1   
    14    8    9 1   
    15    8   23 1   
    16    8   24 1   
    17    9   10 ar  
    18    9   17 ar  
    19   10   11 ar  
    20   10   25 1   
    21   11   12 1   
    22   11   13 ar  
    23   13   14 1   
    24   13   16 ar  
    25   14   15 1   
    26   15   26 1   
    27   15   27 1   
    28   15   28 1   
    29   16   17 ar  
    30   16   29 1   
    31   17   30 1   
@<TRIPOS>SUBSTRUCTURE
     1 LL9         1 TEMP              0 ****  ****    0 ROOT
