@<TRIPOS>MOLECULE
LL9
   31    31     1     0     0
SMALL
bcc


@<TRIPOS>ATOM
      1 OAD        -0.0040    0.1290   -0.3200 o         1 LL9     -0.723533
      2 SAQ         1.3360   -0.1530   -0.0230 s6        1 LL9      1.444800
      3 OAB         1.6840   -0.2420    1.3190 o         1 LL9     -0.723533
      4 OAC         1.9560   -1.0420   -0.9080 o         1 LL9     -0.723533
      5 CAJ         2.1420    1.4700   -0.5490 c3        1 LL9     -0.305600
      6 CAI         1.8000    1.6720   -1.9770 c3        1 LL9      0.162800
      7 NAL         2.3440    2.9720   -2.5150 ny        1 LL9     -0.770000
      8 CAK         1.9880    3.1860   -3.9470 c3        1 LL9      0.166100
      9 CAN         2.4940    4.4920   -4.4560 ca        1 LL9     -0.202300
     10 CAH         3.8040    4.5900   -4.9390 ca        1 LL9     -0.076000
     11 CAO         4.2870    5.7980   -5.4410 ca        1 LL9     -0.016600
     12 Cl          5.8800    5.8650   -6.0110 cl        1 LL9     -0.040400
     13 CAP         3.4350    6.9300   -5.4620 ca        1 LL9      0.172100
     14 OAM         3.9710    8.0880   -5.9650 os        1 LL9     -0.301900
     15 CAA         3.1120    9.2260   -6.0160 c3        1 LL9      0.108700
     16 CAG         2.1210    6.8230   -4.9800 ca        1 LL9     -0.202000
     17 CAF         1.6570    5.6110   -4.4810 ca        1 LL9     -0.062000
     18 H1          1.7290    2.2500    0.1240 h1        1 LL9      0.083200
     19 H2          3.2300    1.3530   -0.3640 h1        1 LL9      0.083200
     20 H3          0.6770    1.6950   -2.1110 hx        1 LL9      0.111200
     21 H4          2.2290    0.8380   -2.6070 hx        1 LL9      0.111200
     22 H5          3.3630    2.9750   -2.4090 hn        1 LL9      0.435800
     23 H7          0.8640    3.1320   -4.0320 hx        1 LL9      0.104700
     24 H8          2.4250    2.3300   -4.5390 hx        1 LL9      0.104700
     25 H9          4.4590    3.7030   -4.9360 ha        1 LL9      0.153000
     26 H10         2.7890    9.5210   -4.9880 h1        1 LL9      0.056700
     27 H11         2.2290    9.0240   -6.6700 h1        1 LL9      0.056700
     28 H12         3.7680   10.0140   -6.4670 h1        1 LL9      0.056700
     29 H13         1.4480    7.6930   -4.9970 ha        1 LL9      0.157000
     30 H14         0.6210    5.5370   -4.1140 ha        1 LL9      0.145000
     31 HAL2        1.9760    3.7420   -1.9480 hn        1 LL9      0.435800
@<TRIPOS>BOND
     1    1    2 1   
     2    2    3 1   
     3    2    4 1   
     4    2    5 1   
     5    5    6 1   
     6    5   18 1   
     7    5   19 1   
     8    6    7 1   
     9    6   20 1   
    10    6   21 1   
    11    7    8 1   
    12    7   22 1   
    13    7   31 1   
    14    8    9 1   
    15    8   23 1   
    16    8   24 1   
    17    9   10 ar  
    18    9   17 ar  
    19   10   11 ar  
    20   10   25 1   
    21   11   12 1   
    22   11   13 ar  
    23   13   14 1   
    24   13   16 ar  
    25   14   15 1   
    26   15   26 1   
    27   15   27 1   
    28   15   28 1   
    29   16   17 ar  
    30   16   29 1   
    31   17   30 1   
@<TRIPOS>SUBSTRUCTURE
     1 LL9         1 TEMP              0 ****  ****    0 ROOT
