@<TRIPOS>MOLECULE
LL9
   30    30     1     0     0
SMALL
bcc


@<TRIPOS>ATOM
      1 OAD         5.4450   -0.8620    0.3120 o         1 LL9     -0.750533
      2 SAQ         4.9040    0.3400   -0.2010 s6        1 LL9      1.431800
      3 OAB         5.3910    1.5070    0.4340 o         1 LL9     -0.750533
      4 OAC         4.9020    0.4130   -1.6140 o         1 LL9     -0.750533
      5 CAJ         3.1780    0.3000    0.2560 c3        1 LL9     -0.325600
      6 CAI         2.4620   -0.8830   -0.3540 c3        1 LL9      0.186800
      7 NAL         1.0500   -1.0390   -0.0500 n3        1 LL9     -0.819200
      8 CAK         0.2060   -0.0480   -0.6930 c3        1 LL9      0.199100
      9 CAN        -1.2550   -0.2210   -0.3870 ca        1 LL9     -0.093300
     10 CAH        -2.0350    0.8970   -0.0790 ca        1 LL9     -0.099000
     11 CAO        -3.4040    0.7630    0.1690 ca        1 LL9     -0.012600
     12 CL         -4.3060    2.1610    0.5350 cl        1 LL9     -0.096400
     13 CAP        -4.0000   -0.5120    0.1130 ca        1 LL9      0.115100
     14 OAM        -5.3610   -0.5750    0.3610 os        1 LL9     -0.321900
     15 CAA        -5.9290   -1.8770    0.4040 c3        1 LL9      0.116700
     16 CAG        -3.2160   -1.6330   -0.1920 ca        1 LL9     -0.204000
     17 CAF        -1.8540   -1.4830   -0.4410 ca        1 LL9     -0.076000
     18 H1          3.1110    0.2650    1.3690 h1        1 LL9      0.063200
     19 H2          2.7090    1.2560   -0.0740 h1        1 LL9      0.063200
     20 H3          2.5810   -0.8370   -1.4750 h1        1 LL9      0.063700
     21 H4          2.9650   -1.8280    0.0070 h1        1 LL9      0.063700
     22 H5          0.9120   -0.9970    0.9450 hn        1 LL9      0.345800
     23 H7          0.5100    1.0100   -0.4320 h1        1 LL9      0.043200
     24 H8          0.3420   -0.1610   -1.8090 h1        1 LL9      0.043200
     25 H9         -1.5690    1.8940   -0.0300 ha        1 LL9      0.151000
     26 H10        -6.9990   -1.6830    0.6680 h1        1 LL9      0.040700
     27 H11        -5.8560   -2.3720   -0.5950 h1        1 LL9      0.040700
     28 H12        -5.4370   -2.5020    1.1880 h1        1 LL9      0.040700
     29 H13        -3.6640   -2.6340   -0.2380 ha        1 LL9      0.133000
     30 H14        -1.2410   -2.3660   -0.6800 ha        1 LL9      0.158000
@<TRIPOS>BOND
     1    1    2 1   
     2    2    3 1   
     3    2    4 1   
     4    2    5 1   
     5    5    6 1   
     6    5   18 1   
     7    5   19 1   
     8    6    7 1   
     9    6   20 1   
    10    6   21 1   
    11    7    8 1   
    12    7   22 1   
    13    8    9 1   
    14    8   23 1   
    15    8   24 1   
    16    9   10 ar  
    17    9   17 ar  
    18   10   11 ar  
    19   10   25 1   
    20   11   12 1   
    21   11   13 ar  
    22   13   14 1   
    23   13   16 ar  
    24   14   15 1   
    25   15   26 1   
    26   15   27 1   
    27   15   28 1   
    28   16   17 ar  
    29   16   29 1   
    30   17   30 1   
@<TRIPOS>SUBSTRUCTURE
     1 LL9         1 TEMP              0 ****  ****    0 ROOT
