@<TRIPOS>MOLECULE
LLA
   21    21     1     0     0
SMALL
bcc


@<TRIPOS>ATOM
      1 O           0.4010   -0.3950    0.4570 o         1 LLA     -0.833800
      2 CA          1.9140   -0.1110   -1.3870 c3        1 LLA      0.019100
      3 CB          2.5220    1.2660   -1.6650 c3        1 LLA     -0.058100
      4 CG          3.4450    1.2730   -2.8300 ca        1 LLA     -0.032300
      5 CD1         3.1130    1.9490   -4.0110 ca        1 LLA     -0.132500
      6 CD2         4.6770    0.6080   -2.7530 ca        1 LLA     -0.132500
      7 CE1         3.9970    1.9640   -5.0900 ca        1 LLA     -0.139000
      8 CE2         5.5580    0.6240   -3.8320 ca        1 LLA     -0.139000
      9 CZ          5.2210    1.3040   -5.0030 ca        1 LLA     -0.160000
     10 C           1.6150   -0.2530    0.1310 c         1 LLA      0.892600
     11 OA          0.7470   -0.2850   -2.1720 oh        1 LLA     -0.643800
     12 OXT         2.5840   -0.2220    0.9350 o         1 LLA     -0.833800
     13 HA          2.6300   -0.9190   -1.6990 h1        1 LLA      0.041700
     14 H1B         3.0940    1.5730   -0.7460 hc        1 LLA      0.059700
     15 H2B         1.6910    2.0010   -1.8240 hc        1 LLA      0.059700
     16 HD1         2.1430    2.4600   -4.0880 ha        1 LLA      0.138500
     17 HD2         4.9350    0.0680   -1.8280 ha        1 LLA      0.138500
     18 HE1         3.7240    2.4940   -6.0130 ha        1 LLA      0.112500
     19 HE2         6.5200    0.0970   -3.7610 ha        1 LLA      0.112500
     20 HZ          5.9170    1.3150   -5.8530 ha        1 LLA      0.109000
     21 HOA        -0.0070   -0.2830   -1.5590 ho        1 LLA      0.424000
@<TRIPOS>BOND
     1    1   10 1   
     2    2    3 1   
     3    2   10 1   
     4    2   11 1   
     5    2   13 1   
     6    3    4 1   
     7    3   14 1   
     8    3   15 1   
     9    4    5 ar  
    10    4    6 ar  
    11    5    7 ar  
    12    5   16 1   
    13    6    8 ar  
    14    6   17 1   
    15    7    9 ar  
    16    7   18 1   
    17    8    9 ar  
    18    8   19 1   
    19    9   20 1   
    20   10   12 1   
    21   11   21 1   
@<TRIPOS>SUBSTRUCTURE
     1 LLA         1 TEMP              0 ****  ****    0 ROOT
