@<TRIPOS>MOLECULE
LLA
   21    19     1     0     0
SMALL
bcc


@<TRIPOS>ATOM
      1 O          -1.0050   -3.9890    0.5690 o         1 LLA     -0.568500
      2 CA         -1.0060   -1.6480    0.0280 c3        1 LLA     -0.042000
      3 CB          0.4300   -1.2250   -0.1890 c3        1 LLA     -0.144000
      4 CG          0.5300    0.2820   -0.1020 c2        1 LLA     -0.025000
      5 CD1         0.9240    0.8830    1.0830 c2        1 LLA     -0.134000
      6 CD2         0.2770    1.0580   -1.2220 c1        1 LLA     -0.131000
      7 CE1         1.0650    2.2610    1.1480 c1        1 LLA     -0.140000
      8 CE2         0.4170    2.4350   -1.1570 c1        1 LLA     -0.149000
      9 CZ          0.8110    3.0370    0.0280 c1        1 LLA     -0.149000
     10 C          -1.1580   -3.1110   -0.3210 c2        1 LLA      0.312000
     11 OA         -1.3560   -1.4480    1.3760 oh        1 LLA     -0.371000
     12 OXT        -1.4140   -3.4530   -1.5050 o         1 LLA     -0.568500
     13 HA         -1.5920   -1.1140   -0.5440 h1        1 LLA      0.081000
     14 H1B         0.9960   -1.6300    0.4990 hc        1 LLA      0.099000
     15 H2B         0.7280   -1.5220   -1.0720 hc        1 LLA      0.099000
     16 HD1         1.0930    0.3370    1.8740 ha        1 LLA      0.129000
     17 HD2        -0.0010    0.6350   -2.0570 ha        1 LLA      0.148000
     18 HE1         1.3420    2.6840    1.9820 ha        1 LLA      0.111000
     19 HE2         0.2510    2.9810   -1.9500 ha        1 LLA      0.111500
     20 HZ          0.9100    4.0070    0.0740 ha        1 LLA      0.111500
     21 HOA        -2.2410   -1.4580    1.4580 ho        1 LLA      0.223000
@<TRIPOS>BOND
     1    1   10 1   
     2    2    3 1   
     3    2   10 1   
     4    2   11 1   
     5    2   13 1   
     6    3    4 1   
     7    3   14 1   
     8    3   15 1   
     9    4    5 1   
    10    4    6 1   
    11    5    7 1   
    12    5   16 1   
    13    6   17 1   
    14    7   18 1   
    15    8    9 1   
    16    8   19 1   
    17    9   20 1   
    18   10   12 1   
    19   11   21 1   
@<TRIPOS>SUBSTRUCTURE
     1 LLA         1 TEMP              0 ****  ****    0 ROOT
