@<TRIPOS>MOLECULE
LLA
   21    21     1     0     0
SMALL
bcc


@<TRIPOS>ATOM
      1 O           0.4050   -0.3910    0.4630 o         1 LLA     -0.833800
      2 CA          1.9160   -0.1090   -1.3830 c3        1 LLA      0.019100
      3 CB          2.5210    1.2680   -1.6660 c3        1 LLA     -0.058100
      4 CG          3.4440    1.2730   -2.8320 ca        1 LLA     -0.032300
      5 CD1         3.1110    1.9440   -4.0150 ca        1 LLA     -0.132500
      6 CD2         4.6770    0.6090   -2.7530 ca        1 LLA     -0.132500
      7 CE1         3.9940    1.9570   -5.0940 ca        1 LLA     -0.139000
      8 CE2         5.5570    0.6230   -3.8320 ca        1 LLA     -0.139000
      9 CZ          5.2190    1.2990   -5.0050 ca        1 LLA     -0.160000
     10 C           1.6190   -0.2470    0.1360 c         1 LLA      0.892600
     11 OA          0.7500   -0.2890   -2.1670 oh        1 LLA     -0.643800
     12 OXT         2.5880   -0.2100    0.9390 o         1 LLA     -0.833800
     13 HA          2.6340   -0.9170   -1.6930 h1        1 LLA      0.041700
     14 H1B         1.6880    2.0010   -1.8280 hc        1 LLA      0.059700
     15 H2B         3.0930    1.5800   -0.7490 hc        1 LLA      0.059700
     16 HD1         2.1390    2.4540   -4.0930 ha        1 LLA      0.138500
     17 HD2         4.9360    0.0730   -1.8270 ha        1 LLA      0.138500
     18 HE1         3.7200    2.4850   -6.0190 ha        1 LLA      0.112500
     19 HE2         6.5200    0.0990   -3.7600 ha        1 LLA      0.112500
     20 HZ          5.9140    1.3090   -5.8560 ha        1 LLA      0.109000
     21 HOA        -0.0040   -0.2860   -1.5540 ho        1 LLA      0.424000
@<TRIPOS>BOND
     1    1   10 1   
     2    2    3 1   
     3    2   10 1   
     4    2   11 1   
     5    2   13 1   
     6    3    4 1   
     7    3   14 1   
     8    3   15 1   
     9    4    5 ar  
    10    4    6 ar  
    11    5    7 ar  
    12    5   16 1   
    13    6    8 ar  
    14    6   17 1   
    15    7    9 ar  
    16    7   18 1   
    17    8    9 ar  
    18    8   19 1   
    19    9   20 1   
    20   10   12 1   
    21   11   21 1   
@<TRIPOS>SUBSTRUCTURE
     1 LLA         1 TEMP              0 ****  ****    0 ROOT
