@<TRIPOS>MOLECULE
LLA
   21    21     1     0     0
SMALL
bcc


@<TRIPOS>ATOM
      1 O           0.6050   -0.2660    3.6350 o         1 LLA     -0.833300
      2 CA          0.4390    0.2510    1.2960 c3        1 LLA      0.016100
      3 CB         -0.4560   -0.5930    0.3910 c3        1 LLA     -0.057100
      4 CG         -0.3200   -0.2900   -1.0590 ca        1 LLA     -0.041300
      5 CD1         0.9450   -0.1780   -1.6540 ca        1 LLA     -0.132500
      6 CD2        -1.4600   -0.1380   -1.8590 ca        1 LLA     -0.132500
      7 CE1         1.0630    0.0740   -3.0180 ca        1 LLA     -0.143500
      8 CE2        -1.3390    0.1140   -3.2250 ca        1 LLA     -0.143500
      9 CZ         -0.0770    0.2180   -3.8090 ca        1 LLA     -0.159000
     10 C          -0.1320    0.2440    2.7410 c         1 LLA      0.893600
     11 OA          1.7700   -0.2410    1.2600 oh        1 LLA     -0.654800
     12 OXT        -1.2740    0.7370    2.9360 o         1 LLA     -0.833300
     13 HA          0.4850    1.3080    0.9180 h1        1 LLA      0.043700
     14 H1B        -0.2090   -1.6770    0.5520 hc        1 LLA      0.061200
     15 H2B        -1.5180   -0.4240    0.7220 hc        1 LLA      0.061200
     16 HD1         1.8400   -0.2810   -1.0170 ha        1 LLA      0.146500
     17 HD2        -2.4580   -0.2120   -1.4010 ha        1 LLA      0.146500
     18 HE1         2.0600    0.1630   -3.4730 ha        1 LLA      0.112000
     19 HE2        -2.2400    0.2330   -3.8410 ha        1 LLA      0.112000
     20 HZ          0.0180    0.4170   -4.8850 ha        1 LLA      0.109000
     21 HOA         1.9540   -0.6270    2.1330 ho        1 LLA      0.427000
@<TRIPOS>BOND
     1    1   10 1   
     2    2    3 1   
     3    2   10 1   
     4    2   11 1   
     5    2   13 1   
     6    3    4 1   
     7    3   14 1   
     8    3   15 1   
     9    4    5 ar  
    10    4    6 ar  
    11    5    7 ar  
    12    5   16 1   
    13    6    8 ar  
    14    6   17 1   
    15    7    9 ar  
    16    7   18 1   
    17    8    9 ar  
    18    8   19 1   
    19    9   20 1   
    20   10   12 1   
    21   11   21 1   
@<TRIPOS>SUBSTRUCTURE
     1 LLA         1 TEMP              0 ****  ****    0 ROOT
