@<TRIPOS>MOLECULE
LLB
   64    65     1     0     0
SMALL
bcc


@<TRIPOS>ATOM
      1 C4         -0.0620    0.3070   -0.5320 c2        1 LLB     -0.056000
      2 C5          1.2770    0.2100   -0.7550 c2        1 LLB     -0.136000
      3 C6          2.1870    0.2580    0.3470 c2        1 LLB     -0.059000
      4 C7          4.7960   -7.4700   -6.9660 c3        1 LLB     -0.213000
      5 C20         0.7310   -3.6650   -4.4870 c2        1 LLB      0.106000
      6 C21         1.6290   -2.6930   -3.8050 c3        1 LLB     -0.219000
      7 C22         1.0020   -1.4880   -3.2730 c1        1 LLB     -0.098000
      8 C28        -2.2550   -7.4280   -5.0380 c3        1 LLB     -0.305000
      9 O17        -1.3910    0.8310   -3.6450 o         1 LLB     -0.308000
     10 C12        -1.1660    0.0120   -1.4290 c2        1 LLB     -0.160000
     11 C11        -2.3440   -0.1880   -0.7630 c2        1 LLB     -0.187000
     12 C14        -3.6400   -0.5210   -1.3450 c2        1 LLB     -0.004000
     13 C54        -4.1760   -1.8400   -1.0220 c2        1 LLB     -0.135000
     14 C53        -5.2950   -2.3460   -1.5460 c2        1 LLB     -0.195000
     15 C52        -4.9900    1.2130   -4.2920 c1        1 LLB      0.077000
     16 O59        -3.9690    1.5220   -5.0070 oh        1 LLB     -0.146000
     17 C51        -4.9490    1.1920   -2.8280 c2        1 LLB     -0.215000
     18 C50        -4.2810    0.3500   -2.0960 c1        1 LLB     -0.108000
     19 S10        -2.2190   -0.0280    0.9250 ss        1 LLB      0.374000
     20 C3         -0.5660    0.6400    0.8350 c3        1 LLB     -0.277000
     21 C2          0.3270    0.4480    1.9610 c1        1 LLB     -0.109000
     22 C1          1.7090    0.3150    1.6400 c2        1 LLB     -0.041000
     23 O13         2.6310    0.2290    2.6620 oh        1 LLB     -0.256000
     24 C16        -0.3850   -1.3110   -3.4290 c2        1 LLB     -0.268000
     25 C19        -0.6130   -3.4290   -4.6220 c2        1 LLB     -0.262000
     26 C18        -1.1690   -2.2290   -4.0980 c2        1 LLB      0.081000
     27 C29        -1.0660   -8.1960   -5.4630 c1        1 LLB      0.037000
     28 N61         0.0450   -7.5410   -5.8740 n7        1 LLB     -0.209000
     29 C66         3.0800   -8.7540   -3.8480 c3        1 LLB     -0.221000
     30 C65         3.7540   -7.7180   -4.7120 c3        1 LLB     -0.150000
     31 C64         3.6160   -8.0290   -6.1970 c3        1 LLB     -0.086000
     32 C63         2.3230   -7.4600   -6.7720 c3        1 LLB     -0.243000
     33 C62         1.1450   -8.2240   -6.2740 c1        1 LLB      0.050000
     34 H5          1.6760    0.0090   -1.7700 ha        1 LLB      0.200000
     35 H6          3.2670    0.1910    0.1450 ha        1 LLB      0.153000
     36 H72         4.8590   -6.3620   -6.8430 hc        1 LLB      0.074000
     37 H73         5.7480   -7.9220   -6.5960 hc        1 LLB      0.074000
     38 H21         2.4360   -2.3550   -4.5230 hc        1 LLB      0.172000
     39 H22         2.1550   -3.2010   -2.9420 hc        1 LLB      0.172000
     40 H281        2.1890   -4.8580   -4.8210 ho        1 LLB      0.238000
     41 H282       -3.1040   -7.7500   -5.6950 hc        1 LLB      0.102000
     42 H54        -3.5810   -2.4140   -0.2890 ha        1 LLB      0.138000
     43 H53        -5.6620   -3.3430   -1.2690 ha        1 LLB      0.122500
     44 HO59       -3.1270    1.7240   -4.5360 ho        1 LLB      0.204000
     45 H51        -5.9130   -1.8030   -2.2740 ha        1 LLB      0.122500
     46 H50        -5.6640    1.9020   -2.3630 ha        1 LLB      0.180000
     47 H2         -0.6920    1.7810    0.8920 h1        1 LLB      0.218000
     48 HO13        2.1320    0.2780    3.4940 ho        1 LLB      0.238000
     49 H19        -1.2670   -4.1520   -5.1320 ha        1 LLB      0.158000
     50 H18        -2.2500   -2.0590   -4.2440 ha        1 LLB      0.150000
     51 H291       -2.4950   -7.7480   -3.9910 hc        1 LLB      0.102000
     52 H292       -2.1850   -6.3100   -5.0640 hc        1 LLB      0.102000
     53 H661        0.0570   -6.5240   -5.8770 hn        1 LLB      0.130000
     54 H662        2.0240   -8.9240   -4.1760 hc        1 LLB      0.082667
     55 H651        3.6200   -9.7290   -3.9150 hc        1 LLB      0.082667
     56 H652        3.0760   -8.4270   -2.7800 hc        1 LLB      0.082667
     57 H64         4.8430   -7.6680   -4.4420 hc        1 LLB      0.064500
     58 H631        3.3200   -6.7050   -4.4980 hc        1 LLB      0.064500
     59 H632        3.5960   -9.1490   -6.3300 hc        1 LLB      0.119000
     60 H621        2.3220   -7.6220   -7.8890 hc        1 LLB      0.092500
     61 H622        2.2950   -6.3480   -6.5980 hc        1 LLB      0.092500
     62 C15        -1.0010   -0.0700   -2.8930 c2        1 LLB      0.381000
     63 O27         1.2350   -4.8250   -5.0000 oh        1 LLB     -0.249000
     64 H71         4.6980   -7.7010   -8.0540 hc        1 LLB      0.074000
@<TRIPOS>BOND
     1    1    2 1   
     2    1   10 1   
     3    1   20 1   
     4    2    3 1   
     5    2   34 1   
     6    3   22 1   
     7    3   35 1   
     8    4   31 1   
     9    4   36 1   
    10    4   37 1   
    11    4   64 1   
    12    5    6 1   
    13    5   25 1   
    14    5   63 1   
    15    6    7 1   
    16    6   38 1   
    17    6   39 1   
    18    7   24 1   
    19    8   27 1   
    20    8   41 1   
    21    8   51 1   
    22    8   52 1   
    23    9   62 1   
    24   10   11 1   
    25   10   62 1   
    26   11   12 1   
    27   11   19 1   
    28   12   13 1   
    29   12   18 1   
    30   13   14 1   
    31   13   42 1   
    32   14   43 1   
    33   14   45 1   
    34   15   16 1   
    35   15   17 1   
    36   16   44 1   
    37   17   18 1   
    38   17   46 1   
    39   19   20 1   
    40   20   21 1   
    41   20   47 1   
    42   21   22 1   
    43   22   23 1   
    44   23   48 1   
    45   24   26 1   
    46   24   62 1   
    47   25   26 1   
    48   25   49 1   
    49   26   50 1   
    50   27   28 1   
    51   28   33 1   
    52   28   53 1   
    53   29   30 1   
    54   29   54 1   
    55   29   55 1   
    56   29   56 1   
    57   30   31 1   
    58   30   57 1   
    59   30   58 1   
    60   31   32 1   
    61   31   59 1   
    62   32   33 1   
    63   32   60 1   
    64   32   61 1   
    65   40   63 1   
@<TRIPOS>SUBSTRUCTURE
     1 LLB         1 TEMP              0 ****  ****    0 ROOT
