@<TRIPOS>MOLECULE
LLB
   64    65     1     0     0
SMALL
bcc


@<TRIPOS>ATOM
      1 C4          0.0770   -0.9200   -0.9630 ca        1 LLB     -0.078000
      2 C5          1.2760   -1.5750   -1.2920 ca        1 LLB     -0.058000
      3 C6          2.1970   -1.8490   -0.3010 ca        1 LLB     -0.159000
      4 C7          4.6020   -5.2350   -6.2850 c3        1 LLB     -0.214000
      5 C20        -1.3890   -4.8590   -4.5570 c2        1 LLB      0.117000
      6 C21        -0.0370   -4.3670   -4.1670 c3        1 LLB     -0.187000
      7 C22         0.0430   -2.9790   -3.7390 c1        1 LLB     -0.091000
      8 C28        -1.0850   -9.5880   -4.8820 c3        1 LLB     -0.301000
      9 O17        -0.9270    0.1380   -4.1150 o         1 LLB     -0.303000
     10 C12        -1.0050   -0.5250   -1.8340 c2        1 LLB     -0.122000
     11 C11        -2.0120    0.1090   -1.1430 c2        1 LLB     -0.269000
     12 C14        -3.2540    0.6530   -1.6740 c2        1 LLB      0.004000
     13 C54        -4.4780   -0.0750   -1.3470 c2        1 LLB     -0.133000
     14 C53        -5.6900    0.2450   -1.8040 c2        1 LLB     -0.200000
     15 C52        -3.3410    2.9220   -4.5630 c1        1 LLB      0.072000
     16 O59        -2.4100    2.4510   -5.3140 oh        1 LLB     -0.147000
     17 C51        -3.2870    2.8460   -3.1010 c2        1 LLB     -0.220000
     18 C50        -3.2510    1.7560   -2.3930 c1        1 LLB     -0.098000
     19 S10        -1.6760    0.2250    0.5170 ss        1 LLB      0.522000
     20 C3         -0.1850   -0.5450    0.3830 ca        1 LLB     -0.273000
     21 C2          0.7440   -0.8220    1.3910 ca        1 LLB     -0.200000
     22 C1          1.9260   -1.4690    1.0380 ca        1 LLB      0.097000
     23 O13         2.9000   -1.7840    1.9560 oh        1 LLB     -0.249000
     24 C16        -1.1300   -2.1950   -3.7100 c2        1 LLB     -0.263000
     25 C19        -2.4930   -4.0490   -4.5130 c2        1 LLB     -0.313000
     26 C18        -2.3540   -2.6950   -4.0920 c2        1 LLB      0.076000
     27 C29         0.3580   -9.4590   -5.1770 c1        1 LLB      0.039000
     28 N61         0.8570   -8.2620   -5.5620 n3        1 LLB     -0.211000
     29 C66         3.6640   -7.2120   -3.1980 c3        1 LLB     -0.219000
     30 C65         3.6560   -6.0140   -4.1120 c3        1 LLB     -0.159000
     31 C64         3.9420   -6.3910   -5.5600 c3        1 LLB     -0.083000
     32 C63         2.6700   -6.7880   -6.3010 c3        1 LLB     -0.243000
     33 C62         2.1770   -8.1120   -5.8300 c1        1 LLB      0.052000
     34 H5          1.4570   -1.8820   -2.3410 ha        1 LLB      0.191000
     35 H6          3.1450   -2.3580   -0.5250 ha        1 LLB      0.154000
     36 H72         3.9430   -4.3330   -6.2720 hc        1 LLB      0.075667
     37 H73         5.5700   -4.9720   -5.7930 hc        1 LLB      0.075667
     38 H21         0.6790   -4.5040   -5.0330 hc        1 LLB      0.179500
     39 H22         0.3700   -5.0090   -3.3280 hc        1 LLB      0.179500
     40 H281       -2.3290   -6.4130   -5.1760 ho        1 LLB      0.235000
     41 H282       -1.4970  -10.3630   -5.5790 hc        1 LLB      0.099333
     42 H54        -4.3360   -0.9390   -0.6740 ha        1 LLB      0.132000
     43 H53        -6.5830   -0.3310   -1.5280 ha        1 LLB      0.121500
     44 HO59       -1.6540    2.0020   -4.8700 ho        1 LLB      0.206000
     45 H51        -5.8710    1.0970   -2.4730 ha        1 LLB      0.121500
     46 H50        -3.4040    3.8350   -2.6120 ha        1 LLB      0.177000
     47 H2          0.5450   -0.5320    2.4310 ha        1 LLB      0.139000
     48 HO13        2.6120   -1.4630    2.8230 ho        1 LLB      0.219000
     49 H19        -3.4890   -4.4150   -4.8010 ha        1 LLB      0.147000
     50 H18        -3.2610   -2.0650   -4.0850 ha        1 LLB      0.148000
     51 H291       -1.1710   -9.9890   -3.8380 hc        1 LLB      0.099333
     52 H292       -1.7110   -8.6610   -4.9620 hc        1 LLB      0.099333
     53 H661        2.9970   -8.0200   -3.5900 hc        1 LLB      0.080000
     54 H662        0.2340   -7.4630   -5.6430 hn        1 LLB      0.127000
     55 H651        4.6950   -7.6330   -3.1130 hc        1 LLB      0.080000
     56 H652        3.3160   -6.9240   -2.1770 hc        1 LLB      0.080000
     57 H64         4.4310   -5.2810   -3.7610 hc        1 LLB      0.075500
     58 H631        2.6650   -5.4890   -4.0480 hc        1 LLB      0.075500
     59 H632        4.6440   -7.2730   -5.5710 hc        1 LLB      0.115000
     60 H621        1.9310   -5.9400   -6.2500 hc        1 LLB      0.091500
     61 H622        2.9210   -6.9450   -7.3900 hc        1 LLB      0.091500
     62 C15        -1.0030   -0.7760   -3.2870 c2        1 LLB      0.381000
     63 O27        -1.4170   -6.1620   -4.9530 oh        1 LLB     -0.254000
     64 H71         4.8110   -5.5070   -7.3480 hc        1 LLB      0.075667
@<TRIPOS>BOND
     1    1    2 1   
     2    1   10 1   
     3    1   20 1   
     4    2    3 1   
     5    2   34 1   
     6    3   22 1   
     7    3   35 1   
     8    4   31 1   
     9    4   36 1   
    10    4   37 1   
    11    4   64 1   
    12    5    6 1   
    13    5   25 1   
    14    5   63 1   
    15    6    7 1   
    16    6   38 1   
    17    6   39 1   
    18    7   24 1   
    19    8   27 1   
    20    8   41 1   
    21    8   51 1   
    22    8   52 1   
    23    9   62 1   
    24   10   11 1   
    25   10   62 1   
    26   11   12 1   
    27   11   19 1   
    28   12   13 1   
    29   12   18 1   
    30   13   14 1   
    31   13   42 1   
    32   14   43 1   
    33   14   45 1   
    34   15   16 1   
    35   15   17 1   
    36   16   44 1   
    37   17   18 1   
    38   17   46 1   
    39   19   20 1   
    40   20   21 1   
    41   21   22 1   
    42   21   47 1   
    43   22   23 1   
    44   23   48 1   
    45   24   26 1   
    46   24   62 1   
    47   25   26 1   
    48   25   49 1   
    49   26   50 1   
    50   27   28 1   
    51   28   33 1   
    52   28   54 1   
    53   29   30 1   
    54   29   53 1   
    55   29   55 1   
    56   29   56 1   
    57   30   31 1   
    58   30   57 1   
    59   30   58 1   
    60   31   32 1   
    61   31   59 1   
    62   32   33 1   
    63   32   60 1   
    64   32   61 1   
    65   40   63 1   
@<TRIPOS>SUBSTRUCTURE
     1 LLB         1 TEMP              0 ****  ****    0 ROOT
