@<TRIPOS>MOLECULE
LLB
   64    68     1     0     0
SMALL
bcc


@<TRIPOS>ATOM
      1 C4         -2.9740   -1.6780    0.4190 ca        1 LLB     -0.093800
      2 C5         -2.2310   -2.6430    1.1150 ca        1 LLB     -0.050000
      3 C6         -2.3950   -3.9810    0.8080 ca        1 LLB     -0.205000
      4 C7          9.3180   -2.6920    0.2610 c3        1 LLB     -0.090100
      5 C20         2.0030    1.0610    0.5190 ca        1 LLB      0.165100
      6 C21         1.5490    1.3630    1.8200 ca        1 LLB     -0.204000
      7 C22         0.2180    1.1460    2.1400 ca        1 LLB     -0.039500
      8 C28         3.8480    0.9570   -0.9890 c3        1 LLB      0.126400
      9 O17        -2.5190    0.7710    2.6750 o         1 LLB     -0.537100
     10 C12        -2.9600   -0.2420    0.5790 cc        1 LLB     -0.145400
     11 C11        -3.8480    0.3790   -0.2680 cd        1 LLB      0.010400
     12 C14        -4.1400    1.7890   -0.3900 ca        1 LLB     -0.085800
     13 C54        -4.2710    2.3730   -1.6620 ca        1 LLB     -0.073000
     14 C53        -4.5680    3.7230   -1.7990 ca        1 LLB     -0.188000
     15 C52        -4.7400    4.5050   -0.6440 ca        1 LLB      0.135100
     16 O59        -5.0340    5.8330   -0.8420 oh        1 LLB     -0.496100
     17 C51        -4.6160    3.9380    0.6320 ca        1 LLB     -0.188000
     18 C50        -4.3160    2.5840    0.7520 ca        1 LLB     -0.073000
     19 S10        -4.6730   -0.7400   -1.2540 ss        1 LLB      0.039500
     20 C3         -3.8960   -2.0780   -0.5890 ca        1 LLB     -0.049100
     21 C2         -4.0640   -3.4270   -0.9040 ca        1 LLB     -0.132000
     22 C1         -3.3080   -4.3670   -0.2010 ca        1 LLB      0.132100
     23 O13        -3.5000   -5.6870   -0.5420 oh        1 LLB     -0.496100
     24 C16        -0.6760    0.6260    1.1880 ca        1 LLB     -0.216600
     25 C19         1.1210    0.5460   -0.4410 ca        1 LLB     -0.204000
     26 C18        -0.2120    0.3320   -0.0990 ca        1 LLB     -0.039500
     27 C29         5.3490    1.2800   -0.9400 c3        1 LLB      0.173800
     28 N61         6.1540    0.1680   -0.4650 n3        1 LLB     -0.738600
     29 C66         6.4990   -0.7670   -1.5250 c3        1 LLB      0.176800
     30 C65         7.3120   -1.9630   -1.0350 c3        1 LLB     -0.074900
     31 C64         8.5470   -1.5070   -0.2770 c3        1 LLB     -0.067700
     32 C63         8.1350   -0.5730    0.8500 c3        1 LLB     -0.074900
     33 C62         7.3010    0.5930    0.3240 c3        1 LLB      0.176800
     34 H5         -1.5270   -2.3280    1.9000 ha        1 LLB      0.147000
     35 H6         -1.8220   -4.7510    1.3450 ha        1 LLB      0.137000
     36 H72         9.6300   -3.3620   -0.5750 hc        1 LLB      0.035033
     37 H73        10.2310   -2.3470    0.8010 hc        1 LLB      0.035033
     38 H21         2.2570    1.7650    2.5580 ha        1 LLB      0.147500
     39 H22        -0.1550    1.3800    3.1510 ha        1 LLB      0.151000
     40 H281        3.6440   -0.1270   -1.1850 h1        1 LLB      0.046700
     41 H282        3.3520    1.5880   -1.7730 h1        1 LLB      0.046700
     42 H54        -4.1320    1.7540   -2.5620 ha        1 LLB      0.151000
     43 H53        -4.6690    4.1870   -2.7890 ha        1 LLB      0.145500
     44 HO59       -5.1220    6.2530    0.0270 ho        1 LLB      0.422000
     45 H51        -4.7520    4.5560    1.5310 ha        1 LLB      0.145500
     46 H50        -4.2130    2.1310    1.7530 ha        1 LLB      0.151000
     47 H2         -4.7700   -3.7540   -1.6800 ha        1 LLB      0.157000
     48 HO13       -2.9380   -6.2280    0.0310 ho        1 LLB      0.421000
     49 H19         1.4630    0.3120   -1.4580 ha        1 LLB      0.147500
     50 H18        -0.9060   -0.0730   -0.8530 ha        1 LLB      0.151000
     51 H291        5.6520    1.6050   -1.9780 h1        1 LLB      0.049200
     52 H292        5.4840    2.1640   -0.2510 h1        1 LLB      0.049200
     53 H661        5.5350   -1.1410   -1.9720 h1        1 LLB      0.028450
     54 H662        7.0800   -0.2570   -2.3520 h1        1 LLB      0.028450
     55 H651        6.6800   -2.6070   -0.3700 hc        1 LLB      0.049200
     56 H652        7.6110   -2.5760   -1.9230 hc        1 LLB      0.049200
     57 H64         9.2120   -0.9370   -0.9870 hc        1 LLB      0.044700
     58 H631        7.5480   -1.1450    1.6150 hc        1 LLB      0.049200
     59 H632        9.0450   -0.1570    1.3540 hc        1 LLB      0.049200
     60 H621        7.9780    1.2770   -0.2700 h1        1 LLB      0.028450
     61 H622        6.9090    1.1790    1.2030 h1        1 LLB      0.028450
     62 C15        -2.0850    0.4180    1.5700 c         1 LLB      0.620900
     63 O27         3.3350    1.3250    0.2980 os        1 LLB     -0.320900
     64 H71         8.6880   -3.2810    0.9710 hc        1 LLB      0.035033
@<TRIPOS>BOND
     1    1    2 ar  
     2    1   10 1   
     3    1   20 ar  
     4    2    3 ar  
     5    2   34 1   
     6    3   22 ar  
     7    3   35 1   
     8    4   31 1   
     9    4   36 1   
    10    4   37 1   
    11    4   64 1   
    12    5    6 ar  
    13    5   25 ar  
    14    5   63 1   
    15    6    7 ar  
    16    6   38 1   
    17    7   24 ar  
    18    7   39 1   
    19    8   27 1   
    20    8   40 1   
    21    8   41 1   
    22    8   63 1   
    23    9   62 2   
    24   10   11 2   
    25   10   62 1   
    26   11   12 1   
    27   11   19 1   
    28   12   13 ar  
    29   12   18 ar  
    30   13   14 ar  
    31   13   42 1   
    32   14   15 ar  
    33   14   43 1   
    34   15   16 1   
    35   15   17 ar  
    36   16   44 1   
    37   17   18 ar  
    38   17   45 1   
    39   18   46 1   
    40   19   20 1   
    41   20   21 ar  
    42   21   22 ar  
    43   21   47 1   
    44   22   23 1   
    45   23   48 1   
    46   24   26 ar  
    47   24   62 1   
    48   25   26 ar  
    49   25   49 1   
    50   26   50 1   
    51   27   28 1   
    52   27   51 1   
    53   27   52 1   
    54   28   29 1   
    55   28   33 1   
    56   29   30 1   
    57   29   53 1   
    58   29   54 1   
    59   30   31 1   
    60   30   55 1   
    61   30   56 1   
    62   31   32 1   
    63   31   57 1   
    64   32   33 1   
    65   32   58 1   
    66   32   59 1   
    67   33   60 1   
    68   33   61 1   
@<TRIPOS>SUBSTRUCTURE
     1 LLB         1 TEMP              0 ****  ****    0 ROOT
