@<TRIPOS>MOLECULE
LLB
   64    64     1     0     0
SMALL
bcc


@<TRIPOS>ATOM
      1 C4         -1.0810   -0.4100   -0.2130 c2        1 LLB     -0.112000
      2 C5          0.2890    0.0630    0.0910 c3        1 LLB     -0.106000
      3 C6          1.0380   -0.9040    0.9310 c2        1 LLB     -0.081000
      4 C7          3.2120   -9.6020   -6.5520 c3        1 LLB     -0.193000
      5 C20         1.0270   -1.9990   -5.4020 ca        1 LLB      0.152000
      6 C21         0.3470   -2.6360   -4.3470 ca        1 LLB     -0.228000
      7 C22        -0.3690   -1.8770   -3.4320 ca        1 LLB     -0.032500
      8 C28         3.7760   -5.6110   -2.9110 c2        1 LLB     -0.259000
      9 O17        -1.2480    1.5800   -2.6930 o         1 LLB     -0.285000
     10 C12        -1.7330   -0.3420   -1.4000 c2        1 LLB     -0.099000
     11 C11        -3.0260   -1.0200   -1.4050 c2        1 LLB     -0.193000
     12 C14        -3.9860   -1.0290   -2.3710 c2        1 LLB      0.036000
     13 C54        -5.2170   -1.7880   -2.1530 c2        1 LLB     -0.146000
     14 C53        -6.1260   -2.0390   -3.0980 c2        1 LLB     -0.179000
     15 C52        -4.0540    0.8630   -5.8910 c1        1 LLB      0.088000
     16 O59        -3.0260    1.5530   -6.3630 oh        1 LLB     -0.210000
     17 C51        -3.8590    0.2530   -4.6400 c1        1 LLB     -0.196000
     18 C50        -3.8730   -0.3280   -3.5820 c1        1 LLB     -0.055000
     19 S10        -3.2310   -1.8770    0.0680 ss        1 LLB      0.307000
     20 C3         -1.8070   -1.1430    0.8700 c3        1 LLB     -0.270000
     21 C2         -1.0130   -2.1110    1.6150 c1        1 LLB     -0.022000
     22 C1          0.4090   -1.9060    1.6060 c2        1 LLB     -0.061000
     23 O13         1.1960   -2.7690    2.3470 oh        1 LLB     -0.259000
     24 C16        -0.4180   -0.4810   -3.5440 ca        1 LLB     -0.216000
     25 C19         0.9790   -0.5950   -5.5280 ca        1 LLB     -0.228000
     26 C18         0.2580    0.1460   -4.6060 ca        1 LLB     -0.032500
     27 C29         3.0330   -5.1510   -3.9260 c2        1 LLB     -0.050000
     28 N61         2.3860   -5.9780   -4.8740 n3        1 LLB     -0.152000
     29 C66         2.0650   -9.1810   -2.8900 c3        1 LLB     -0.193000
     30 C65         2.8910   -9.3050   -4.1070 c2        1 LLB     -0.179000
     31 C64         2.3890   -9.4560   -5.3370 c2        1 LLB     -0.179000
     32 C63         1.0090   -6.2750   -6.8760 c3        1 LLB     -0.252000
     33 C62         1.6940   -5.4550   -5.8610 c1        1 LLB     -0.169000
     34 H5          0.2340    1.0510    0.6350 hc        1 LLB      0.128500
     35 H6          0.8570    0.2500   -0.8640 hc        1 LLB      0.128500
     36 H72         4.3040   -9.5130   -6.3310 hc        1 LLB      0.084167
     37 H73         3.0290  -10.6030   -7.0190 hc        1 LLB      0.084167
     38 H21         2.8620   -4.0690   -4.1060 h4        1 LLB      0.174000
     39 H22         0.3830   -3.7330   -4.2660 ha        1 LLB      0.147500
     40 H281        1.6730   -3.6670   -6.1550 ho        1 LLB      0.290000
     41 H282        2.1300   -0.7720    0.9860 ha        1 LLB      0.154000
     42 H54        -5.3650   -2.1570   -1.1190 ha        1 LLB      0.133000
     43 H53        -7.0370   -2.6130   -2.8840 ha        1 LLB      0.123500
     44 HO59       -3.3100    1.9130   -7.2230 ho        1 LLB      0.254000
     45 H51        -6.0210   -1.6890   -4.1350 ha        1 LLB      0.123500
     46 H50        -0.9080   -2.3820   -2.6140 ha        1 LLB      0.145500
     47 H2         -2.1970   -0.4110    1.6440 h1        1 LLB      0.186000
     48 HO13        0.5960   -3.4110    2.7600 ho        1 LLB      0.238000
     49 H19         1.5100   -0.1110   -6.3600 ha        1 LLB      0.147500
     50 H18         0.2000    1.2440   -4.6980 ha        1 LLB      0.145500
     51 H291        4.2500   -4.9130   -2.2090 ha        1 LLB      0.130500
     52 H292        3.9590   -6.6750   -2.7150 ha        1 LLB      0.130500
     53 H661        2.5010   -6.9720   -4.7370 hn        1 LLB      0.192000
     54 H662        2.2880   -8.2150   -2.3690 hc        1 LLB      0.084167
     55 H651        0.9720   -9.2140   -3.1190 hc        1 LLB      0.084167
     56 H652        2.3000  -10.0170   -2.1830 hc        1 LLB      0.084167
     57 H64         3.9810   -9.2770   -3.9390 ha        1 LLB      0.122500
     58 H631        1.1320   -7.3850   -6.7790 hc        1 LLB      0.100667
     59 H632        1.2980   -9.4950   -5.5030 ha        1 LLB      0.122500
     60 H621        1.3920   -5.9580   -7.8800 hc        1 LLB      0.100667
     61 H622       -0.0840   -6.0300   -6.8310 hc        1 LLB      0.100667
     62 C15        -1.1570    0.3510   -2.5830 c2        1 LLB      0.330000
     63 O27         1.7540   -2.6800   -6.3240 oh        1 LLB     -0.301000
     64 H71         2.9380   -8.8160   -7.3010 hc        1 LLB      0.084167
@<TRIPOS>BOND
     1    1    2 1   
     2    1   10 1   
     3    1   20 1   
     4    2    3 1   
     5    2   34 1   
     6    2   35 1   
     7    3   22 1   
     8    3   41 1   
     9    4   31 1   
    10    4   36 1   
    11    4   37 1   
    12    4   64 1   
    13    5    6 1   
    14    5   25 1   
    15    5   63 1   
    16    6    7 1   
    17    6   39 1   
    18    7   24 1   
    19    7   46 1   
    20    8   27 1   
    21    8   51 1   
    22    8   52 1   
    23    9   62 1   
    24   10   11 1   
    25   10   62 1   
    26   11   12 1   
    27   11   19 1   
    28   12   13 1   
    29   12   18 1   
    30   13   14 1   
    31   13   42 1   
    32   14   43 1   
    33   14   45 1   
    34   15   16 1   
    35   15   17 1   
    36   16   44 1   
    37   17   18 1   
    38   19   20 1   
    39   20   21 1   
    40   20   47 1   
    41   21   22 1   
    42   22   23 1   
    43   23   48 1   
    44   24   26 1   
    45   24   62 1   
    46   25   26 1   
    47   25   49 1   
    48   26   50 1   
    49   27   28 1   
    50   27   38 1   
    51   28   33 1   
    52   28   53 1   
    53   29   30 1   
    54   29   54 1   
    55   29   55 1   
    56   29   56 1   
    57   30   31 1   
    58   30   57 1   
    59   31   59 1   
    60   32   33 1   
    61   32   58 1   
    62   32   60 1   
    63   32   61 1   
    64   40   63 1   
@<TRIPOS>SUBSTRUCTURE
     1 LLB         1 TEMP              0 ****  ****    0 ROOT
