@<TRIPOS>MOLECULE
LLC
   58    60     1     0     0
SMALL
bcc


@<TRIPOS>ATOM
      1 C4         -0.3570   -1.8360    0.8490 c1        1 LLC     -0.149000
      2 C5          0.5000   -2.8990    0.6460 c2        1 LLC     -0.263000
      3 C6          1.8440   -2.9200    0.9330 c2        1 LLC      0.138000
      4 C8          1.6090   -1.1320    3.1730 c1        1 LLC      0.117000
      5 C13        -4.5930    1.9760    2.1500 ca        1 LLC     -0.065000
      6 C15        -6.2690    0.4930    1.2320 ca        1 LLC      0.076000
      7 C20        -1.7700    3.6130    2.0240 c2        1 LLC     -0.181000
      8 C21        -1.6660    4.7880    2.9230 c3        1 LLC     -0.198000
      9 C22        -1.8170    6.1120    2.3500 c1        1 LLC     -0.035000
     10 C26        -2.3470    9.1830   -1.1740 c3        1 LLC     -0.062000
     11 C28        -0.2050    9.8730   -0.2410 c3        1 LLC     -0.105000
     12 O19        -0.7900    2.1760    3.6220 o         1 LLC     -0.312000
     13 C33        -2.0170    3.7780    0.7010 c2        1 LLC     -0.077000
     14 C32        -2.1600    5.0880    0.1300 c2        1 LLC     -0.165000
     15 C23        -2.0300    6.1970    0.9240 c2        1 LLC     -0.001000
     16 O24        -2.1110    7.4970    0.4760 os        1 LLC     -0.182000
     17 C25        -2.3040    7.6670   -0.9330 c3        1 LLC     -0.039000
     18 N27        -1.0380    9.7630   -1.4320 n3        1 LLC     -0.277000
     19 C31        -1.1190   10.9960   -2.1820 c3        1 LLC     -0.116000
     20 C30         1.7300    8.4760   -1.1380 c1        1 LLC     -0.053000
     21 C29         1.2850    9.7190   -0.5510 c3        1 LLC     -0.247000
     22 C1         -2.1750    1.1290    1.9990 c2        1 LLC     -0.164000
     23 C12        -3.6050    1.0470    1.7890 ca        1 LLC     -0.078000
     24 C14        -5.9190    1.7050    1.8730 ca        1 LLC     -0.207000
     25 O17        -7.5780    0.1830    0.9320 oh        1 LLC     -0.254000
     26 C16        -5.3060   -0.4480    0.8700 ca        1 LLC     -0.124000
     27 C11        -3.9640   -0.1770    1.1510 ca        1 LLC     -0.365000
     28 S10        -2.6110   -1.1350    0.8380 ss        1 LLC      0.709000
     29 C2         -1.5620   -0.0110    1.5440 c2        1 LLC     -0.305000
     30 C3         -0.1600   -0.5130    1.4760 c3        1 LLC      0.029000
     31 C9          0.5440   -0.4830    2.7850 c2        1 LLC     -0.467000
     32 O7          2.5450   -4.0400    0.6500 oh        1 LLC     -0.215000
     33 H4          0.4270    0.1380    0.7510 hc        1 LLC      0.132000
     34 H5          0.0520   -3.8120    0.2040 ha        1 LLC      0.168000
     35 H8          2.4070   -2.0620    1.3550 h4        1 LLC      0.151000
     36 H13        -4.3040    2.9140    2.6470 ha        1 LLC      0.133000
     37 H21        -2.4360    4.7050    3.7520 hc        1 LLC      0.182500
     38 H22        -0.6660    4.7640    3.4600 hc        1 LLC      0.182500
     39 H261       -2.8570    9.6660   -0.2900 h1        1 LLC      0.089000
     40 H262       -2.9920    9.3480   -2.0830 h1        1 LLC      0.089000
     41 H282       -0.3660   10.8620    0.2790 h1        1 LLC      0.089000
     42 H33        -2.3670    5.1460   -0.9500 ha        1 LLC      0.143000
     43 H32        -2.1080    2.9130    0.0230 ha        1 LLC      0.151000
     44 H251       -1.4730    7.1670   -1.4950 h1        1 LLC      0.087000
     45 H252       -3.2890    7.2160   -1.2270 h1        1 LLC      0.087000
     46 H311       -1.6140   10.7940   -3.1670 h1        1 LLC      0.071333
     47 H312       -1.6960   11.8020   -1.6500 h1        1 LLC      0.071333
     48 H301       -0.0810   11.3730   -2.3730 h1        1 LLC      0.071333
     49 H302        0.9620    7.7070   -1.3160 ha        1 LLC      0.041000
     50 H291        1.6370   10.5430   -1.2390 hc        1 LLC      0.143000
     51 H292        1.8620    9.8490    0.4120 hc        1 LLC      0.143000
     52 H14        -6.7060    2.4200    2.1500 ha        1 LLC      0.132000
     53 HO17       -8.1360    0.9040    1.2580 ho        1 LLC      0.216000
     54 H16        -5.6080   -1.3830    0.3780 ha        1 LLC      0.151000
     55 H9          0.0890    0.2220    3.5300 ha        1 LLC      0.247000
     56 HO7         3.4740   -3.9090    0.9070 ho        1 LLC      0.243000
     57 C18        -1.5260    2.2840    2.6290 c2        1 LLC      0.336000
     58 H281       -0.4990    9.0620    0.4860 h1        1 LLC      0.089000
@<TRIPOS>BOND
     1    1    2 1   
     2    1   30 1   
     3    2    3 1   
     4    2   34 1   
     5    3   32 1   
     6    3   35 1   
     7    4   31 1   
     8    5   23 1   
     9    5   24 1   
    10    5   36 1   
    11    6   24 1   
    12    6   25 1   
    13    6   26 1   
    14    7    8 1   
    15    7   13 1   
    16    7   57 1   
    17    8    9 1   
    18    8   37 1   
    19    8   38 1   
    20    9   15 1   
    21   10   17 1   
    22   10   18 1   
    23   10   39 1   
    24   10   40 1   
    25   11   18 1   
    26   11   21 1   
    27   11   41 1   
    28   11   58 1   
    29   12   57 1   
    30   13   14 1   
    31   13   43 1   
    32   14   15 1   
    33   14   42 1   
    34   15   16 1   
    35   16   17 1   
    36   17   44 1   
    37   17   45 1   
    38   18   19 1   
    39   19   46 1   
    40   19   47 1   
    41   19   48 1   
    42   20   21 1   
    43   20   49 1   
    44   21   50 1   
    45   21   51 1   
    46   22   23 1   
    47   22   29 1   
    48   22   57 1   
    49   23   27 1   
    50   24   52 1   
    51   25   53 1   
    52   26   27 1   
    53   26   54 1   
    54   27   28 1   
    55   28   29 1   
    56   29   30 1   
    57   30   31 1   
    58   30   33 1   
    59   31   55 1   
    60   32   56 1   
@<TRIPOS>SUBSTRUCTURE
     1 LLC         1 TEMP              0 ****  ****    0 ROOT
