@<TRIPOS>MOLECULE
LLC
   58    51     1     0     0
SMALL
bcc


@<TRIPOS>ATOM
      1 C4         -3.2640   -4.6510   -0.6240 c1        1 LLC     -0.062000
      2 C5         -4.5540   -4.6170   -1.1570 c1        1 LLC     -0.215000
      3 C6         -5.4600   -3.6580   -0.7230 c1        1 LLC      0.090000
      4 C8         -5.0820   -2.7290    0.2450 c1        1 LLC     -0.126250
      5 C13         2.0990   -3.8550    1.9090 c1        1 LLC     -0.051000
      6 C15         1.8270   -4.2670    4.2860 c1        1 LLC      0.087000
      7 C20         0.7440   -1.8240   -1.2250 c1        1 LLC     -0.194000
      8 C21         1.0450   -0.8990   -0.2470 c1        1 LLC     -0.126250
      9 C22         1.3900    0.4000   -0.6010 c1        1 LLC     -0.126250
     10 C26         1.8860    4.4230   -1.5760 c3        1 LLC     -0.074000
     11 C28         1.2360    6.8160   -1.8040 c3        1 LLC     -0.078500
     12 O19         0.8530   -4.1740   -1.5980 o         1 LLC     -0.296000
     13 C18         0.5260   -3.3000   -0.8390 c2        1 LLC      0.342000
     14 C33         0.7840   -1.4570   -2.5630 c1        1 LLC     -0.044000
     15 C32         1.1280   -0.1600   -2.9160 c1        1 LLC     -0.179000
     16 C23         1.4300    0.7670   -1.9340 c1        1 LLC      0.118000
     17 O24         1.8130    2.1140   -2.3020 o         1 LLC     -0.214000
     18 C25         1.0520    3.1190   -1.6630 c3        1 LLC     -0.024000
     19 N27         1.0950    5.4590   -0.9610 n3        1 LLC     -0.252000
     20 C31         1.5670    5.7200    0.2250 c3        1 LLC     -0.078500
     21 C30         1.3520    7.2710    0.4260 c3        1 LLC     -0.172500
     22 C29         0.9750    7.8150   -0.9540 c3        1 LLC     -0.172500
     23 C1         -0.2110   -3.6480    0.4510 c2        1 LLC     -0.139000
     24 C12         0.7230   -3.8530    1.7570 c1        1 LLC     -0.082000
     25 C14         2.6600   -4.0600    3.1610 c1        1 LLC     -0.205000
     26 O17         2.3930   -4.3550    5.5160 o         1 LLC     -0.250000
     27 C16         0.4290   -4.2660    4.1370 c2        1 LLC     -0.132000
     28 C11        -0.1280   -4.0640    2.8980 c1        1 LLC     -0.276000
     29 S10        -1.6270   -4.0060    2.3980 s         1 LLC      0.509000
     30 C2         -1.5990   -3.7430    0.8600 c2        1 LLC     -0.241000
     31 C3         -2.8870   -3.7230    0.3420 c1        1 LLC     -0.074000
     32 C9         -3.7970   -2.7610    0.7770 c1        1 LLC     -0.126250
     33 O7         -6.7480   -3.6380   -1.2360 oh        1 LLC     -0.249000
     34 H4         -2.6210   -5.3310   -0.9320 ha        1 LLC      0.162000
     35 H5         -4.8220   -5.2720   -1.8390 ha        1 LLC      0.139000
     36 H8         -5.7150   -2.0600    0.5470 ha        1 LLC      0.145750
     37 H13         2.6660   -3.7140    1.1450 ha        1 LLC      0.146000
     38 H21         1.0160   -1.1580    0.6980 ha        1 LLC      0.145750
     39 H22         1.6070    1.0690    0.1060 ha        1 LLC      0.145750
     40 H261        2.6880    4.2630   -1.0380 h1        1 LLC      0.087500
     41 H262        2.1490    4.7080   -2.4840 h1        1 LLC      0.087500
     42 H281        2.1520    6.9030   -2.1580 h1        1 LLC      0.083750
     43 H282        0.5890    6.8230   -2.5390 h1        1 LLC      0.083750
     44 H33         0.5730   -2.1070   -3.2500 ha        1 LLC      0.156000
     45 H32         1.1570    0.0940   -3.8390 ha        1 LLC      0.154000
     46 H251        0.8110    2.8210   -0.7530 h1        1 LLC      0.089000
     47 H252        0.2180    3.2910   -2.1880 h1        1 LLC      0.089000
     48 H311        2.4990    5.5070    0.2650 h1        1 LLC      0.083750
     49 H312        1.0720    5.2170    0.9070 h1        1 LLC      0.083750
     50 H301        2.1810    7.6910    0.7430 hc        1 LLC      0.087750
     51 H302        0.6140    7.4340    1.0710 hc        1 LLC      0.087750
     52 H291        0.0210    8.0480   -0.9830 hc        1 LLC      0.087750
     53 H292        1.5370    8.6180   -1.1780 hc        1 LLC      0.087750
     54 H14         3.6750   -4.0240    3.2760 ha        1 LLC      0.137000
     55 HO17        2.6950   -5.1610    5.6390 ho        1 LLC      0.220000
     56 H16        -0.1540   -4.4110    4.9250 ha        1 LLC      0.157000
     57 H9         -3.5310   -2.1050    1.4600 ha        1 LLC      0.145750
     58 HO7        -6.7280   -3.3400   -2.0650 ho        1 LLC      0.221000
@<TRIPOS>BOND
     1    1   31 1   
     2    1   34 1   
     3    2    3 1   
     4    2   35 1   
     5    3   33 1   
     6    4   32 1   
     7    4   36 1   
     8    5   24 1   
     9    5   37 1   
    10    6   25 1   
    11    6   27 1   
    12    7   13 1   
    13    7   14 1   
    14    8    9 1   
    15    8   38 1   
    16    9   39 1   
    17   10   18 1   
    18   10   19 1   
    19   10   40 1   
    20   10   41 1   
    21   11   19 1   
    22   11   22 1   
    23   11   42 1   
    24   11   43 1   
    25   12   13 1   
    26   13   23 1   
    27   14   44 1   
    28   15   16 1   
    29   15   45 1   
    30   17   18 1   
    31   18   46 1   
    32   18   47 1   
    33   19   20 1   
    34   20   21 1   
    35   20   48 1   
    36   20   49 1   
    37   21   22 1   
    38   21   50 1   
    39   21   51 1   
    40   22   52 1   
    41   22   53 1   
    42   23   24 1   
    43   23   30 1   
    44   25   54 1   
    45   26   55 1   
    46   27   28 1   
    47   27   56 1   
    48   29   30 1   
    49   30   31 1   
    50   32   57 1   
    51   33   58 1   
@<TRIPOS>SUBSTRUCTURE
     1 LLC         1 TEMP              0 ****  ****    0 ROOT
