@<TRIPOS>MOLECULE
LLC
   58    62     1     0     0
SMALL
bcc


@<TRIPOS>ATOM
      1 C4          2.2230   -3.1800    1.2920 ca        1 LLC     -0.072500
      2 C5          1.8340   -4.5140    1.2330 ca        1 LLC     -0.187500
      3 C6          1.7650   -5.1540   -0.0130 ca        1 LLC      0.135100
      4 C8          2.0830   -4.4640   -1.1950 ca        1 LLC     -0.187500
      5 C13         3.1510    2.4570   -0.8040 ca        1 LLC     -0.050000
      6 C15         4.7340    3.2990    0.8230 ca        1 LLC      0.132100
      7 C20         0.2550    0.3430   -1.4590 ca        1 LLC     -0.215600
      8 C21        -0.6660    0.3670   -2.5210 ca        1 LLC     -0.040000
      9 C22        -1.9800    0.7580   -2.3120 ca        1 LLC     -0.203500
     10 C26        -5.6800    2.1060    0.2500 c3        1 LLC      0.166800
     11 C28        -7.8860    1.1590   -0.1830 c3        1 LLC      0.159300
     12 O19         2.0010   -0.4640   -2.8490 o         1 LLC     -0.534100
     13 C33        -0.1660    0.7150   -0.1780 ca        1 LLC     -0.040000
     14 C32        -1.4810    1.1110    0.0520 ca        1 LLC     -0.203500
     15 C23        -2.3890    1.1330   -1.0150 ca        1 LLC      0.163100
     16 O24        -3.7060    1.5200   -0.9170 os        1 LLC     -0.315900
     17 C25        -4.1840    1.8000    0.4050 c3        1 LLC      0.127400
     18 N27        -6.5180    0.9230    0.2820 n3        1 LLC     -0.721600
     19 C31        -6.5760    0.2550    1.5830 c3        1 LLC      0.159300
     20 C30        -8.0430    0.0560    1.9950 c3        1 LLC     -0.094400
     21 C29        -8.8820    0.6270    0.8600 c3        1 LLC     -0.094400
     22 C1          2.5900   -0.0380   -0.5950 cc        1 LLC     -0.144400
     23 C12         3.2570    1.1870   -0.2170 ca        1 LLC     -0.093800
     24 C14         3.8840    3.5090   -0.2880 ca        1 LLC     -0.206000
     25 O17         5.4780    4.3180    1.3730 oh        1 LLC     -0.496100
     26 C16         4.8620    2.0440    1.4210 ca        1 LLC     -0.133000
     27 C11         4.1210    0.9840    0.8940 ca        1 LLC     -0.048100
     28 S10         4.0890   -0.6240    1.3930 ss        1 LLC      0.036500
     29 C2          2.9660   -1.0950    0.2010 cd        1 LLC      0.011400
     30 C3          2.5440   -2.4750    0.1220 ca        1 LLC     -0.084800
     31 C9          2.4690   -3.1320   -1.1180 ca        1 LLC     -0.072500
     32 O7          1.3910   -6.4700   -0.1520 oh        1 LLC     -0.494100
     33 H4          2.2780   -2.6730    2.2680 ha        1 LLC      0.150500
     34 H5          1.5810   -5.0600    2.1520 ha        1 LLC      0.145500
     35 H8          2.0220   -4.9840   -2.1620 ha        1 LLC      0.145500
     36 H13         2.4890    2.6040   -1.6710 ha        1 LLC      0.147000
     37 H21        -0.3300    0.0660   -3.5270 ha        1 LLC      0.151000
     38 H22        -2.7090    0.7770   -3.1340 ha        1 LLC      0.147000
     39 H261       -5.9490    2.8480    1.0580 h1        1 LLC      0.047200
     40 H262       -5.8290    2.6080   -0.7500 h1        1 LLC      0.047200
     41 H282       -7.9990    0.6010   -1.1530 h1        1 LLC      0.043700
     42 H33         0.5480    0.6980    0.6610 ha        1 LLC      0.151000
     43 H32        -1.7900    1.4000    1.0660 ha        1 LLC      0.147000
     44 H251       -3.6540    2.7070    0.7990 h1        1 LLC      0.045200
     45 H252       -3.9920    0.9230    1.0760 h1        1 LLC      0.045200
     46 H311       -6.0670   -0.7410    1.4640 h1        1 LLC      0.043700
     47 H312       -6.0240    0.8280    2.3790 h1        1 LLC      0.043700
     48 H301       -8.2590   -1.0290    2.1490 hc        1 LLC      0.047700
     49 H302       -8.2550    0.5850    2.9560 hc        1 LLC      0.047700
     50 H291       -9.5450    1.4490    1.2230 hc        1 LLC      0.047700
     51 H292       -9.5330   -0.1600    0.4070 hc        1 LLC      0.047700
     52 H14         3.8150    4.5100   -0.7360 ha        1 LLC      0.137000
     53 HO17        5.3190    5.1180    0.8520 ho        1 LLC      0.421000
     54 H16         5.5340    1.9060    2.2800 ha        1 LLC      0.157000
     55 H9          2.7180   -2.5780   -2.0410 ha        1 LLC      0.150500
     56 HO7         1.1970   -6.8210    0.7300 ho        1 LLC      0.420000
     57 C18         1.6410   -0.0860   -1.7260 c         1 LLC      0.619900
     58 H281       -8.0870    2.2460   -0.3890 h1        1 LLC      0.043700
@<TRIPOS>BOND
     1    1    2 ar  
     2    1   30 ar  
     3    1   33 1   
     4    2    3 ar  
     5    2   34 1   
     6    3    4 ar  
     7    3   32 1   
     8    4   31 ar  
     9    4   35 1   
    10    5   23 ar  
    11    5   24 ar  
    12    5   36 1   
    13    6   24 ar  
    14    6   25 1   
    15    6   26 ar  
    16    7    8 ar  
    17    7   13 ar  
    18    7   57 1   
    19    8    9 ar  
    20    8   37 1   
    21    9   15 ar  
    22    9   38 1   
    23   10   17 1   
    24   10   18 1   
    25   10   39 1   
    26   10   40 1   
    27   11   18 1   
    28   11   21 1   
    29   11   41 1   
    30   11   58 1   
    31   12   57 2   
    32   13   14 ar  
    33   13   42 1   
    34   14   15 ar  
    35   14   43 1   
    36   15   16 1   
    37   16   17 1   
    38   17   44 1   
    39   17   45 1   
    40   18   19 1   
    41   19   20 1   
    42   19   46 1   
    43   19   47 1   
    44   20   21 1   
    45   20   48 1   
    46   20   49 1   
    47   21   50 1   
    48   21   51 1   
    49   22   23 1   
    50   22   29 2   
    51   22   57 1   
    52   23   27 ar  
    53   24   52 1   
    54   25   53 1   
    55   26   27 ar  
    56   26   54 1   
    57   27   28 1   
    58   28   29 1   
    59   29   30 1   
    60   30   31 ar  
    61   31   55 1   
    62   32   56 1   
@<TRIPOS>SUBSTRUCTURE
     1 LLC         1 TEMP              0 ****  ****    0 ROOT
