@<TRIPOS>MOLECULE
LLC
   58    60     1     0     0
SMALL
bcc


@<TRIPOS>ATOM
      1 C4          0.2800   -0.8260    0.6230 c2        1 LLC     -0.058000
      2 C5          1.0560   -1.8310    0.9060 c1        1 LLC     -0.352000
      3 C6          1.8740   -2.8070    1.2400 c2        1 LLC      0.145000
      4 C8          0.8450   -1.5870    3.2640 c1        1 LLC      0.135000
      5 C13        -5.2100    1.4170    2.2120 ca        1 LLC     -0.060000
      6 C15        -6.5680   -0.0980    0.8980 ca        1 LLC      0.089000
      7 C20        -2.4480    3.4510    2.4160 c3        1 LLC     -0.121000
      8 C21        -2.1710    4.5340    3.4310 c2        1 LLC     -0.089000
      9 C22        -1.9330    5.7070    2.8690 c1        1 LLC     -0.218000
     10 C26        -1.2520    9.0790   -0.2970 c3        1 LLC     -0.071000
     11 C28        -0.0960   10.9970   -1.2200 c3        1 LLC     -0.035000
     12 O19        -1.7950    1.8840    4.1340 o         1 LLC     -0.263000
     13 C33        -1.5200    3.6580    1.2320 c2        1 LLC     -0.116000
     14 C32        -1.0440    4.8700    0.8750 c2        1 LLC     -0.161000
     15 C23        -1.5860    6.0320    1.6120 c2        1 LLC      0.106000
     16 O24        -1.8590    7.2340    1.0290 os        1 LLC     -0.181000
     17 C25        -0.9860    7.5830   -0.0630 c3        1 LLC     -0.027000
     18 N27        -0.4540    9.5950   -1.3990 n3        1 LLC     -0.268000
     19 C31        -1.0410    9.3200   -2.6910 c3        1 LLC     -0.122000
     20 C30         1.9400   10.7940   -2.6870 c2        1 LLC     -0.203000
     21 C29         0.9600   11.5110   -2.1460 c2        1 LLC     -0.175000
     22 C1         -2.6820    0.9600    2.1340 c2        1 LLC     -0.159000
     23 C12        -4.0650    0.7210    1.7960 ca        1 LLC     -0.078000
     24 C14        -6.4550    1.0140    1.7650 ca        1 LLC     -0.198000
     25 O17        -7.7850   -0.5310    0.4240 oh        1 LLC     -0.248000
     26 C16        -5.4480   -0.8170    0.4800 ca        1 LLC     -0.129000
     27 C11        -4.1940   -0.4070    0.9360 ca        1 LLC     -0.281000
     28 S10        -2.6880   -1.0900    0.6130 ss        1 LLC      0.540000
     29 C2         -1.8440    0.0310    1.5600 c2        1 LLC     -0.292000
     30 C3         -0.3700   -0.0320    1.7250 c3        1 LLC      0.052000
     31 C9          0.0070   -0.5880    3.0590 c2        1 LLC     -0.469000
     32 O7          1.5360   -4.1250    1.3440 oh        1 LLC     -0.241000
     33 H4          0.0350    1.0260    1.6640 hc        1 LLC      0.120000
     34 H5          0.0820   -0.4850   -0.4070 ha        1 LLC      0.145000
     35 H8          2.9510   -2.6730    1.4560 h4        1 LLC      0.188000
     36 H13        -5.1160    2.2730    2.8970 ha        1 LLC      0.143000
     37 H21        -3.5060    3.5070    2.0210 hc        1 LLC      0.141000
     38 H22        -2.0680    4.2720    4.4890 ha        1 LLC      0.173000
     39 H261       -0.9940    9.6220    0.6560 h1        1 LLC      0.090500
     40 H262       -2.3590    9.2170   -0.4710 h1        1 LLC      0.090500
     41 H282        0.2960   11.1240   -0.1670 h1        1 LLC      0.078500
     42 H33        -0.3680    5.0280    0.0270 ha        1 LLC      0.148000
     43 H32        -1.2860    2.7510    0.6550 ha        1 LLC      0.143000
     44 H251       -1.2640    6.9640   -0.9540 h1        1 LLC      0.087500
     45 H252        0.0810    7.3970    0.2170 h1        1 LLC      0.087500
     46 H311       -1.1850    8.2130   -2.7970 h1        1 LLC      0.073333
     47 H312       -2.0350    9.8240   -2.8430 h1        1 LLC      0.073333
     48 H301       -0.3350    9.6730   -3.4890 h1        1 LLC      0.073333
     49 H302        2.0550    9.7130   -2.5260 ha        1 LLC      0.116500
     50 H291        2.7020   11.2490   -3.3340 ha        1 LLC      0.116500
     51 H292        0.8840   12.5970   -2.3250 ha        1 LLC      0.119000
     52 H14        -7.3620    1.5490    2.0830 ha        1 LLC      0.140000
     53 HO17       -8.4730    0.0360    0.8030 ho        1 LLC      0.222000
     54 H16        -5.5630   -1.6830   -0.1870 ha        1 LLC      0.159000
     55 H9         -0.4660   -0.0780    3.9250 ha        1 LLC      0.210000
     56 HO7         0.5770   -4.2240    1.2460 ho        1 LLC      0.227000
     57 C18        -2.2580    2.0690    3.0070 c2        1 LLC      0.307000
     58 H281       -1.0080   11.6600   -1.3200 h1        1 LLC      0.078500
@<TRIPOS>BOND
     1    1    2 1   
     2    1   30 1   
     3    1   34 1   
     4    2    3 1   
     5    3   32 1   
     6    3   35 1   
     7    4   31 1   
     8    5   23 1   
     9    5   24 1   
    10    5   36 1   
    11    6   24 1   
    12    6   25 1   
    13    6   26 1   
    14    7    8 1   
    15    7   13 1   
    16    7   37 1   
    17    7   57 1   
    18    8    9 1   
    19    8   38 1   
    20    9   15 1   
    21   10   17 1   
    22   10   18 1   
    23   10   39 1   
    24   10   40 1   
    25   11   18 1   
    26   11   21 1   
    27   11   41 1   
    28   11   58 1   
    29   12   57 1   
    30   13   14 1   
    31   13   43 1   
    32   14   15 1   
    33   14   42 1   
    34   15   16 1   
    35   16   17 1   
    36   17   44 1   
    37   17   45 1   
    38   18   19 1   
    39   19   46 1   
    40   19   47 1   
    41   19   48 1   
    42   20   21 1   
    43   20   49 1   
    44   20   50 1   
    45   21   51 1   
    46   22   23 1   
    47   22   29 1   
    48   22   57 1   
    49   23   27 1   
    50   24   52 1   
    51   25   53 1   
    52   26   27 1   
    53   26   54 1   
    54   27   28 1   
    55   28   29 1   
    56   29   30 1   
    57   30   31 1   
    58   30   33 1   
    59   31   55 1   
    60   32   56 1   
@<TRIPOS>SUBSTRUCTURE
     1 LLC         1 TEMP              0 ****  ****    0 ROOT
