@<TRIPOS>MOLECULE
LLC
   58    61     1     0     0
SMALL
bcc


@<TRIPOS>ATOM
      1 C4          0.0000    0.8160    0.6610 c2        1 LLC     -0.042000
      2 C5          1.1120    0.1460    0.5730 c1        1 LLC     -0.364000
      3 C6          2.2620   -0.4950    0.5320 c2        1 LLC      0.150000
      4 C8          1.0640   -0.6330    2.8000 c1        1 LLC      0.140000
      5 C13        -5.8330    0.6770    2.3200 ca        1 LLC     -0.048000
      6 C15        -6.6170   -1.2110    1.0220 ca        1 LLC      0.090000
      7 C20        -2.7300    3.4840    2.5510 c2        1 LLC     -0.190000
      8 C21        -2.0190    4.3980    3.4790 c3        1 LLC     -0.200000
      9 C22        -1.5160    5.6560    2.9600 c1        1 LLC     -0.021000
     10 C26        -0.8570    8.9320   -0.3330 c3        1 LLC     -0.071000
     11 C28         1.2260   10.1220   -0.7840 c3        1 LLC     -0.078500
     12 O19        -3.7640    2.2400    4.2800 o         1 LLC     -0.277000
     13 C33        -2.8970    3.8190    1.2480 c2        1 LLC     -0.079000
     14 C32        -2.4090    5.0670    0.7330 c2        1 LLC     -0.182000
     15 C23        -1.7740    5.9500    1.5660 c2        1 LLC      0.011000
     16 O24        -1.2990    7.1830    1.1890 os        1 LLC     -0.164000
     17 C25        -1.5020    7.5450   -0.1820 c3        1 LLC     -0.034000
     18 N27         0.4570    8.8860   -0.9460 n3        1 LLC     -0.247000
     19 C31         0.4500    8.5260   -2.3650 c3        1 LLC     -0.078500
     20 C30         1.1860    9.6050   -3.1750 c3        1 LLC     -0.174000
     21 C29         1.7000   10.6170   -2.1600 c3        1 LLC     -0.174000
     22 C1         -3.2950    1.0460    2.2830 c2        1 LLC     -0.146000
     23 C12        -4.5200    0.3650    1.9350 ca        1 LLC     -0.081000
     24 C14        -6.8780   -0.1050    1.8660 ca        1 LLC     -0.203000
     25 O17        -7.6270   -2.0110    0.5390 oh        1 LLC     -0.249000
     26 C16        -5.3190   -1.5500    0.6350 ca        1 LLC     -0.133000
     27 C11        -4.2660   -0.7580    1.1000 ca        1 LLC     -0.280000
     28 S10        -2.6140   -0.9380    0.8260 ss        1 LLC      0.539000
     29 C2         -2.1920    0.4220    1.7460 c2        1 LLC     -0.294000
     30 C3         -0.7780    0.8260    1.9500 c3        1 LLC      0.047000
     31 C9         -0.1000   -0.0310    2.9690 c2        1 LLC     -0.472000
     32 O7          2.4430   -1.7720    0.0880 oh        1 LLC     -0.241000
     33 H4         -0.7690    1.8950    2.3340 hc        1 LLC      0.123000
     34 H5         -0.4100    1.4230   -0.1620 ha        1 LLC      0.147000
     35 H8          3.2320   -0.0600    0.8430 h4        1 LLC      0.188000
     36 H13        -6.0120    1.5310    2.9930 ha        1 LLC      0.152000
     37 H21        -2.6990    4.6450    4.3550 hc        1 LLC      0.182500
     38 H22        -1.1320    3.8650    3.9440 hc        1 LLC      0.182500
     39 H261       -0.7450    9.3760    0.6990 h1        1 LLC      0.091000
     40 H262       -1.5800    9.5780   -0.9120 h1        1 LLC      0.091000
     41 H282        0.6370   10.9270   -0.2660 h1        1 LLC      0.083500
     42 H33        -2.5790    5.2700   -0.3350 ha        1 LLC      0.141000
     43 H32        -3.4270    3.1510    0.5490 ha        1 LLC      0.144000
     44 H251       -2.6030    7.6080   -0.3850 h1        1 LLC      0.082000
     45 H252       -1.0370    6.7770   -0.8530 h1        1 LLC      0.082000
     46 H311       -0.5940    8.3860   -2.7610 h1        1 LLC      0.083500
     47 H312        0.9850    7.5410   -2.4560 h1        1 LLC      0.083500
     48 H301        0.4930   10.0870   -3.9070 hc        1 LLC      0.087000
     49 H302        2.0280    9.1500   -3.7520 hc        1 LLC      0.087000
     50 H291        2.8150   10.6810   -2.1850 hc        1 LLC      0.087000
     51 H292        1.2960   11.6370   -2.3700 hc        1 LLC      0.087000
     52 H14        -7.9130    0.1210    2.1590 ha        1 LLC      0.139000
     53 HO17       -8.4640   -1.6880    0.9030 ho        1 LLC      0.221000
     54 H16        -5.1440   -2.4180   -0.0140 ha        1 LLC      0.158000
     55 H9         -0.6340   -0.1350    3.9320 ha        1 LLC      0.190000
     56 HO7         1.5830   -2.1730   -0.1110 ho        1 LLC      0.226000
     57 C18        -3.2960    2.2480    3.1340 c2        1 LLC      0.324000
     58 H281        2.1080    9.8700   -0.1340 h1        1 LLC      0.083500
@<TRIPOS>BOND
     1    1    2 1   
     2    1   30 1   
     3    1   34 1   
     4    2    3 1   
     5    3   32 1   
     6    3   35 1   
     7    4   31 1   
     8    5   23 1   
     9    5   24 1   
    10    5   36 1   
    11    6   24 1   
    12    6   25 1   
    13    6   26 1   
    14    7    8 1   
    15    7   13 1   
    16    7   57 1   
    17    8    9 1   
    18    8   37 1   
    19    8   38 1   
    20    9   15 1   
    21   10   17 1   
    22   10   18 1   
    23   10   39 1   
    24   10   40 1   
    25   11   18 1   
    26   11   21 1   
    27   11   41 1   
    28   11   58 1   
    29   12   57 1   
    30   13   14 1   
    31   13   43 1   
    32   14   15 1   
    33   14   42 1   
    34   15   16 1   
    35   16   17 1   
    36   17   44 1   
    37   17   45 1   
    38   18   19 1   
    39   19   20 1   
    40   19   46 1   
    41   19   47 1   
    42   20   21 1   
    43   20   48 1   
    44   20   49 1   
    45   21   50 1   
    46   21   51 1   
    47   22   23 1   
    48   22   29 1   
    49   22   57 1   
    50   23   27 1   
    51   24   52 1   
    52   25   53 1   
    53   26   27 1   
    54   26   54 1   
    55   27   28 1   
    56   28   29 1   
    57   29   30 1   
    58   30   31 1   
    59   30   33 1   
    60   31   55 1   
    61   32   56 1   
@<TRIPOS>SUBSTRUCTURE
     1 LLC         1 TEMP              0 ****  ****    0 ROOT
