@<TRIPOS>MOLECULE
LLF
   31    31     1     0     0
SMALL
bcc


@<TRIPOS>ATOM
      1 CBF         0.0810   -0.0050   -0.3740 c3        1 LLF      0.402900
      2 CAF         1.4540   -0.0750    0.3550 c3        1 LLF      0.084800
      3 F1         -0.9310    0.5430    0.3800 f         1 LLF     -0.252300
      4 F2          0.0880    0.7930   -1.4970 f         1 LLF     -0.252300
      5 NF          1.9160    1.1930    0.8370 n2        1 LLF     -0.691900
      6 C4A         2.4860    1.2490    1.9980 ce        1 LLF      0.537800
      7 C4          3.0670    2.4560    2.5890 ca        1 LLF     -0.261900
      8 C3          2.8200    3.7710    2.1320 ca        1 LLF      0.054800
      9 O3          2.0070    4.1010    1.0740 oh        1 LLF     -0.528100
     10 C2          3.4220    4.8750    2.7910 ca        1 LLF      0.294600
     11 C2A         3.1250    6.2460    2.2830 c3        1 LLF     -0.110400
     12 N1          4.2500    4.7070    3.8550 nb        1 LLF     -0.653000
     13 C5          3.9290    2.2930    3.6930 ca        1 LLF     -0.062600
     14 C6          4.4870    3.4640    4.2770 ca        1 LLF      0.362200
     15 C5M         4.2730    0.9520    4.2580 c3        1 LLF      0.190700
     16 O4P         5.1520    1.0180    5.3110 os        1 LLF     -0.555200
     17 P           5.4210   -0.6460    5.8450 p5        1 LLF      1.308900
     18 OP1         5.9600   -1.2390    4.5690 o         1 LLF     -0.925167
     19 OP2         6.3680   -0.4760    6.9930 o         1 LLF     -0.925167
     20 OP3         4.0010   -1.0420    6.1570 o         1 LLF     -0.925167
     21 HBF        -0.2060   -1.0610   -0.6720 h2        1 LLF      0.037700
     22 HAF1        2.1950   -0.4500   -0.4070 h1        1 LLF      0.060200
     23 HAF2        1.3430   -0.8630    1.1570 h1        1 LLF      0.060200
     24 H4A         2.6030    0.3430    2.6470 h4        1 LLF      0.026800
     25 HO3         1.6850    3.2880    0.6580 ho        1 LLF      0.446000
     26 H2A1        3.3980    6.3060    1.2000 hc        1 LLF      0.028367
     27 H2A2        2.0280    6.4440    2.3750 hc        1 LLF      0.028367
     28 H2A3        3.6830    7.0350    2.8410 hc        1 LLF      0.028367
     29 H6          5.1670    3.3250    5.1440 h4        1 LLF      0.076100
     30 H5M1        4.7270    0.3130    3.4370 h1        1 LLF      0.057200
     31 H5M2        3.3170    0.4470    4.6090 h1        1 LLF      0.057200
@<TRIPOS>BOND
     1    1    2 1   
     2    1    3 1   
     3    1    4 1   
     4    1   21 1   
     5    2    5 1   
     6    2   22 1   
     7    2   23 1   
     8    5    6 2   
     9    6    7 1   
    10    6   24 1   
    11    7    8 ar  
    12    7   13 ar  
    13    8    9 1   
    14    8   10 ar  
    15    9   25 1   
    16   10   11 1   
    17   10   12 ar  
    18   11   26 1   
    19   11   27 1   
    20   11   28 1   
    21   12   14 ar  
    22   13   14 ar  
    23   13   15 1   
    24   14   29 1   
    25   15   16 1   
    26   15   30 1   
    27   15   31 1   
    28   16   17 1   
    29   17   18 1   
    30   17   19 1   
    31   17   20 1   
@<TRIPOS>SUBSTRUCTURE
     1 LLF         1 TEMP              0 ****  ****    0 ROOT
