@<TRIPOS>MOLECULE
LLF
   31    31     1     0     0
SMALL
bcc


@<TRIPOS>ATOM
      1 CBF         0.2280   -0.0200   -0.4910 c3        1 LLF      0.402900
      2 CAF         1.5800   -0.0830    0.2770 c3        1 LLF      0.084800
      3 F1         -0.8090    0.5170    0.2350 f         1 LLF     -0.252300
      4 F2          0.2620    0.7810   -1.6110 f         1 LLF     -0.252300
      5 NF          2.0190    1.1870    0.7760 n2        1 LLF     -0.691900
      6 C4A         2.5550    1.2440    1.9540 ce        1 LLF      0.537800
      7 C4          3.1090    2.4530    2.5640 ca        1 LLF     -0.261900
      8 C3          2.8650    3.7680    2.1050 ca        1 LLF      0.054800
      9 O3          2.0800    4.0950    1.0250 oh        1 LLF     -0.528100
     10 C2          3.4400    4.8740    2.7840 ca        1 LLF      0.294600
     11 C2A         3.1470    6.2440    2.2720 c3        1 LLF     -0.110400
     12 N1          4.2380    4.7090    3.8710 nb        1 LLF     -0.653000
     13 C5          3.9400    2.2930    3.6920 ca        1 LLF     -0.062600
     14 C6          4.4720    3.4660    4.2950 ca        1 LLF      0.362200
     15 C5M         4.2790    0.9520    4.2620 c3        1 LLF      0.190700
     16 O4P         5.1270    1.0220    5.3400 os        1 LLF     -0.555200
     17 P           5.3930   -0.6420    5.8760 p5        1 LLF      1.308900
     18 OP1         5.9720   -1.2260    4.6150 o         1 LLF     -0.925167
     19 OP2         6.3060   -0.4690    7.0510 o         1 LLF     -0.925167
     20 OP3         3.9680   -1.0480    6.1480 o         1 LLF     -0.925167
     21 HBF        -0.0420   -1.0780   -0.8010 h2        1 LLF      0.037700
     22 HAF1        1.4530   -0.8740    1.0730 h1        1 LLF      0.060200
     23 HAF2        2.3460   -0.4500   -0.4650 h1        1 LLF      0.060200
     24 H4A         2.6600    0.3360    2.6020 h4        1 LLF      0.026800
     25 HO3         1.7760    3.2810    0.5970 ho        1 LLF      0.446000
     26 H2A1        3.6830    7.0360    2.8480 hc        1 LLF      0.028367
     27 H2A2        3.4480    6.3090    1.1970 hc        1 LLF      0.028367
     28 H2A3        2.0460    6.4340    2.3340 hc        1 LLF      0.028367
     29 H6          5.1280    3.3290    5.1810 h4        1 LLF      0.076100
     30 H5M1        3.3170    0.4390    4.5850 h1        1 LLF      0.057200
     31 H5M2        4.7600    0.3200    3.4520 h1        1 LLF      0.057200
@<TRIPOS>BOND
     1    1    2 1   
     2    1    3 1   
     3    1    4 1   
     4    1   21 1   
     5    2    5 1   
     6    2   22 1   
     7    2   23 1   
     8    5    6 2   
     9    6    7 1   
    10    6   24 1   
    11    7    8 ar  
    12    7   13 ar  
    13    8    9 1   
    14    8   10 ar  
    15    9   25 1   
    16   10   11 1   
    17   10   12 ar  
    18   11   26 1   
    19   11   27 1   
    20   11   28 1   
    21   12   14 ar  
    22   13   14 ar  
    23   13   15 1   
    24   14   29 1   
    25   15   16 1   
    26   15   30 1   
    27   15   31 1   
    28   16   17 1   
    29   17   18 1   
    30   17   19 1   
    31   17   20 1   
@<TRIPOS>SUBSTRUCTURE
     1 LLF         1 TEMP              0 ****  ****    0 ROOT
