@<TRIPOS>MOLECULE
LLF
   31    31     1     0     0
SMALL
bcc


@<TRIPOS>ATOM
      1 CBF        -4.1300   -2.6920   -0.1890 c3        1 LLF      0.402900
      2 CAF        -2.7380   -2.2660   -0.7400 c3        1 LLF      0.084800
      3 F1         -4.3220   -2.4020    1.1420 f         1 LLF     -0.252300
      4 F2         -5.1880   -2.0510   -0.7950 f         1 LLF     -0.252300
      5 NF         -2.4480   -0.8740   -0.5580 n2        1 LLF     -0.691900
      6 C4A        -1.2490   -0.5260   -0.2130 ce        1 LLF      0.537800
      7 C4         -0.7890    0.8540   -0.0580 ca        1 LLF     -0.261900
      8 C3         -1.6430    1.9770    0.0440 ca        1 LLF      0.054800
      9 O3         -3.0150    1.9330    0.0100 oh        1 LLF     -0.528100
     10 C2         -1.0900    3.2740    0.2100 ca        1 LLF      0.294600
     11 C2A        -2.0260    4.4290    0.3260 c3        1 LLF     -0.110400
     12 N1          0.2530    3.4770    0.2640 nb        1 LLF     -0.653000
     13 C5          0.6020    1.0770   -0.0030 ca        1 LLF     -0.062600
     14 C6          1.0530    2.4160    0.1590 ca        1 LLF      0.362200
     15 C5M         1.6030   -0.0300   -0.1110 c3        1 LLF      0.190700
     16 O4P         2.9020    0.4090   -0.0640 os        1 LLF     -0.555200
     17 P           3.9220   -1.0300   -0.1890 p5        1 LLF      1.308900
     18 OP1         3.4510   -1.5610   -1.5170 o         1 LLF     -0.925167
     19 OP2         5.3070   -0.4620   -0.1140 o         1 LLF     -0.925167
     20 OP3         3.4140   -1.8020    1.0000 o         1 LLF     -0.925167
     21 HBF        -4.2360   -3.8100   -0.3450 h2        1 LLF      0.037700
     22 HAF1       -2.7620   -2.4760   -1.8480 h1        1 LLF      0.060200
     23 HAF2       -1.9860   -2.9620   -0.2650 h1        1 LLF      0.060200
     24 H4A        -0.4430   -1.2820   -0.0260 h4        1 LLF      0.026800
     25 HO3        -3.2980    1.0210   -0.1570 ho        1 LLF      0.446000
     26 H2A1       -2.6940    4.4540   -0.5710 hc        1 LLF      0.028367
     27 H2A2       -2.6690    4.2950    1.2310 hc        1 LLF      0.028367
     28 H2A3       -1.4900    5.4050    0.4050 hc        1 LLF      0.028367
     29 H6          2.1510    2.5810    0.1980 h4        1 LLF      0.076100
     30 H5M1        1.4310   -0.7620    0.7420 h1        1 LLF      0.057200
     31 H5M2        1.4330   -0.5840   -1.0870 h1        1 LLF      0.057200
@<TRIPOS>BOND
     1    1    2 1   
     2    1    3 1   
     3    1    4 1   
     4    1   21 1   
     5    2    5 1   
     6    2   22 1   
     7    2   23 1   
     8    5    6 2   
     9    6    7 1   
    10    6   24 1   
    11    7    8 ar  
    12    7   13 ar  
    13    8    9 1   
    14    8   10 ar  
    15    9   25 1   
    16   10   11 1   
    17   10   12 ar  
    18   11   26 1   
    19   11   27 1   
    20   11   28 1   
    21   12   14 ar  
    22   13   14 ar  
    23   13   15 1   
    24   14   29 1   
    25   15   16 1   
    26   15   30 1   
    27   15   31 1   
    28   16   17 1   
    29   17   18 1   
    30   17   19 1   
    31   17   20 1   
@<TRIPOS>SUBSTRUCTURE
     1 LLF         1 TEMP              0 ****  ****    0 ROOT
