@<TRIPOS>MOLECULE
LLF
   31    31     1     0     0
SMALL
bcc


@<TRIPOS>ATOM
      1 CBF         0.2230   -0.0270   -0.4810 c3        1 LLF      0.402900
      2 CAF         1.5740   -0.0910    0.2880 c3        1 LLF      0.084800
      3 F1         -0.8130    0.5190    0.2410 f         1 LLF     -0.252300
      4 F2          0.2600    0.7670   -1.6060 f         1 LLF     -0.252300
      5 NF          2.0170    1.1800    0.7800 n2        1 LLF     -0.691900
      6 C4A         2.5530    1.2420    1.9570 ce        1 LLF      0.537800
      7 C4          3.1110    2.4530    2.5610 ca        1 LLF     -0.261900
      8 C3          2.8730    3.7660    2.0930 ca        1 LLF      0.054800
      9 O3          2.0910    4.0900    1.0110 oh        1 LLF     -0.528100
     10 C2          3.4520    4.8740    2.7660 ca        1 LLF      0.294600
     11 C2A         3.1650    6.2420    2.2460 c3        1 LLF     -0.110400
     12 N1          4.2490    4.7120    3.8550 nb        1 LLF     -0.653000
     13 C5          3.9410    2.2970    3.6900 ca        1 LLF     -0.062600
     14 C6          4.4770    3.4700    4.2870 ca        1 LLF      0.362200
     15 C5M         4.2740    0.9580    4.2690 c3        1 LLF      0.190700
     16 O4P         5.1210    1.0300    5.3470 os        1 LLF     -0.555200
     17 P           5.3790   -0.6310    5.8940 p5        1 LLF      1.308900
     18 OP1         5.9570   -1.2260    4.6370 o         1 LLF     -0.925167
     19 OP2         6.2920   -0.4550    7.0690 o         1 LLF     -0.925167
     20 OP3         3.9520   -1.0300    6.1670 o         1 LLF     -0.925167
     21 HBF        -0.0520   -1.0850   -0.7850 h2        1 LLF      0.037700
     22 HAF1        1.4420   -0.8760    1.0890 h1        1 LLF      0.060200
     23 HAF2        2.3380   -0.4650   -0.4510 h1        1 LLF      0.060200
     24 H4A         2.6540    0.3380    2.6110 h4        1 LLF      0.026800
     25 HO3         1.7840    3.2740    0.5880 ho        1 LLF      0.446000
     26 H2A1        3.7040    7.0350    2.8170 hc        1 LLF      0.028367
     27 H2A2        3.4680    6.3000    1.1710 hc        1 LLF      0.028367
     28 H2A3        2.0660    6.4370    2.3050 hc        1 LLF      0.028367
     29 H6          5.1320    3.3360    5.1750 h4        1 LLF      0.076100
     30 H5M1        3.3090    0.4510    4.5940 h1        1 LLF      0.057200
     31 H5M2        4.7530    0.3180    3.4630 h1        1 LLF      0.057200
@<TRIPOS>BOND
     1    1    2 1   
     2    1    3 1   
     3    1    4 1   
     4    1   21 1   
     5    2    5 1   
     6    2   22 1   
     7    2   23 1   
     8    5    6 2   
     9    6    7 1   
    10    6   24 1   
    11    7    8 ar  
    12    7   13 ar  
    13    8    9 1   
    14    8   10 ar  
    15    9   25 1   
    16   10   11 1   
    17   10   12 ar  
    18   11   26 1   
    19   11   27 1   
    20   11   28 1   
    21   12   14 ar  
    22   13   14 ar  
    23   13   15 1   
    24   14   29 1   
    25   15   16 1   
    26   15   30 1   
    27   15   31 1   
    28   16   17 1   
    29   17   18 1   
    30   17   19 1   
    31   17   20 1   
@<TRIPOS>SUBSTRUCTURE
     1 LLF         1 TEMP              0 ****  ****    0 ROOT
