@<TRIPOS>MOLECULE
LLG
   33    34     1     0     0
SMALL
bcc


@<TRIPOS>ATOM
      1 N1          0.4520   -0.4200   -0.0170 n4        1 LLG     -0.832600
      2 C4          1.1540    0.3510    2.2650 c3        1 LLG      0.116400
      3 C5          1.4770    0.3260    0.7670 c3        1 LLG      0.057800
      4 C6          1.6360   -2.9040    3.9720 c3        1 LLG     -0.065100
      5 C7          1.9840   -1.7540    3.0780 c         1 LLG      0.646100
      6 C10        -0.4520   -0.5320    6.9480 ca        1 LLG     -0.107000
      7 C13         1.9600   -1.7990    7.6200 ca        1 LLG     -0.042000
      8 C15         2.1680   -2.6930    5.3480 ca        1 LLG     -0.118300
      9 C17         3.8680   -3.1700    7.0170 ca        1 LLG     -0.135000
     10 O6          0.8890   -0.9570    2.7530 os        1 LLG     -0.480900
     11 C16         3.3550   -3.3000    5.7070 ca        1 LLG     -0.082000
     12 C18         3.1840   -2.4380    7.9560 ca        1 LLG     -0.083000
     13 C14         1.4430   -1.9150    6.3020 ca        1 LLG     -0.018000
     14 C9          0.2220   -1.2540    5.9930 ca        1 LLG     -0.150000
     15 C11         0.0620   -0.4260    8.2620 ca        1 LLG     -0.126000
     16 C12         1.2430   -1.0430    8.5890 ca        1 LLG     -0.101000
     17 O8          3.0420   -1.4320    2.5440 o         1 LLG     -0.521000
     18 HN1         0.7720   -0.5600   -0.9790 hn        1 LLG      0.463133
     19 HN1A       -0.4340    0.0940   -0.0260 hn        1 LLG      0.463133
     20 H4          2.0320    0.8120    2.7960 h1        1 LLG      0.108200
     21 H4A         0.2150    0.9260    2.4870 h1        1 LLG      0.108200
     22 H5          1.5370    1.3800    0.3740 hx        1 LLG      0.130700
     23 H5A         2.4740   -0.1890    0.6160 hx        1 LLG      0.130700
     24 H6          0.5210   -3.0430    3.9970 hc        1 LLG      0.093700
     25 H6A         2.0940   -3.8260    3.5150 hc        1 LLG      0.093700
     26 H17         4.8170   -3.6680    7.2700 ha        1 LLG      0.150000
     27 H16         3.9200   -3.8990    4.9760 ha        1 LLG      0.139000
     28 H18         3.5700   -2.3360    8.9830 ha        1 LLG      0.148000
     29 H9         -0.1790   -1.3210    4.9700 ha        1 LLG      0.122000
     30 H11        -0.4980    0.1540    9.0120 ha        1 LLG      0.146000
     31 H12         1.6560   -0.9680    9.6070 ha        1 LLG      0.146000
     32 H13         0.2920   -1.3330    0.4280 hn        1 LLG      0.463133
     33 H10        -1.4000   -0.0300    6.7040 ha        1 LLG      0.135000
@<TRIPOS>BOND
     1    1    3 1   
     2    1   18 1   
     3    1   19 1   
     4    1   32 1   
     5    2    3 1   
     6    2   10 1   
     7    2   20 1   
     8    2   21 1   
     9    3   22 1   
    10    3   23 1   
    11    4    5 1   
    12    4    8 1   
    13    4   24 1   
    14    4   25 1   
    15    5   10 1   
    16    5   17 2   
    17    6   14 ar  
    18    6   15 ar  
    19    6   33 1   
    20    7   12 ar  
    21    7   13 ar  
    22    7   16 ar  
    23    8   11 ar  
    24    8   13 ar  
    25    9   11 ar  
    26    9   12 ar  
    27    9   26 1   
    28   11   27 1   
    29   12   28 1   
    30   13   14 ar  
    31   14   29 1   
    32   15   16 ar  
    33   15   30 1   
    34   16   31 1   
@<TRIPOS>SUBSTRUCTURE
     1 LLG         1 TEMP              0 ****  ****    0 ROOT
