@<TRIPOS>MOLECULE
LLG
   32    33     1     0     0
SMALL
bcc


@<TRIPOS>ATOM
      1 N1          3.6740    2.1800    0.2020 n3        1 LLG     -0.913800
      2 C4          3.4960   -0.2300    0.7910 c3        1 LLG      0.132400
      3 C5          4.3540    0.9080    0.2330 c3        1 LLG      0.156800
      4 C6          0.5710   -1.6730   -1.0000 c3        1 LLG     -0.080100
      5 C7          1.6210   -1.5200    0.0620 c         1 LLG      0.638100
      6 C10        -0.8940    2.3690   -0.4490 ca        1 LLG     -0.121000
      7 C13        -2.5890    0.1960    0.0780 ca        1 LLG     -0.039000
      8 C15        -0.7980   -1.3810   -0.4900 ca        1 LLG     -0.079300
      9 C17        -2.9730   -2.1930    0.2300 ca        1 LLG     -0.131000
     10 O6          2.4620   -0.4650   -0.1780 os        1 LLG     -0.458900
     11 C16        -1.6470   -2.4290   -0.2010 ca        1 LLG     -0.104000
     12 C18        -3.4380   -0.9090    0.3610 ca        1 LLG     -0.107000
     13 C14        -1.2520   -0.0350   -0.3410 ca        1 LLG     -0.022000
     14 C9         -0.4160    1.0890   -0.5910 ca        1 LLG     -0.127000
     15 C11        -2.2320    2.5940   -0.0470 ca        1 LLG     -0.127000
     16 C12        -3.0600    1.5310    0.2140 ca        1 LLG     -0.116000
     17 O8          1.8330   -2.2190    1.0520 o         1 LLG     -0.530000
     18 HN1         4.1820    2.8310   -0.3630 hn        1 LLG      0.353300
     19 HN1A        2.7460    2.0790   -0.1610 hn        1 LLG      0.353300
     20 H4          4.1110   -1.1600    0.9070 h1        1 LLG      0.063700
     21 H4A         3.0190    0.0310    1.7710 h1        1 LLG      0.063700
     22 H5          4.7290    0.5890   -0.7840 h1        1 LLG      0.037700
     23 H5A         5.2490    1.0150    0.9100 h1        1 LLG      0.037700
     24 H6          0.8120   -1.0000   -1.8670 hc        1 LLG      0.083700
     25 H6A         0.6310   -2.7360   -1.3640 hc        1 LLG      0.083700
     26 H17        -3.6200   -3.0530    0.4550 ha        1 LLG      0.136000
     27 H16        -1.3010   -3.4700   -0.2990 ha        1 LLG      0.137000
     28 H18        -4.4700   -0.7120    0.6890 ha        1 LLG      0.135000
     29 H9          0.6340    0.9190   -0.8810 ha        1 LLG      0.142000
     30 H11        -2.5930    3.6280    0.0580 ha        1 LLG      0.134000
     31 H12        -4.1000    1.6910    0.5360 ha        1 LLG      0.133000
     32 H10        -0.2410    3.2330   -0.6400 ha        1 LLG      0.133000
@<TRIPOS>BOND
     1    1    3 1   
     2    1   18 1   
     3    1   19 1   
     4    2    3 1   
     5    2   10 1   
     6    2   20 1   
     7    2   21 1   
     8    3   22 1   
     9    3   23 1   
    10    4    5 1   
    11    4    8 1   
    12    4   24 1   
    13    4   25 1   
    14    5   10 1   
    15    5   17 2   
    16    6   14 ar  
    17    6   15 ar  
    18    6   32 1   
    19    7   12 ar  
    20    7   13 ar  
    21    7   16 ar  
    22    8   11 ar  
    23    8   13 ar  
    24    9   11 ar  
    25    9   12 ar  
    26    9   26 1   
    27   11   27 1   
    28   12   28 1   
    29   13   14 ar  
    30   14   29 1   
    31   15   16 ar  
    32   15   30 1   
    33   16   31 1   
@<TRIPOS>SUBSTRUCTURE
     1 LLG         1 TEMP              0 ****  ****    0 ROOT
