@<TRIPOS>MOLECULE
LLG
   33    34     1     0     0
SMALL
bcc


@<TRIPOS>ATOM
      1 N1          0.4800   -0.3820   -0.0160 nz        1 LLG     -0.832600
      2 C4          1.1680    0.3690    2.2770 c3        1 LLG      0.116400
      3 C5          1.5000    0.3570    0.7810 c3        1 LLG      0.057800
      4 C6          1.6390   -2.8990    3.9590 c3        1 LLG     -0.065100
      5 C7          1.9920   -1.7420    3.0770 c         1 LLG      0.646100
      6 C10        -0.4660   -0.5520    6.9420 ca        1 LLG     -0.107000
      7 C13         1.9410   -1.8240    7.6190 ca        1 LLG     -0.042000
      8 C15         2.1630   -2.7000    5.3410 ca        1 LLG     -0.118300
      9 C17         3.8520   -3.1920    7.0160 ca        1 LLG     -0.135000
     10 O6          0.9000   -0.9420    2.7530 os        1 LLG     -0.480900
     11 C16         3.3470   -3.3100    5.7020 ca        1 LLG     -0.082000
     12 C18         3.1630   -2.4670    7.9570 ca        1 LLG     -0.083000
     13 C14         1.4320   -1.9300    6.2970 ca        1 LLG     -0.018000
     14 C9          0.2130   -1.2650    5.9850 ca        1 LLG     -0.150000
     15 C11         0.0390   -0.4560    8.2600 ca        1 LLG     -0.126000
     16 C12         1.2180   -1.0770    8.5900 ca        1 LLG     -0.101000
     17 O8          3.0540   -1.4150    2.5530 o         1 LLG     -0.521000
     18 HN1         0.8060   -0.5150   -0.9770 hn        1 LLG      0.463133
     19 HN1A       -0.4060    0.1320   -0.0260 hn        1 LLG      0.463133
     20 H4          2.0430    0.8260    2.8170 h1        1 LLG      0.108200
     21 H4A         0.2270    0.9430    2.4980 h1        1 LLG      0.108200
     22 H5          1.5630    1.4150    0.3970 hx        1 LLG      0.130700
     23 H5A         2.4990   -0.1560    0.6310 hx        1 LLG      0.130700
     24 H6          0.5240   -3.0380    3.9770 hc        1 LLG      0.093700
     25 H6A         2.1000   -3.8170    3.4980 hc        1 LLG      0.093700
     26 H17         4.7990   -3.6920    7.2710 ha        1 LLG      0.150000
     27 H16         3.9170   -3.9040    4.9700 ha        1 LLG      0.139000
     28 H18         3.5420   -2.3730    8.9870 ha        1 LLG      0.148000
     29 H9         -0.1810   -1.3240    4.9600 ha        1 LLG      0.122000
     30 H11        -0.5250    0.1170    9.0110 ha        1 LLG      0.146000
     31 H12         1.6250   -1.0100    9.6110 ha        1 LLG      0.146000
     32 H13         0.3180   -1.2990    0.4210 hn        1 LLG      0.463133
     33 H10        -1.4130   -0.0470    6.6970 ha        1 LLG      0.135000
@<TRIPOS>BOND
     1    1    3 1   
     2    1   18 1   
     3    1   19 1   
     4    1   32 1   
     5    2    3 1   
     6    2   10 1   
     7    2   20 1   
     8    2   21 1   
     9    3   22 1   
    10    3   23 1   
    11    4    5 1   
    12    4    8 1   
    13    4   24 1   
    14    4   25 1   
    15    5   10 1   
    16    5   17 2   
    17    6   14 ar  
    18    6   15 ar  
    19    6   33 1   
    20    7   12 ar  
    21    7   13 ar  
    22    7   16 ar  
    23    8   11 ar  
    24    8   13 ar  
    25    9   11 ar  
    26    9   12 ar  
    27    9   26 1   
    28   11   27 1   
    29   12   28 1   
    30   13   14 ar  
    31   14   29 1   
    32   15   16 ar  
    33   15   30 1   
    34   16   31 1   
@<TRIPOS>SUBSTRUCTURE
     1 LLG         1 TEMP              0 ****  ****    0 ROOT
