@<TRIPOS>MOLECULE
LLG
   33    34     1     0     0
SMALL
bcc


@<TRIPOS>ATOM
      1 N1          0.4970   -0.4000   -0.0230 n4        1 LLG     -0.832600
      2 C4          1.1450    0.3640    2.2770 c3        1 LLG      0.116400
      3 C5          1.4900    0.3640    0.7840 c3        1 LLG      0.057800
      4 C6          1.6890   -2.8930    3.9580 c3        1 LLG     -0.065100
      5 C7          2.0190   -1.7260    3.0810 c         1 LLG      0.646100
      6 C10        -0.5100   -0.6130    6.9240 ca        1 LLG     -0.107000
      7 C13         1.9250   -1.8170    7.6220 ca        1 LLG     -0.042000
      8 C15         2.1940   -2.6820    5.3450 ca        1 LLG     -0.118300
      9 C17         3.8800   -3.1280    7.0350 ca        1 LLG     -0.135000
     10 O6          0.9080   -0.9540    2.7480 os        1 LLG     -0.480900
     11 C16         3.3920   -3.2590    5.7160 ca        1 LLG     -0.082000
     12 C18         3.1620   -2.4260    7.9710 ca        1 LLG     -0.083000
     13 C14         1.4320   -1.9350    6.2950 ca        1 LLG     -0.018000
     14 C9          0.1980   -1.3050    5.9730 ca        1 LLG     -0.150000
     15 C11        -0.0210   -0.5060    8.2480 ca        1 LLG     -0.126000
     16 C12         1.1730   -1.0930    8.5870 ca        1 LLG     -0.101000
     17 O8          3.0760   -1.3690    2.5670 o         1 LLG     -0.521000
     18 HN1         0.3550   -1.3220    0.4100 hn        1 LLG      0.463133
     19 HN1A       -0.4020    0.0900   -0.0400 hn        1 LLG      0.463133
     20 H4          0.1870    0.9120    2.4910 h1        1 LLG      0.108200
     21 H4A         2.0020    0.8440    2.8250 h1        1 LLG      0.108200
     22 H5          2.5030   -0.1220    0.6420 hx        1 LLG      0.130700
     23 H5A         1.5280    1.4240    0.4030 hx        1 LLG      0.130700
     24 H6          2.1800   -3.7980    3.5000 hc        1 LLG      0.093700
     25 H6A         0.5790   -3.0640    3.9650 hc        1 LLG      0.093700
     26 H17         4.8390   -3.6020    7.2980 ha        1 LLG      0.150000
     27 H16         3.9850   -3.8340    4.9880 ha        1 LLG      0.139000
     28 H18         3.5290   -2.3230    9.0040 ha        1 LLG      0.148000
     29 H9         -0.1850   -1.3730    4.9440 ha        1 LLG      0.122000
     30 H11        -0.6080    0.0500    8.9940 ha        1 LLG      0.146000
     31 H12         1.5680   -1.0160    9.6130 ha        1 LLG      0.146000
     32 H13         0.8350   -0.5220   -0.9820 hn        1 LLG      0.463133
     33 H10        -1.4690   -0.1350    6.6710 ha        1 LLG      0.135000
@<TRIPOS>BOND
     1    1    3 1   
     2    1   18 1   
     3    1   19 1   
     4    1   32 1   
     5    2    3 1   
     6    2   10 1   
     7    2   20 1   
     8    2   21 1   
     9    3   22 1   
    10    3   23 1   
    11    4    5 1   
    12    4    8 1   
    13    4   24 1   
    14    4   25 1   
    15    5   10 1   
    16    5   17 2   
    17    6   14 ar  
    18    6   15 ar  
    19    6   33 1   
    20    7   12 ar  
    21    7   13 ar  
    22    7   16 ar  
    23    8   11 ar  
    24    8   13 ar  
    25    9   11 ar  
    26    9   12 ar  
    27    9   26 1   
    28   11   27 1   
    29   12   28 1   
    30   13   14 ar  
    31   14   29 1   
    32   15   16 ar  
    33   15   30 1   
    34   16   31 1   
@<TRIPOS>SUBSTRUCTURE
     1 LLG         1 TEMP              0 ****  ****    0 ROOT
