@<TRIPOS>MOLECULE
LLH
   21    19     1     0     0
SMALL
bcc


@<TRIPOS>ATOM
      1 O5A        -2.2760   -1.3750   -2.8420 o         1 LLH     -0.594000
      2 C5         -1.0970   -1.5840   -2.4550 c1        1 LLH      0.313000
      3 O5B        -0.2060   -1.8960   -3.2890 os        1 LLH     -0.523000
      4 C4         -0.7480   -1.4560   -0.9890 c3        1 LLH     -0.083000
      5 O4         -1.8530   -1.8470   -0.2090 oh        1 LLH     -0.355000
      6 C3         -0.3940   -0.0200   -0.6780 c3        1 LLH      0.001000
      7 O3         -1.5280    0.6430   -0.1700 oh        1 LLH     -0.389000
      8 C2          0.7130    0.0150    0.3490 c3        1 LLH      0.007000
      9 O2          1.9100   -0.4410   -0.2350 oh        1 LLH     -0.307000
     10 C1          0.9000    1.4320    0.8410 c2        1 LLH      0.220000
     11 O1          0.9750    2.3470    0.0450 o         1 LLH     -0.369000
     12 N           0.9850    1.6950    2.2330 n         1 LLH     -0.188000
     13 ON          1.1540    2.9790    2.6780 oh        1 LLH     -0.253000
     14 H4          0.0150   -2.0320   -0.7840 h1        1 LLH      0.118000
     15 HO4        -1.8470   -2.7300   -0.1070 ho        1 LLH      0.219000
     16 H3         -0.0950    0.4260   -1.4950 h1        1 LLH      0.091000
     17 HO3        -1.7980    1.2580   -0.7530 ho        1 LLH      0.262000
     18 H2          0.4770   -0.5630    1.1020 h1        1 LLH      0.159000
     19 HO2         2.4150   -0.8280    0.3870 ho        1 LLH      0.210000
     20 HN          0.9280    1.0080    2.8320 hn        1 LLH      0.242000
     21 HON         1.3700    2.9680    3.5410 ho        1 LLH      0.220000
@<TRIPOS>BOND
     1    1    2 1   
     2    2    4 1   
     3    4    5 1   
     4    4    6 1   
     5    4   14 1   
     6    5   15 1   
     7    6    7 1   
     8    6    8 1   
     9    6   16 1   
    10    7   17 1   
    11    8    9 1   
    12    8   10 1   
    13    8   18 1   
    14    9   19 1   
    15   10   11 1   
    16   10   12 1   
    17   12   13 1   
    18   12   20 1   
    19   13   21 1   
@<TRIPOS>SUBSTRUCTURE
     1 LLH         1 TEMP              0 ****  ****    0 ROOT
