@<TRIPOS>MOLECULE
LLH
   22    21     1     0     0
SMALL
bcc


@<TRIPOS>ATOM
      1 O5A         0.5510    1.4460    2.3140 o         1 LLH     -0.826300
      2 C5          1.1590    1.3890    1.2010 c         1 LLH      0.868600
      3 O5B         1.1960    2.3490    0.3770 o         1 LLH     -0.826300
      4 C4          2.1240    0.2120    0.9820 c3        1 LLH     -0.006900
      5 O4          1.8500   -0.9010    1.8020 oh        1 LLH     -0.607800
      6 C3          3.5220    0.7710    1.3510 c3        1 LLH      0.105100
      7 O3          3.8430    1.9260    0.5940 oh        1 LLH     -0.642800
      8 C2          3.5510    1.1590    2.8530 c3        1 LLH      0.076100
      9 O2          4.6730    0.6050    3.5150 oh        1 LLH     -0.575800
     10 C1          3.6840    2.6600    3.0520 c         1 LLH      0.570100
     11 O1          4.6040    3.2960    3.5370 o         1 LLH     -0.431100
     12 N           2.4940    3.4790    2.5820 n4        1 LLH     -0.487300
     13 ON          2.5100    4.7540    3.0190 oh        1 LLH     -0.369300
     14 H4          2.1270   -0.1390   -0.0830 h1        1 LLH      0.089700
     15 HO4         1.0730   -0.6790    2.3440 ho        1 LLH      0.439000
     16 H3          4.3180   -0.0020    1.1630 h1        1 LLH      0.084700
     17 HO3         3.2420    1.9720   -0.1710 ho        1 LLH      0.460000
     18 H2          2.5940    0.8110    3.3540 h1        1 LLH      0.120700
     19 HO2         4.5920   -0.3560    3.4230 ho        1 LLH      0.441000
     20 HN          1.5820    3.0540    2.9220 hn        1 LLH      0.528800
     21 HON         3.4370    5.0870    2.9830 ho        1 LLH      0.460000
     22 HN3         2.4440    3.4470    1.5230 hn        1 LLH      0.528800
@<TRIPOS>BOND
     1    1    2 1   
     2    2    3 1   
     3    2    4 1   
     4    4    5 1   
     5    4    6 1   
     6    4   14 1   
     7    5   15 1   
     8    6    7 1   
     9    6    8 1   
    10    6   16 1   
    11    7   17 1   
    12    8    9 1   
    13    8   10 1   
    14    8   18 1   
    15    9   19 1   
    16   10   11 2   
    17   10   12 1   
    18   12   13 1   
    19   12   20 1   
    20   12   22 1   
    21   13   21 1   
@<TRIPOS>SUBSTRUCTURE
     1 LLH         1 TEMP              0 ****  ****    0 ROOT
