@<TRIPOS>MOLECULE
LLH
   21    20     1     0     0
SMALL
bcc


@<TRIPOS>ATOM
      1 O5A        -3.0550   -1.2250   -0.3170 o         1 LLH     -0.823800
      2 C5         -2.8060   -0.1260    0.2670 c         1 LLH      0.893600
      3 O5B        -3.4280    0.3470    1.2470 o         1 LLH     -0.823800
      4 C4         -1.5930    0.6550   -0.3130 c3        1 LLH     -0.021900
      5 O4         -1.5800    0.5800   -1.7270 oh        1 LLH     -0.627800
      6 C3         -0.3030    0.0290    0.2440 c3        1 LLH      0.112100
      7 O3         -0.1320   -1.3100   -0.1940 oh        1 LLH     -0.661800
      8 C2          0.9250    0.8320   -0.2340 c3        1 LLH      0.068100
      9 O2          0.9700    2.1040    0.3760 oh        1 LLH     -0.579800
     10 C1          2.2180    0.0810    0.0720 c         1 LLH      0.576100
     11 O1          2.9630    0.4220    1.0100 o         1 LLH     -0.608100
     12 N           2.6200   -0.9360   -0.8420 n         1 LLH     -0.347400
     13 ON          3.5620   -1.7690   -0.3820 oh        1 LLH     -0.448100
     14 H4         -1.6290    1.7440   -0.0540 h1        1 LLH      0.078700
     15 HO4        -2.0190   -0.2530   -1.9630 ho        1 LLH      0.420000
     16 H3         -0.3440    0.0360    1.3690 h1        1 LLH      0.051700
     17 HO3        -1.0200   -1.6820   -0.3470 ho        1 LLH      0.463000
     18 H2          0.8250    1.0430   -1.3380 h1        1 LLH      0.119700
     19 HO2         1.1030    1.9650    1.3240 ho        1 LLH      0.411000
     20 HN          1.8270   -1.5050   -1.1390 hn        1 LLH      0.328500
     21 HON         4.3460   -1.2140   -0.2030 ho        1 LLH      0.421000
@<TRIPOS>BOND
     1    1    2 1   
     2    2    3 1   
     3    2    4 1   
     4    4    5 1   
     5    4    6 1   
     6    4   14 1   
     7    5   15 1   
     8    6    7 1   
     9    6    8 1   
    10    6   16 1   
    11    7   17 1   
    12    8    9 1   
    13    8   10 1   
    14    8   18 1   
    15    9   19 1   
    16   10   11 2   
    17   10   12 1   
    18   12   13 1   
    19   12   20 1   
    20   13   21 1   
@<TRIPOS>SUBSTRUCTURE
     1 LLH         1 TEMP              0 ****  ****    0 ROOT
