@<TRIPOS>MOLECULE
LLH
   22    21     1     0     0
SMALL
bcc


@<TRIPOS>ATOM
      1 O5A         0.5770    1.6070    2.3800 o         1 LLH     -0.831300
      2 C5          1.1690    1.5180    1.2620 c         1 LLH      0.868600
      3 O5B         1.2570    2.4860    0.4490 o         1 LLH     -0.831300
      4 C4          2.0440    0.2790    1.0180 c3        1 LLH     -0.005900
      5 O4          1.7150   -0.8120    1.8470 oh        1 LLH     -0.607800
      6 C3          3.4930    0.7280    1.3390 c3        1 LLH      0.102100
      7 O3          3.8720    1.8590    0.5730 oh        1 LLH     -0.635800
      8 C2          3.6180    1.0930    2.8410 c3        1 LLH      0.075100
      9 O2          4.7210    0.4410    3.4420 oh        1 LLH     -0.574800
     10 C1          3.8800    2.5770    3.0750 c         1 LLH      0.584100
     11 O1          4.8480    3.1120    3.5720 o         1 LLH     -0.380100
     12 N           2.7170    3.4560    2.6150 ny        1 LLH     -0.491300
     13 ON          2.9000    4.7210    3.0490 oh        1 LLH     -0.368300
     14 H4          1.9870   -0.0700   -0.0470 h1        1 LLH      0.088700
     15 HO4         0.9700   -0.5380    2.4090 ho        1 LLH      0.439000
     16 H3          4.2160   -0.1040    1.1120 h1        1 LLH      0.084700
     17 HO3         3.2620    1.9400   -0.1820 ho        1 LLH      0.458000
     18 H2          2.6600    0.8070    3.3770 h1        1 LLH      0.112700
     19 HO2         4.5520   -0.5090    3.3560 ho        1 LLH      0.439000
     20 HN          1.8080    3.0620    2.9760 hn        1 LLH      0.509300
     21 HON         2.2220    5.2860    2.6160 ho        1 LLH      0.456000
     22 HN3         2.6800    3.4040    1.5590 hn        1 LLH      0.509300
@<TRIPOS>BOND
     1    1    2 1   
     2    2    3 1   
     3    2    4 1   
     4    4    5 1   
     5    4    6 1   
     6    4   14 1   
     7    5   15 1   
     8    6    7 1   
     9    6    8 1   
    10    6   16 1   
    11    7   17 1   
    12    8    9 1   
    13    8   10 1   
    14    8   18 1   
    15    9   19 1   
    16   10   11 2   
    17   10   12 1   
    18   12   13 1   
    19   12   20 1   
    20   12   22 1   
    21   13   21 1   
@<TRIPOS>SUBSTRUCTURE
     1 LLH         1 TEMP              0 ****  ****    0 ROOT
