@<TRIPOS>MOLECULE
LLJ
   82    86     1     0     0
SMALL
bcc


@<TRIPOS>ATOM
      1 C1          1.7920   -1.1740    0.1390 ca        1 LLJ     -0.114750
      2 N1          9.7160   -0.8840   -1.4120 ny        1 LLJ     -0.764000
      3 O1          7.0440   -0.3930   -2.7640 os        1 LLJ     -0.471100
      4 C2          2.7200   -0.0990    0.2000 ca        1 LLJ     -0.166050
      5 N2          4.1660   -0.3100   -1.8060 ny        1 LLJ     -0.764000
      6 O2          6.6160   -0.3040    7.9990 os        1 LLJ     -0.471100
      7 C3          1.2940   -1.7270    1.2930 ca        1 LLJ     -0.074750
      8 N3         10.3090   -0.5150    7.8450 ny        1 LLJ     -0.764000
      9 C4          1.6970   -1.2300    2.5650 ca        1 LLJ      0.005500
     10 N4          3.8260   -0.3930    7.1230 ny        1 LLJ     -0.764000
     11 C5          2.6230   -0.1560    2.6280 ca        1 LLJ     -0.058500
     12 C6          3.1270    0.4000    1.4200 ca        1 LLJ     -0.064500
     13 C7          1.1710   -1.7660    3.7740 ca        1 LLJ     -0.074750
     14 C8          1.5510   -1.2510    4.9890 ca        1 LLJ     -0.114750
     15 C9          2.4770   -0.1750    5.0550 ca        1 LLJ     -0.166050
     16 C10         3.0020    0.3620    3.8980 ca        1 LLJ     -0.064500
     17 C11        10.8310   -0.2650   -0.6140 c3        1 LLJ      0.166600
     18 C12        10.9640   -0.1720    4.3590 ca        1 LLJ     -0.064500
     19 C13        11.2960   -0.7770    5.5540 ca        1 LLJ     -0.166050
     20 C14        11.7710   -2.1170    5.5690 ca        1 LLJ     -0.114750
     21 C15        11.9100   -2.8180    4.3970 ca        1 LLJ     -0.074750
     22 C16        11.5900   -2.2120    3.1500 ca        1 LLJ      0.005500
     23 C17        11.1070   -0.8770    3.1310 ca        1 LLJ     -0.058500
     24 C18        11.7810   -2.9010    1.9190 ca        1 LLJ     -0.074750
     25 C19        11.5090   -2.2810    0.7250 ca        1 LLJ     -0.114750
     26 C20        11.0200   -0.9470    0.7020 ca        1 LLJ     -0.166050
     27 C21        10.8200   -0.2600    1.8820 ca        1 LLJ     -0.064500
     28 C22         9.4230   -0.1190   -2.6590 c3        1 LLJ      0.093300
     29 C23         8.2570   -0.6940   -3.4640 c3        1 LLJ      0.105900
     30 C24         5.9050   -0.3830   -3.6350 c3        1 LLJ      0.105900
     31 C25         4.7960    0.4140   -2.9480 c3        1 LLJ      0.093300
     32 C26         3.1680    0.5450   -1.0710 c3        1 LLJ      0.166600
     33 C27        11.2930    0.0020    6.8280 c3        1 LLJ      0.166600
     34 C28         8.9140   -0.0860    7.5530 c3        1 LLJ      0.093300
     35 C29         7.8880   -0.6530    8.5490 c3        1 LLJ      0.105900
     36 C30         5.5550   -0.3940    8.9580 c3        1 LLJ      0.105900
     37 C31         4.3400    0.3000    8.3400 c3        1 LLJ      0.093300
     38 C32         2.8000    0.4240    6.3850 c3        1 LLJ      0.166600
     39 H1          1.4440   -1.5390   -0.8410 ha        1 LLJ      0.155750
     40 H3N2        3.6890   -1.1530   -2.1510 hn        1 LLJ      0.454425
     41 H4N2        4.8990   -0.6110   -1.1560 hn        1 LLJ      0.454425
     42 H3          0.5580   -2.5500    1.2520 ha        1 LLJ      0.184000
     43 H6          3.8180    1.2560    1.4830 ha        1 LLJ      0.143500
     44 H17         0.4370   -2.5900    3.7170 ha        1 LLJ      0.184000
     45 HN1A        9.9780   -1.8490   -1.6530 hn        1 LLJ      0.454425
     46 H18         1.1110   -1.6490    5.9190 ha        1 LLJ      0.155750
     47 H10         3.6930    1.2190    3.9310 ha        1 LLJ      0.143500
     48 H111       11.7770   -0.3470   -1.2300 hx        1 LLJ      0.124575
     49 H211       10.5900    0.8290   -0.4740 hx        1 LLJ      0.124575
     50 H12        10.6220    0.8750    4.3270 ha        1 LLJ      0.143500
     51 H14        12.0700   -2.5800    6.5240 ha        1 LLJ      0.155750
     52 H15        12.2970   -3.8530    4.4030 ha        1 LLJ      0.184000
     53 H18A       12.1770   -3.9320    1.9420 ha        1 LLJ      0.184000
     54 H19        11.7090   -2.8060   -0.2230 ha        1 LLJ      0.155750
     55 H21        10.4720    0.7860    1.8800 ha        1 LLJ      0.143500
     56 H122        9.1960    0.9480   -2.3700 hx        1 LLJ      0.127575
     57 H222       10.3490   -0.1320   -3.3080 hx        1 LLJ      0.127575
     58 H123        8.2710   -0.2020   -4.4780 h1        1 LLJ      0.092450
     59 H223        8.3270   -1.8080   -3.5930 h1        1 LLJ      0.092450
     60 H124        6.1460    0.1380   -4.6040 h1        1 LLJ      0.092450
     61 H224        5.6070   -1.4450   -3.8490 h1        1 LLJ      0.092450
     62 H125        3.9920    0.6430   -3.7090 hx        1 LLJ      0.127575
     63 H225        5.2150    1.3870   -2.5590 hx        1 LLJ      0.127575
     64 H126        2.2850    0.7080   -1.7600 hx        1 LLJ      0.124575
     65 H226        3.6510    1.5450   -0.8680 hx        1 LLJ      0.124575
     66 H127       11.0590    1.0910    6.6430 hx        1 LLJ      0.124575
     67 H227       12.3190   -0.0680    7.3060 hx        1 LLJ      0.124575
     68 H128        8.6550   -0.4280    6.5100 hx        1 LLJ      0.127575
     69 H228        8.8740    1.0410    7.5810 hx        1 LLJ      0.127575
     70 HN3        10.3570   -1.5420    7.8620 hn        1 LLJ      0.454425
     71 H129        7.9510   -1.7720    8.6240 h1        1 LLJ      0.092450
     72 H229        8.0190   -0.1940    9.5660 h1        1 LLJ      0.092450
     73 HN3A       10.5840   -0.1640    8.7730 hn        1 LLJ      0.454425
     74 H130        5.8230    0.1530    9.9040 h1        1 LLJ      0.092450
     75 H230        5.3610   -1.4760    9.1900 h1        1 LLJ      0.092450
     76 H131        4.6180    1.3560    8.0510 hx        1 LLJ      0.127575
     77 H231        3.5130    0.3390    9.1100 hx        1 LLJ      0.127575
     78 H132        1.8730    0.4750    7.0310 hx        1 LLJ      0.124575
     79 H232        3.2090    1.4690    6.2650 hx        1 LLJ      0.124575
     80 HN4         4.6160   -0.5880    6.4970 hn        1 LLJ      0.454425
     81 HN4A        3.4080   -1.2940    7.3880 hn        1 LLJ      0.454425
     82 HN1         8.8680   -0.9260   -0.8390 hn        1 LLJ      0.454425
@<TRIPOS>BOND
     1    1    4 ar  
     2    1    7 ar  
     3    1   39 1   
     4    2   17 1   
     5    2   28 1   
     6    2   45 1   
     7    2   82 1   
     8    3   29 1   
     9    3   30 1   
    10    4   12 ar  
    11    4   32 1   
    12    5   31 1   
    13    5   32 1   
    14    5   40 1   
    15    5   41 1   
    16    6   35 1   
    17    6   36 1   
    18    7    9 ar  
    19    7   42 1   
    20    8   33 1   
    21    8   34 1   
    22    8   70 1   
    23    8   73 1   
    24    9   11 ar  
    25    9   13 ar  
    26   10   37 1   
    27   10   38 1   
    28   10   80 1   
    29   10   81 1   
    30   11   12 ar  
    31   11   16 ar  
    32   12   43 1   
    33   13   14 ar  
    34   13   44 1   
    35   14   15 ar  
    36   14   46 1   
    37   15   16 ar  
    38   15   38 1   
    39   16   47 1   
    40   17   26 1   
    41   17   48 1   
    42   17   49 1   
    43   18   19 ar  
    44   18   23 ar  
    45   18   50 1   
    46   19   20 ar  
    47   19   33 1   
    48   20   21 ar  
    49   20   51 1   
    50   21   22 ar  
    51   21   52 1   
    52   22   23 ar  
    53   22   24 ar  
    54   23   27 ar  
    55   24   25 ar  
    56   24   53 1   
    57   25   26 ar  
    58   25   54 1   
    59   26   27 ar  
    60   27   55 1   
    61   28   29 1   
    62   28   56 1   
    63   28   57 1   
    64   29   58 1   
    65   29   59 1   
    66   30   31 1   
    67   30   60 1   
    68   30   61 1   
    69   31   62 1   
    70   31   63 1   
    71   32   64 1   
    72   32   65 1   
    73   33   66 1   
    74   33   67 1   
    75   34   35 1   
    76   34   68 1   
    77   34   69 1   
    78   35   71 1   
    79   35   72 1   
    80   36   37 1   
    81   36   74 1   
    82   36   75 1   
    83   37   76 1   
    84   37   77 1   
    85   38   78 1   
    86   38   79 1   
@<TRIPOS>SUBSTRUCTURE
     1 LLJ         1 TEMP              0 ****  ****    0 ROOT
