@<TRIPOS>MOLECULE
LLJ
   82    86     1     0     0
SMALL
bcc


@<TRIPOS>ATOM
      1 C1          1.6380   -1.2240   -0.0410 ca        1 LLJ     -0.117500
      2 N1          9.7890   -0.9380   -1.3140 n4        1 LLJ     -0.763000
      3 O1          7.0990   -0.3480   -2.2990 os        1 LLJ     -0.457600
      4 C2          2.3490    0.0080   -0.0180 ca        1 LLJ     -0.164800
      5 N2          3.4230    0.0930   -2.2810 n4        1 LLJ     -0.763000
      6 O2          6.6960   -0.2540    7.8700 os        1 LLJ     -0.457600
      7 C3          1.3640   -1.8890    1.1290 ca        1 LLJ     -0.075500
      8 N3         10.3920   -0.4730    7.8510 n4        1 LLJ     -0.763000
      9 C4          1.7810   -1.3530    2.3800 ca        1 LLJ      0.004000
     10 N4          3.9420   -0.3670    6.8900 n4        1 LLJ     -0.763000
     11 C5          2.4960   -0.1270    2.4050 ca        1 LLJ     -0.058000
     12 C6          2.7740    0.5420    1.1800 ca        1 LLJ     -0.063000
     13 C7          1.4640   -2.0000    3.6070 ca        1 LLJ     -0.075500
     14 C8          1.8420   -1.4450    4.8050 ca        1 LLJ     -0.117500
     15 C9          2.5630   -0.2210    4.8340 ca        1 LLJ     -0.164800
     16 C10         2.8850    0.4240    3.6580 ca        1 LLJ     -0.063000
     17 C11        10.9720   -0.3610   -0.5860 c3        1 LLJ      0.167100
     18 C12        11.1070   -0.1860    4.3860 ca        1 LLJ     -0.063000
     19 C13        11.4310   -0.7740    5.5910 ca        1 LLJ     -0.164800
     20 C14        11.9110   -2.1120    5.6280 ca        1 LLJ     -0.117500
     21 C15        12.0610   -2.8280    4.4670 ca        1 LLJ     -0.075500
     22 C16        11.7450   -2.2410    3.2090 ca        1 LLJ      0.004000
     23 C17        11.2590   -0.9080    3.1690 ca        1 LLJ     -0.058000
     24 C18        11.9400   -2.9470    1.9890 ca        1 LLJ     -0.075500
     25 C19        11.6660   -2.3480    0.7850 ca        1 LLJ     -0.117500
     26 C20        11.1740   -1.0150    0.7410 ca        1 LLJ     -0.164800
     27 C21        10.9730   -0.3100    1.9100 ca        1 LLJ     -0.063000
     28 C22         9.4600   -0.1780   -2.5560 c3        1 LLJ      0.093300
     29 C23         8.1590   -0.6420   -3.2160 c3        1 LLJ      0.108400
     30 C24         5.8060   -0.4700   -2.8960 c3        1 LLJ      0.108400
     31 C25         4.8600    0.2750   -1.9390 c3        1 LLJ      0.093300
     32 C26         2.5090    0.7700   -1.2920 c3        1 LLJ      0.167100
     33 C27        11.4100    0.0190    6.8560 c3        1 LLJ      0.167100
     34 C28         9.0090   -0.0430    7.5060 c3        1 LLJ      0.093300
     35 C29         7.9470   -0.5970    8.4700 c3        1 LLJ      0.108400
     36 C30         5.6010   -0.3450    8.7900 c3        1 LLJ      0.108400
     37 C31         4.4030    0.3360    8.1230 c3        1 LLJ      0.093300
     38 C32         2.8800    0.4030    6.1540 c3        1 LLJ      0.167100
     39 H1          1.2680   -1.6240   -0.9990 ha        1 LLJ      0.154000
     40 H3N2        3.1990   -0.9110   -2.3060 hn        1 LLJ      0.458800
     41 H4N2        3.2430    0.4870   -3.2150 hn        1 LLJ      0.458800
     42 H3          0.7950   -2.8360    1.1180 ha        1 LLJ      0.183000
     43 H6          3.2990    1.5100    1.2180 ha        1 LLJ      0.146000
     44 H17         0.8890   -2.9420    3.5800 ha        1 LLJ      0.183000
     45 HN1A        9.9900   -1.9170   -1.5520 hn        1 LLJ      0.458800
     46 H18         1.5530   -1.9300    5.7520 ha        1 LLJ      0.154000
     47 H10         3.4150    1.3910    3.6650 ha        1 LLJ      0.146000
     48 H111       11.8840   -0.5130   -1.2390 hx        1 LLJ      0.125450
     49 H211       10.8000    0.7490   -0.4680 hx        1 LLJ      0.125450
     50 H12        10.7620    0.8600    4.3370 ha        1 LLJ      0.146000
     51 H14        12.2040   -2.5610    6.5910 ha        1 LLJ      0.154000
     52 H15        12.4530   -3.8610    4.4890 ha        1 LLJ      0.183000
     53 H18A       12.3390   -3.9770    2.0280 ha        1 LLJ      0.183000
     54 H19        11.8630   -2.8880   -0.1560 ha        1 LLJ      0.154000
     55 H21        10.6240    0.7350    1.8910 ha        1 LLJ      0.146000
     56 H122        9.3750    0.9150   -2.2840 hx        1 LLJ      0.123450
     57 H222       10.3060   -0.3060   -3.2940 hx        1 LLJ      0.123450
     58 H123        8.0320   -0.0650   -4.1730 h1        1 LLJ      0.086950
     59 H223        8.1590   -1.7430   -3.4370 h1        1 LLJ      0.086950
     60 H124        5.5480   -1.5610   -2.9740 h1        1 LLJ      0.086950
     61 H224        5.7970   -0.0010   -3.9170 h1        1 LLJ      0.086950
     62 H125        5.0960    1.3780   -1.9680 hx        1 LLJ      0.123450
     63 H225        5.0180   -0.0980   -0.8870 hx        1 LLJ      0.123450
     64 H126        2.9130    1.8070   -1.1020 hx        1 LLJ      0.125450
     65 H226        1.4990    0.8650   -1.7980 hx        1 LLJ      0.125450
     66 H127       11.1970    1.1090    6.6530 hx        1 LLJ      0.125450
     67 H227       12.4220   -0.0610    7.3620 hx        1 LLJ      0.125450
     68 H128        8.7870   -0.3940    6.4580 hx        1 LLJ      0.123450
     69 H228        8.9730    1.0850    7.5220 hx        1 LLJ      0.123450
     70 HN3        10.4340   -1.5000    7.8890 hn        1 LLJ      0.458800
     71 H129        8.0400   -0.1250    9.4860 h1        1 LLJ      0.086950
     72 H229        8.0070   -1.7150    8.5610 h1        1 LLJ      0.086950
     73 HN3A       10.6390   -0.1060    8.7810 hn        1 LLJ      0.458800
     74 H130        5.4050   -1.4260    9.0230 h1        1 LLJ      0.086950
     75 H230        5.8300    0.2110    9.7410 h1        1 LLJ      0.086950
     76 H131        4.6790    1.3930    7.8400 hx        1 LLJ      0.123450
     77 H231        3.5470    0.3670    8.8620 hx        1 LLJ      0.123450
     78 H132        1.9560    0.4220    6.8080 hx        1 LLJ      0.125450
     79 H232        3.2470    1.4620    6.0240 hx        1 LLJ      0.125450
     80 HN4         4.7490   -0.5090    6.2720 hn        1 LLJ      0.458800
     81 HN4A        3.5710   -1.2930    7.1380 hn        1 LLJ      0.458800
     82 HN1         8.9710   -0.9280   -0.6950 hn        1 LLJ      0.458800
@<TRIPOS>BOND
     1    1    4 ar  
     2    1    7 ar  
     3    1   39 1   
     4    2   17 1   
     5    2   28 1   
     6    2   45 1   
     7    2   82 1   
     8    3   29 1   
     9    3   30 1   
    10    4   12 ar  
    11    4   32 1   
    12    5   31 1   
    13    5   32 1   
    14    5   40 1   
    15    5   41 1   
    16    6   35 1   
    17    6   36 1   
    18    7    9 ar  
    19    7   42 1   
    20    8   33 1   
    21    8   34 1   
    22    8   70 1   
    23    8   73 1   
    24    9   11 ar  
    25    9   13 ar  
    26   10   37 1   
    27   10   38 1   
    28   10   80 1   
    29   10   81 1   
    30   11   12 ar  
    31   11   16 ar  
    32   12   43 1   
    33   13   14 ar  
    34   13   44 1   
    35   14   15 ar  
    36   14   46 1   
    37   15   16 ar  
    38   15   38 1   
    39   16   47 1   
    40   17   26 1   
    41   17   48 1   
    42   17   49 1   
    43   18   19 ar  
    44   18   23 ar  
    45   18   50 1   
    46   19   20 ar  
    47   19   33 1   
    48   20   21 ar  
    49   20   51 1   
    50   21   22 ar  
    51   21   52 1   
    52   22   23 ar  
    53   22   24 ar  
    54   23   27 ar  
    55   24   25 ar  
    56   24   53 1   
    57   25   26 ar  
    58   25   54 1   
    59   26   27 ar  
    60   27   55 1   
    61   28   29 1   
    62   28   56 1   
    63   28   57 1   
    64   29   58 1   
    65   29   59 1   
    66   30   31 1   
    67   30   60 1   
    68   30   61 1   
    69   31   62 1   
    70   31   63 1   
    71   32   64 1   
    72   32   65 1   
    73   33   66 1   
    74   33   67 1   
    75   34   35 1   
    76   34   68 1   
    77   34   69 1   
    78   35   71 1   
    79   35   72 1   
    80   36   37 1   
    81   36   74 1   
    82   36   75 1   
    83   37   76 1   
    84   37   77 1   
    85   38   78 1   
    86   38   79 1   
@<TRIPOS>SUBSTRUCTURE
     1 LLJ         1 TEMP              0 ****  ****    0 ROOT
