@<TRIPOS>MOLECULE
LLJ
   82    86     1     0     0
SMALL
bcc


@<TRIPOS>ATOM
      1 C1          1.6330   -1.2150   -0.0330 ca        1 LLJ     -0.117500
      2 N1          9.7830   -0.9540   -1.3170 n4        1 LLJ     -0.763000
      3 O1          7.0930   -0.3600   -2.2990 os        1 LLJ     -0.457600
      4 C2          2.3470    0.0150   -0.0150 ca        1 LLJ     -0.164800
      5 N2          3.4180    0.0920   -2.2790 n4        1 LLJ     -0.763000
      6 O2          6.7030   -0.2430    7.8700 os        1 LLJ     -0.457600
      7 C3          1.3590   -1.8770    1.1380 ca        1 LLJ     -0.075500
      8 N3         10.3980   -0.4730    7.8470 n4        1 LLJ     -0.763000
      9 C4          1.7780   -1.3390    2.3870 ca        1 LLJ      0.004000
     10 N4          3.9480   -0.3490    6.8930 n4        1 LLJ     -0.763000
     11 C5          2.4970   -0.1160    2.4090 ca        1 LLJ     -0.058000
     12 C6          2.7750    0.5500    1.1820 ca        1 LLJ     -0.063000
     13 C7          1.4620   -1.9820    3.6170 ca        1 LLJ     -0.075500
     14 C8          1.8430   -1.4260    4.8130 ca        1 LLJ     -0.117500
     15 C9          2.5670   -0.2030    4.8380 ca        1 LLJ     -0.164800
     16 C10         2.8890    0.4380    3.6600 ca        1 LLJ     -0.063000
     17 C11        10.9680   -0.3790   -0.5910 c3        1 LLJ      0.167100
     18 C12        11.1100   -0.1960    4.3810 ca        1 LLJ     -0.063000
     19 C13        11.4340   -0.7820    5.5870 ca        1 LLJ     -0.164800
     20 C14        11.9100   -2.1210    5.6250 ca        1 LLJ     -0.117500
     21 C15        12.0560   -2.8400    4.4650 ca        1 LLJ     -0.075500
     22 C16        11.7410   -2.2540    3.2070 ca        1 LLJ      0.004000
     23 C17        11.2590   -0.9200    3.1650 ca        1 LLJ     -0.058000
     24 C18        11.9320   -2.9640    1.9880 ca        1 LLJ     -0.075500
     25 C19        11.6580   -2.3660    0.7830 ca        1 LLJ     -0.117500
     26 C20        11.1700   -1.0320    0.7380 ca        1 LLJ     -0.164800
     27 C21        10.9730   -0.3240    1.9050 ca        1 LLJ     -0.063000
     28 C22         9.4540   -0.1970   -2.5590 c3        1 LLJ      0.093300
     29 C23         8.1520   -0.6580   -3.2170 c3        1 LLJ      0.108400
     30 C24         5.7990   -0.4790   -2.8950 c3        1 LLJ      0.108400
     31 C25         4.8560    0.2700   -1.9390 c3        1 LLJ      0.093300
     32 C26         2.5080    0.7730   -1.2900 c3        1 LLJ      0.167100
     33 C27        11.4160    0.0130    6.8500 c3        1 LLJ      0.167100
     34 C28         9.0170   -0.0400    7.5030 c3        1 LLJ      0.093300
     35 C29         7.9540   -0.5880    8.4690 c3        1 LLJ      0.108400
     36 C30         5.6090   -0.3280    8.7900 c3        1 LLJ      0.108400
     37 C31         4.4120    0.3550    8.1240 c3        1 LLJ      0.093300
     38 C32         2.8870    0.4220    6.1560 c3        1 LLJ      0.167100
     39 H1          1.2610   -1.6170   -0.9900 ha        1 LLJ      0.154000
     40 H3N2        3.2390    0.4840   -3.2130 hn        1 LLJ      0.458800
     41 H4N2        3.1920   -0.9110   -2.3010 hn        1 LLJ      0.458800
     42 H3          0.7870   -2.8220    1.1300 ha        1 LLJ      0.183000
     43 H6          3.3020    1.5170    1.2170 ha        1 LLJ      0.146000
     44 H17         0.8830   -2.9240    3.5920 ha        1 LLJ      0.183000
     45 HN1A        9.9810   -1.9350   -1.5520 hn        1 LLJ      0.458800
     46 H18         1.5540   -1.9080    5.7610 ha        1 LLJ      0.154000
     47 H10         3.4220    1.4030    3.6640 ha        1 LLJ      0.146000
     48 H111       11.8790   -0.5360   -1.2440 hx        1 LLJ      0.125450
     49 H211       10.7990    0.7310   -0.4750 hx        1 LLJ      0.125450
     50 H12        10.7680    0.8510    4.3300 ha        1 LLJ      0.146000
     51 H14        12.2040   -2.5690    6.5890 ha        1 LLJ      0.154000
     52 H15        12.4450   -3.8740    4.4890 ha        1 LLJ      0.183000
     53 H18A       12.3280   -3.9950    2.0280 ha        1 LLJ      0.183000
     54 H19        11.8530   -2.9080   -0.1570 ha        1 LLJ      0.154000
     55 H21        10.6270    0.7220    1.8850 ha        1 LLJ      0.146000
     56 H122        9.3730    0.8970   -2.2900 hx        1 LLJ      0.123450
     57 H222       10.3000   -0.3290   -3.2980 hx        1 LLJ      0.123450
     58 H123        8.0250   -0.0830   -4.1760 h1        1 LLJ      0.086950
     59 H223        8.1490   -1.7600   -3.4360 h1        1 LLJ      0.086950
     60 H124        5.7900   -0.0130   -3.9170 h1        1 LLJ      0.086950
     61 H224        5.5390   -1.5690   -2.9700 h1        1 LLJ      0.086950
     62 H125        5.0950    1.3730   -1.9700 hx        1 LLJ      0.123450
     63 H225        5.0140   -0.1000   -0.8860 hx        1 LLJ      0.123450
     64 H126        1.4970    0.8700   -1.7950 hx        1 LLJ      0.125450
     65 H226        2.9140    1.8100   -1.1030 hx        1 LLJ      0.125450
     66 H127       11.2070    1.1030    6.6460 hx        1 LLJ      0.125450
     67 H227       12.4290   -0.0690    7.3550 hx        1 LLJ      0.125450
     68 H128        8.7920   -0.3910    6.4550 hx        1 LLJ      0.123450
     69 H228        8.9840    1.0880    7.5170 hx        1 LLJ      0.123450
     70 HN3        10.4360   -1.5010    7.8860 hn        1 LLJ      0.458800
     71 H129        8.0100   -1.7060    8.5620 h1        1 LLJ      0.086950
     72 H229        8.0500   -0.1150    9.4840 h1        1 LLJ      0.086950
     73 HN3A       10.6480   -0.1060    8.7760 hn        1 LLJ      0.458800
     74 H130        5.8400    0.2300    9.7400 h1        1 LLJ      0.086950
     75 H230        5.4100   -1.4070    9.0270 h1        1 LLJ      0.086950
     76 H131        4.6920    1.4100    7.8380 hx        1 LLJ      0.123450
     77 H231        3.5580    0.3910    8.8630 hx        1 LLJ      0.123450
     78 H132        1.9640    0.4460    6.8110 hx        1 LLJ      0.125450
     79 H232        3.2570    1.4800    6.0230 hx        1 LLJ      0.125450
     80 HN4         4.7540   -0.4960    6.2740 hn        1 LLJ      0.458800
     81 HN4A        3.5740   -1.2740    7.1430 hn        1 LLJ      0.458800
     82 HN1         8.9650   -0.9410   -0.6970 hn        1 LLJ      0.458800
@<TRIPOS>BOND
     1    1    4 ar  
     2    1    7 ar  
     3    1   39 1   
     4    2   17 1   
     5    2   28 1   
     6    2   45 1   
     7    2   82 1   
     8    3   29 1   
     9    3   30 1   
    10    4   12 ar  
    11    4   32 1   
    12    5   31 1   
    13    5   32 1   
    14    5   40 1   
    15    5   41 1   
    16    6   35 1   
    17    6   36 1   
    18    7    9 ar  
    19    7   42 1   
    20    8   33 1   
    21    8   34 1   
    22    8   70 1   
    23    8   73 1   
    24    9   11 ar  
    25    9   13 ar  
    26   10   37 1   
    27   10   38 1   
    28   10   80 1   
    29   10   81 1   
    30   11   12 ar  
    31   11   16 ar  
    32   12   43 1   
    33   13   14 ar  
    34   13   44 1   
    35   14   15 ar  
    36   14   46 1   
    37   15   16 ar  
    38   15   38 1   
    39   16   47 1   
    40   17   26 1   
    41   17   48 1   
    42   17   49 1   
    43   18   19 ar  
    44   18   23 ar  
    45   18   50 1   
    46   19   20 ar  
    47   19   33 1   
    48   20   21 ar  
    49   20   51 1   
    50   21   22 ar  
    51   21   52 1   
    52   22   23 ar  
    53   22   24 ar  
    54   23   27 ar  
    55   24   25 ar  
    56   24   53 1   
    57   25   26 ar  
    58   25   54 1   
    59   26   27 ar  
    60   27   55 1   
    61   28   29 1   
    62   28   56 1   
    63   28   57 1   
    64   29   58 1   
    65   29   59 1   
    66   30   31 1   
    67   30   60 1   
    68   30   61 1   
    69   31   62 1   
    70   31   63 1   
    71   32   64 1   
    72   32   65 1   
    73   33   66 1   
    74   33   67 1   
    75   34   35 1   
    76   34   68 1   
    77   34   69 1   
    78   35   71 1   
    79   35   72 1   
    80   36   37 1   
    81   36   74 1   
    82   36   75 1   
    83   37   76 1   
    84   37   77 1   
    85   38   78 1   
    86   38   79 1   
@<TRIPOS>SUBSTRUCTURE
     1 LLJ         1 TEMP              0 ****  ****    0 ROOT
