@<TRIPOS>MOLECULE
LLK
   31    32     1     0     0
SMALL
bcc


@<TRIPOS>ATOM
      1 C1         -0.0630   -0.1090   -0.0360 ca        1 LLK     -0.074000
      2 O1         -4.8700   -1.1250    1.6690 o         1 LLK     -0.545100
      3 C2          1.3000    0.0390   -0.0980 ca        1 LLK     -0.189000
      4 C3          2.0500    0.1310    1.1060 ca        1 LLK      0.134100
      5 O3          3.4220    0.2830    1.1440 os        1 LLK     -0.326900
      6 C4          1.4250    0.0730    2.3430 ca        1 LLK     -0.167000
      7 C5          0.0200   -0.0800    2.4120 ca        1 LLK      0.013000
      8 C6         -0.7360   -0.1700    1.2140 ca        1 LLK     -0.083000
      9 C7         -2.1460   -0.3250    1.2910 ca        1 LLK     -0.044000
     10 C8         -2.7840   -0.3700    2.5130 ca        1 LLK     -0.175600
     11 C9         -2.0230   -0.2880    3.7100 ca        1 LLK     -0.091000
     12 C10        -0.6600   -0.1500    3.6610 ca        1 LLK     -0.136000
     13 C11        -4.2560   -0.5200    2.5620 c         1 LLK      0.577900
     14 C12        -4.9450    0.1030    3.7030 ce        1 LLK     -0.270200
     15 C13        -6.2210   -0.1750    4.0020 c2        1 LLK     -0.079200
     16 C14        -6.9540    0.4310    5.1280 c3        1 LLK     -0.081900
     17 C31         4.0900    0.3330   -0.1110 c3        1 LLK      0.113700
     18 H1         -0.6580   -0.1820   -0.9600 ha        1 LLK      0.138000
     19 H2          1.8090    0.0860   -1.0710 ha        1 LLK      0.140000
     20 H4          2.0170    0.1450    3.2670 ha        1 LLK      0.152000
     21 H7         -2.7300   -0.4120    0.3600 ha        1 LLK      0.150000
     22 H9         -2.5410   -0.3520    4.6800 ha        1 LLK      0.137000
     23 H10        -0.0660   -0.0920    4.5860 ha        1 LLK      0.137000
     24 H12        -4.3570    0.8270    4.2890 ha        1 LLK      0.138000
     25 H31         3.9350   -0.6160   -0.6800 h1        1 LLK      0.045700
     26 H31A        3.7440    1.2100   -0.7090 h1        1 LLK      0.045700
     27 H31B        5.1670    0.4500    0.1730 h1        1 LLK      0.045700
     28 H14        -7.3020   -0.3690    5.8300 hc        1 LLK      0.051033
     29 H14A       -7.8560    0.9730    4.7460 hc        1 LLK      0.051033
     30 H14B       -6.3230    1.1540    5.7010 hc        1 LLK      0.051033
     31 H13        -6.7910   -0.8980    3.3890 ha        1 LLK      0.142000
@<TRIPOS>BOND
     1    1    3 ar  
     2    1    8 ar  
     3    1   18 1   
     4    2   13 2   
     5    3    4 ar  
     6    3   19 1   
     7    4    5 1   
     8    4    6 ar  
     9    5   17 1   
    10    6    7 ar  
    11    6   20 1   
    12    7    8 ar  
    13    7   12 ar  
    14    8    9 ar  
    15    9   10 ar  
    16    9   21 1   
    17   10   11 ar  
    18   10   13 1   
    19   11   12 ar  
    20   11   22 1   
    21   12   23 1   
    22   13   14 1   
    23   14   15 2   
    24   14   24 1   
    25   15   16 1   
    26   15   31 1   
    27   16   28 1   
    28   16   29 1   
    29   16   30 1   
    30   17   25 1   
    31   17   26 1   
    32   17   27 1   
@<TRIPOS>SUBSTRUCTURE
     1 LLK         1 TEMP              0 ****  ****    0 ROOT
