@<TRIPOS>MOLECULE
LLK
   31    32     1     0     0
SMALL
bcc


@<TRIPOS>ATOM
      1 C1         -0.0680   -0.0860   -0.0400 ca        1 LLK     -0.074000
      2 O1         -4.8840   -1.0760    1.6560 o         1 LLK     -0.545100
      3 C2          1.2970    0.0470   -0.1010 ca        1 LLK     -0.189000
      4 C3          2.0490    0.1110    1.1030 ca        1 LLK      0.134100
      5 O3          3.4240    0.2460    1.1410 os        1 LLK     -0.326900
      6 C4          1.4260    0.0400    2.3400 ca        1 LLK     -0.167000
      7 C5          0.0190   -0.0980    2.4080 ca        1 LLK      0.013000
      8 C6         -0.7400   -0.1610    1.2100 ca        1 LLK     -0.083000
      9 C7         -2.1510   -0.3000    1.2870 ca        1 LLK     -0.044000
     10 C8         -2.7880   -0.3580    2.5090 ca        1 LLK     -0.175600
     11 C9         -2.0250   -0.3040    3.7060 ca        1 LLK     -0.091000
     12 C10        -0.6600   -0.1810    3.6570 ca        1 LLK     -0.136000
     13 C11        -4.2610   -0.4930    2.5580 c         1 LLK      0.577900
     14 C12        -4.9420    0.1190    3.7100 ce        1 LLK     -0.270200
     15 C13        -6.2210   -0.1510    4.0070 c2        1 LLK     -0.079200
     16 C14        -6.9450    0.4440    5.1450 c3        1 LLK     -0.081900
     17 C31         4.0900    0.3080   -0.1150 c3        1 LLK      0.113700
     18 H1         -0.6650   -0.1390   -0.9640 ha        1 LLK      0.138000
     19 H2          1.8050    0.1030   -1.0740 ha        1 LLK      0.140000
     20 H4          2.0190    0.0890    3.2630 ha        1 LLK      0.152000
     21 H7         -2.7370   -0.3660    0.3550 ha        1 LLK      0.150000
     22 H9         -2.5420   -0.3790    4.6750 ha        1 LLK      0.137000
     23 H10        -0.0640   -0.1440    4.5810 ha        1 LLK      0.137000
     24 H12        -4.3450    0.8260    4.3070 ha        1 LLK      0.138000
     25 H31         3.9230   -0.6300   -0.6980 h1        1 LLK      0.045700
     26 H31A        3.7530    1.1990   -0.6980 h1        1 LLK      0.045700
     27 H31B        5.1680    0.4080    0.1700 h1        1 LLK      0.045700
     28 H14        -7.3000   -0.3630    5.8340 hc        1 LLK      0.051033
     29 H14A       -7.8410    1.0020    4.7730 hc        1 LLK      0.051033
     30 H14B       -6.3050    1.1510    5.7280 hc        1 LLK      0.051033
     31 H13        -6.7990   -0.8570    3.3830 ha        1 LLK      0.142000
@<TRIPOS>BOND
     1    1    3 ar  
     2    1    8 ar  
     3    1   18 1   
     4    2   13 2   
     5    3    4 ar  
     6    3   19 1   
     7    4    5 1   
     8    4    6 ar  
     9    5   17 1   
    10    6    7 ar  
    11    6   20 1   
    12    7    8 ar  
    13    7   12 ar  
    14    8    9 ar  
    15    9   10 ar  
    16    9   21 1   
    17   10   11 ar  
    18   10   13 1   
    19   11   12 ar  
    20   11   22 1   
    21   12   23 1   
    22   13   14 1   
    23   14   15 2   
    24   14   24 1   
    25   15   16 1   
    26   15   31 1   
    27   16   28 1   
    28   16   29 1   
    29   16   30 1   
    30   17   25 1   
    31   17   26 1   
    32   17   27 1   
@<TRIPOS>SUBSTRUCTURE
     1 LLK         1 TEMP              0 ****  ****    0 ROOT
