@<TRIPOS>MOLECULE
LLO
   42    41     1     0     0
SMALL
bcc


@<TRIPOS>ATOM
      1 C          -5.5100    0.3390   -0.1350 c         1 LLO      0.887600
      2 N          -4.4870   -1.7410    0.9080 n3        1 LLO     -0.892800
      3 O          -6.5440   -0.3620   -0.3300 o         1 LLO     -0.843800
      4 O1          4.0520    1.9440   -0.8190 oh        1 LLO     -0.612800
      5 C8          4.3480    1.1770    1.4570 c3        1 LLO     -0.104100
      6 CA         -4.2850   -0.3370    0.5690 c3        1 LLO      0.017500
      7 CB         -3.0480   -0.0930   -0.2950 c3        1 LLO     -0.063400
      8 CD         -0.5530   -0.1220   -0.4290 c3        1 LLO     -0.087400
      9 CE          0.7260   -0.5270    0.3000 c3        1 LLO      0.157800
     10 CG         -1.7630   -0.4300    0.4290 c3        1 LLO     -0.075400
     11 NZ          1.9390   -0.2690   -0.4540 n3        1 LLO     -0.835200
     12 C12         4.4120   -0.4410   -0.5000 c3        1 LLO     -0.099400
     13 C13         3.0870   -1.0520   -0.0180 c3        1 LLO      0.172500
     14 C14         3.0700   -2.5210   -0.4580 c3        1 LLO     -0.129100
     15 C16         6.2070    1.2570   -0.2050 c3        1 LLO     -0.104100
     16 OXT        -5.4020    1.5560   -0.4500 o         1 LLO     -0.843800
     17 HN         -5.4230   -1.8260    1.2690 hn        1 LLO      0.329800
     18 HNA        -4.4670   -2.2770    0.0580 hn        1 LLO      0.329800
     19 HO1         3.1030    1.8330   -0.6820 ho        1 LLO      0.426000
     20 H8          3.2390    1.1600    1.5890 hc        1 LLO      0.039867
     21 H8A         4.8020    0.3710    2.0800 hc        1 LLO      0.039867
     22 H8B         4.7280    2.1660    1.8090 hc        1 LLO      0.039867
     23 HA         -4.1430    0.2090    1.5480 h1        1 LLO      0.040700
     24 HB         -3.1150   -0.6910   -1.2410 hc        1 LLO      0.047200
     25 HBA        -3.0550    0.9930   -0.5830 hc        1 LLO      0.047200
     26 HD         -0.5300    0.9730   -0.6690 hc        1 LLO      0.041200
     27 HDA        -0.6330   -0.6750   -1.4010 hc        1 LLO      0.041200
     28 HE          0.8060    0.0650    1.2570 h1        1 LLO      0.029200
     29 HEA         0.6330   -1.6150    0.5930 h1        1 LLO      0.029200
     30 HG         -1.7050    0.1580    1.3830 hc        1 LLO      0.037700
     31 HGA        -1.7580   -1.5160    0.7100 hc        1 LLO      0.037700
     32 HNZ         1.7860   -0.3980   -1.4370 hn        1 LLO      0.358800
     33 H12         4.4320   -0.4290   -1.6210 hc        1 LLO      0.045700
     34 H12A        5.2350   -1.1170   -0.1470 hc        1 LLO      0.045700
     35 H13         3.0870   -1.0380    1.1140 h1        1 LLO      0.054700
     36 H14         3.1340   -2.6010   -1.5690 hc        1 LLO      0.036367
     37 H14A        3.9400   -3.0580   -0.0120 hc        1 LLO      0.036367
     38 H14B        2.1330   -3.0260   -0.1190 hc        1 LLO      0.036367
     39 H16         6.4210    2.3300    0.0100 hc        1 LLO      0.039867
     40 H16A        6.8040    0.6160    0.4850 hc        1 LLO      0.039867
     41 H16B        6.5000    1.0410   -1.2590 hc        1 LLO      0.039867
     42 C11         4.7150    0.9780   -0.0080 c3        1 LLO      0.166800
@<TRIPOS>BOND
     1    1    3 1   
     2    1    6 1   
     3    1   16 1   
     4    2    6 1   
     5    2   17 1   
     6    2   18 1   
     7    4   19 1   
     8    4   42 1   
     9    5   20 1   
    10    5   21 1   
    11    5   22 1   
    12    5   42 1   
    13    6    7 1   
    14    6   23 1   
    15    7   10 1   
    16    7   24 1   
    17    7   25 1   
    18    8    9 1   
    19    8   10 1   
    20    8   26 1   
    21    8   27 1   
    22    9   11 1   
    23    9   28 1   
    24    9   29 1   
    25   10   30 1   
    26   10   31 1   
    27   11   13 1   
    28   11   32 1   
    29   12   13 1   
    30   12   33 1   
    31   12   34 1   
    32   12   42 1   
    33   13   14 1   
    34   13   35 1   
    35   14   36 1   
    36   14   37 1   
    37   14   38 1   
    38   15   39 1   
    39   15   40 1   
    40   15   41 1   
    41   15   42 1   
@<TRIPOS>SUBSTRUCTURE
     1 LLO         1 TEMP              0 ****  ****    0 ROOT
