@<TRIPOS>MOLECULE
LLP
   46    46     1     0     0
SMALL
bcc


@<TRIPOS>ATOM
      1 N1         -4.0920   -2.4860   -0.3130 nb        1 LLP     -0.686000
      2 C2         -2.8290   -2.9840   -0.1730 ca        1 LLP      0.334600
      3 C2'        -2.5960   -4.4480   -0.3450 c3        1 LLP     -0.116400
      4 C3         -1.7390   -2.1420    0.1160 ca        1 LLP     -0.056200
      5 O3         -0.4910   -2.7360    0.2550 oh        1 LLP     -0.533100
      6 C4         -1.9180   -0.7400    0.2290 ca        1 LLP     -0.156300
      7 C4'        -0.7500    0.1330    0.5820 c3        1 LLP      0.208100
      8 C5         -3.2110   -0.2400    0.0720 ca        1 LLP     -0.141600
      9 C6         -4.2690   -1.1740   -0.1720 ca        1 LLP      0.392200
     10 C5'        -3.5940    1.2190    0.1850 c3        1 LLP      0.240700
     11 OP4        -4.7180    1.5350   -0.5290 os        1 LLP     -0.561200
     12 P          -6.1680    1.8210    0.3910 p5        1 LLP      1.314900
     13 OP1        -5.6200    2.3240    1.7000 o         1 LLP     -0.920500
     14 OP2        -6.9160    2.8130   -0.4500 o         1 LLP     -0.920500
     15 OP3        -6.7120    0.4120    0.4210 o         1 LLP     -0.920500
     16 N           6.9470    0.4790    1.2690 n3        1 LLP     -0.894800
     17 CA          6.6650   -0.7230    0.4920 c3        1 LLP      0.026500
     18 CB          5.3960   -0.6240   -0.3580 c3        1 LLP     -0.065400
     19 CG          4.1460   -0.4370    0.4770 c3        1 LLP     -0.076400
     20 CD          2.8970   -0.3870   -0.3810 c3        1 LLP     -0.083400
     21 CE          1.6650   -0.1410    0.4910 c3        1 LLP      0.167800
     22 NZ          0.4320   -0.0020   -0.2600 n3        1 LLP     -0.827200
     23 C           7.8460   -1.1810   -0.4240 c         1 LLP      0.886600
     24 O           8.8840   -0.4550   -0.4800 o         1 LLP     -0.854300
     25 OXT         7.7250   -2.2730   -1.0450 o         1 LLP     -0.854300
     26 H2'1       -2.3640   -4.6680   -1.4170 hc        1 LLP      0.025367
     27 H2'2       -1.7220   -4.7670    0.2760 hc        1 LLP      0.025367
     28 H2'3       -3.4900   -5.0470   -0.0470 hc        1 LLP      0.025367
     29 HO3        -0.0840   -2.3320    1.0350 ho        1 LLP      0.398000
     30 H4'1       -1.0530    1.2180    0.5150 h1        1 LLP      0.045200
     31 H4'2       -0.5030   -0.0710    1.6690 h1        1 LLP      0.045200
     32 H6         -5.3290   -0.7400   -0.2010 h4        1 LLP      0.159100
     33 H5'1       -3.7380    1.4530    1.2850 h1        1 LLP      0.024700
     34 H5'2       -2.7310    1.8350   -0.2140 h1        1 LLP      0.024700
     35 HA          6.5150   -1.5500    1.2470 h1        1 LLP      0.040700
     36 HB2         5.4900    0.2220   -1.0880 hc        1 LLP      0.044200
     37 HB3         5.3220   -1.5730   -0.9530 hc        1 LLP      0.044200
     38 HG2         4.0620   -1.2800    1.2120 hc        1 LLP      0.033200
     39 HG3         4.2240    0.5110    1.0710 hc        1 LLP      0.033200
     40 HD2         2.9940    0.4310   -1.1410 hc        1 LLP      0.041200
     41 HD3         2.7840   -1.3520   -0.9400 hc        1 LLP      0.041200
     42 HE2         1.6110   -0.9740    1.2570 h1        1 LLP      0.011700
     43 HE3         1.8140    0.8180    1.0660 h1        1 LLP      0.011700
     44 HZ1         0.3270   -0.7660   -0.9030 hn        1 LLP      0.367800
     45 H           7.9440    0.5150    1.4190 hn        1 LLP      0.328300
     46 HN2         6.7140    1.2850    0.7170 hn        1 LLP      0.328300
@<TRIPOS>BOND
     1    1    2 ar  
     2    1    9 ar  
     3    2    3 1   
     4    2    4 ar  
     5    3   26 1   
     6    3   27 1   
     7    3   28 1   
     8    4    5 1   
     9    4    6 ar  
    10    5   29 1   
    11    6    7 1   
    12    6    8 ar  
    13    7   22 1   
    14    7   30 1   
    15    7   31 1   
    16    8    9 ar  
    17    8   10 1   
    18    9   32 1   
    19   10   11 1   
    20   10   33 1   
    21   10   34 1   
    22   11   12 1   
    23   12   13 1   
    24   12   14 1   
    25   12   15 1   
    26   16   17 1   
    27   16   45 1   
    28   16   46 1   
    29   17   18 1   
    30   17   23 1   
    31   17   35 1   
    32   18   19 1   
    33   18   36 1   
    34   18   37 1   
    35   19   20 1   
    36   19   38 1   
    37   19   39 1   
    38   20   21 1   
    39   20   40 1   
    40   20   41 1   
    41   21   22 1   
    42   21   42 1   
    43   21   43 1   
    44   22   44 1   
    45   23   24 1   
    46   23   25 1   
@<TRIPOS>SUBSTRUCTURE
     1 LLP         1 TEMP              0 ****  ****    0 ROOT
