@<TRIPOS>MOLECULE
LLT
   31    32     1     0     0
SMALL
bcc


@<TRIPOS>ATOM
      1 O4          0.2160   -0.3980    0.6880 o         1 LLT     -0.611500
      2 C4          1.4370   -0.2770    0.4970 c         1 LLT      0.715700
      3 C5          2.4360    0.0400    1.5320 cc        1 LLT     -0.268400
      4 C7          1.9410    0.2420    2.9070 c3        1 LLT     -0.027900
      5 C6          3.7540    0.1410    1.1980 cd        1 LLT      0.043600
      6 N3          1.9310   -0.4500   -0.8100 ns        1 LLT     -0.584500
      7 C2          3.2880   -0.3300   -1.1370 c         1 LLT      0.804500
      8 O2          3.6710   -0.4670   -2.3210 o         1 LLT     -0.655500
      9 N1          4.2120   -0.0670   -0.0930 n         1 LLT     -0.401000
     10 C1'         5.6150    0.1580   -0.4690 c3        1 LLT      0.317500
     11 O4'         6.3980    0.4840    0.6820 os        1 LLT     -0.391600
     12 C4'         7.1910   -0.6370    1.0950 c3        1 LLT      0.132100
     13 C5'         6.5830   -1.3180    2.3200 c3        1 LLT      0.106400
     14 O5'         6.4060   -0.3250    3.3150 oh        1 LLT     -0.589800
     15 C3'         7.2570   -1.6200   -0.0940 c3        1 LLT      0.115100
     16 O3'         8.6010   -1.6330   -0.5410 oh        1 LLT     -0.588800
     17 C2'         6.2950   -1.0550   -1.1430 c3        1 LLT     -0.147400
     18 H7          1.1250    1.0080    2.9100 hc        1 LLT      0.049700
     19 H7A         1.5130   -0.7130    3.3050 hc        1 LLT      0.049700
     20 H7B         2.7600    0.5820    3.5870 hc        1 LLT      0.049700
     21 H6          4.5370    0.3910    1.9500 h4        1 LLT      0.201000
     22 HN3         1.2990   -0.6420   -1.5580 hn        1 LLT      0.351500
     23 H1'         5.6460    1.0760   -1.1290 h2        1 LLT      0.101700
     24 H4'         8.1980   -0.2010    1.3420 h1        1 LLT      0.114700
     25 H5'         5.5870   -1.7730    2.0680 h1        1 LLT      0.035200
     26 H5'A        7.2820   -2.1210    2.6760 h1        1 LLT      0.035200
     27 HO5'        6.2330   -0.7910    4.1420 ho        1 LLT      0.405000
     28 H3'         6.9580   -2.6580    0.2140 h1        1 LLT      0.051700
     29 HO3'        8.6270   -2.1780   -1.3380 ho        1 LLT      0.411000
     30 H2'         5.5580   -1.8210   -1.4870 hc        1 LLT      0.086700
     31 H2'A        6.8560   -0.6910   -2.0400 hc        1 LLT      0.086700
@<TRIPOS>BOND
     1    1    2 2   
     2    2    3 1   
     3    2    6 1   
     4    3    4 1   
     5    3    5 2   
     6    4   18 1   
     7    4   19 1   
     8    4   20 1   
     9    5    9 1   
    10    5   21 1   
    11    6    7 1   
    12    6   22 1   
    13    7    8 2   
    14    7    9 1   
    15    9   10 1   
    16   10   11 1   
    17   10   17 1   
    18   10   23 1   
    19   11   12 1   
    20   12   13 1   
    21   12   15 1   
    22   12   24 1   
    23   13   14 1   
    24   13   25 1   
    25   13   26 1   
    26   14   27 1   
    27   15   16 1   
    28   15   17 1   
    29   15   28 1   
    30   16   29 1   
    31   17   30 1   
    32   17   31 1   
@<TRIPOS>SUBSTRUCTURE
     1 LLT         1 TEMP              0 ****  ****    0 ROOT
