@<TRIPOS>MOLECULE
LLT
   31    30     1     0     0
SMALL
bcc


@<TRIPOS>ATOM
      1 O4         -4.9150   -0.3170    0.1620 o         1 LLT     -0.327000
      2 C4         -3.7040   -0.3990    0.1270 c1        1 LLT      0.354000
      3 C5         -2.9650   -0.8700    1.3050 c2        1 LLT     -0.222000
      4 C7         -3.7030   -1.1740    2.5900 c3        1 LLT     -0.155000
      5 C6         -1.5000   -0.9720    1.2560 c1        1 LLT      0.033000
      6 N3         -3.0090   -0.1150   -1.0760 n2        1 LLT     -0.364000
      7 C2         -1.5480   -0.1690   -1.1080 c2        1 LLT      0.401000
      8 O2         -0.9500    0.1670   -2.1100 o         1 LLT     -0.384000
      9 N1         -0.8060   -0.6370    0.0630 n2        1 LLT     -0.278000
     10 C1'         0.6400   -0.7570    0.0060 c3        1 LLT      0.169000
     11 O4'         1.0630   -0.4470   -1.1520 os        1 LLT     -0.291000
     12 C4'         2.4970    0.2640   -0.9340 c3        1 LLT     -0.013000
     13 C5'         2.8230    1.1530   -2.1170 c3        1 LLT     -0.035000
     14 O5'         3.0800    0.3530   -3.2500 oh        1 LLT     -0.321000
     15 C3'         2.3920    0.9700    0.1320 c3        1 LLT      0.012000
     16 O3'         3.6930    0.9820    0.8770 oh        1 LLT     -0.319000
     17 C2'         1.3050    0.2670    0.9690 c3        1 LLT     -0.215000
     18 H7         -3.0550   -1.3540    3.3040 hc        1 LLT      0.092667
     19 H7A        -4.2730   -1.9600    2.4610 hc        1 LLT      0.092667
     20 H7B        -4.2570   -0.4050    2.8390 hc        1 LLT      0.092667
     21 H6         -1.0050   -1.2850    2.0370 ha        1 LLT      0.167000
     22 HN3        -3.4730    0.1150   -1.8270 hn        1 LLT      0.267000
     23 H1'         0.9160   -1.6670    0.2350 h2        1 LLT      0.126000
     24 H4'         3.1940   -0.4130   -0.8210 h1        1 LLT      0.141000
     25 H5'         2.0630    1.7440   -2.3000 h1        1 LLT      0.101500
     26 H5'A        3.6140    1.6930   -1.9120 h1        1 LLT      0.101500
     27 HO5'        3.5520    0.8200   -3.8410 ho        1 LLT      0.208000
     28 H3'         2.1160    1.8820   -0.0880 h1        1 LLT      0.118000
     29 HO3'        3.8630    1.8060    1.1640 ho        1 LLT      0.207000
     30 H2'         1.7090   -0.1960    1.7290 hc        1 LLT      0.121000
     31 H2'A        0.6440    0.9180    1.2800 hc        1 LLT      0.121000
@<TRIPOS>BOND
     1    1    2 1   
     2    2    3 1   
     3    3    4 1   
     4    3    5 1   
     5    4   18 1   
     6    4   19 1   
     7    4   20 1   
     8    5   21 1   
     9    6    7 1   
    10    6   22 1   
    11    7    8 1   
    12    7    9 1   
    13    9   10 1   
    14   10   11 1   
    15   10   17 1   
    16   10   23 1   
    17   11   12 1   
    18   12   13 1   
    19   12   15 1   
    20   12   24 1   
    21   13   14 1   
    22   13   25 1   
    23   13   26 1   
    24   14   27 1   
    25   15   16 1   
    26   15   17 1   
    27   15   28 1   
    28   16   29 1   
    29   17   30 1   
    30   17   31 1   
@<TRIPOS>SUBSTRUCTURE
     1 LLT         1 TEMP              0 ****  ****    0 ROOT
