@<TRIPOS>MOLECULE
LLT
   31    32     1     0     0
SMALL
bcc


@<TRIPOS>ATOM
      1 O4         -4.1830    0.8650    0.9150 o         1 LLT     -0.611500
      2 C4         -3.0560    0.5200    0.5230 c         1 LLT      0.715700
      3 C5         -1.9750    1.4340    0.1170 cc        1 LLT     -0.268400
      4 C7         -2.2620    2.8810    0.1660 c3        1 LLT     -0.027900
      5 C6         -0.7750    0.9320   -0.2900 cd        1 LLT      0.043600
      6 N3         -2.7640   -0.8560    0.4530 n         1 LLT     -0.584500
      7 C2         -1.5290   -1.3550    0.0210 c         1 LLT      0.804500
      8 O2         -1.3310   -2.5890   -0.0490 o         1 LLT     -0.655500
      9 N1         -0.5090   -0.4280   -0.3180 n         1 LLT     -0.401000
     10 C1'         0.7430   -0.9670   -0.8660 c3        1 LLT      0.317500
     11 O4'         1.6330    0.0930   -1.2260 os        1 LLT     -0.391600
     12 C4'         2.6810    0.2320   -0.2570 c3        1 LLT      0.132100
     13 C5'         2.4250    1.4290    0.6590 c3        1 LLT      0.106400
     14 O5'         2.2330    2.5640   -0.1670 oh        1 LLT     -0.589800
     15 C3'         2.7310   -1.0760    0.5610 c3        1 LLT      0.115100
     16 O3'         3.9590   -1.7090    0.2500 oh        1 LLT     -0.588800
     17 C2'         1.5170   -1.8900    0.1020 c3        1 LLT     -0.147400
     18 H7         -3.1930    3.1050   -0.4140 hc        1 LLT      0.049700
     19 H7A        -2.4340    3.2010    1.2240 hc        1 LLT      0.049700
     20 H7B        -1.4180    3.4760   -0.2600 hc        1 LLT      0.049700
     21 H6          0.0610    1.5900   -0.6170 h4        1 LLT      0.201000
     22 HN3        -3.4650   -1.5240    0.6930 hn        1 LLT      0.351500
     23 H1'         0.4900   -1.4940   -1.8340 h2        1 LLT      0.101700
     24 H4'         3.6150    0.3890   -0.8640 h1        1 LLT      0.114700
     25 H5'         1.5050    1.2630    1.2820 h1        1 LLT      0.035200
     26 H5'A        3.3130    1.5680    1.3320 h1        1 LLT      0.035200
     27 HO5'        2.2930    3.3360    0.4090 ho        1 LLT      0.405000
     28 H3'         2.6880   -0.8710    1.6660 h1        1 LLT      0.051700
     29 HO3'        3.9530   -2.5670    0.6910 ho        1 LLT      0.411000
     30 H2'         0.8910   -2.2250    0.9640 hc        1 LLT      0.086700
     31 H2'A        1.8410   -2.8010   -0.4610 hc        1 LLT      0.086700
@<TRIPOS>BOND
     1    1    2 2   
     2    2    3 1   
     3    2    6 1   
     4    3    4 1   
     5    3    5 2   
     6    4   18 1   
     7    4   19 1   
     8    4   20 1   
     9    5    9 1   
    10    5   21 1   
    11    6    7 1   
    12    6   22 1   
    13    7    8 2   
    14    7    9 1   
    15    9   10 1   
    16   10   11 1   
    17   10   17 1   
    18   10   23 1   
    19   11   12 1   
    20   12   13 1   
    21   12   15 1   
    22   12   24 1   
    23   13   14 1   
    24   13   25 1   
    25   13   26 1   
    26   14   27 1   
    27   15   16 1   
    28   15   17 1   
    29   15   28 1   
    30   16   29 1   
    31   17   30 1   
    32   17   31 1   
@<TRIPOS>SUBSTRUCTURE
     1 LLT         1 TEMP              0 ****  ****    0 ROOT
