@<TRIPOS>MOLECULE
LLT
   31    32     1     0     0
SMALL
bcc


@<TRIPOS>ATOM
      1 O4          0.2140   -0.5140    0.6690 o         1 LLT     -0.611500
      2 C4          1.4330   -0.3620    0.4840 c         1 LLT      0.715700
      3 C5          2.4190   -0.0220    1.5230 cc        1 LLT     -0.268400
      4 C7          1.9140    0.1650    2.8960 c3        1 LLT     -0.027900
      5 C6          3.7360    0.1130    1.1940 cd        1 LLT      0.043600
      6 N3          1.9360   -0.5210   -0.8220 n         1 LLT     -0.584500
      7 C2          3.2900   -0.3660   -1.1430 c         1 LLT      0.804500
      8 O2          3.6810   -0.4910   -2.3260 o         1 LLT     -0.655500
      9 N1          4.2030   -0.0810   -0.0950 n         1 LLT     -0.401000
     10 C1'         5.6010    0.1810   -0.4660 c3        1 LLT      0.317500
     11 O4'         6.3720    0.5250    0.6890 os        1 LLT     -0.391600
     12 C4'         7.1920   -0.5760    1.1030 c3        1 LLT      0.132100
     13 C5'         6.5960   -1.2740    2.3250 c3        1 LLT      0.106400
     14 O5'         6.3900   -0.2880    3.3210 oh        1 LLT     -0.589800
     15 C3'         7.2870   -1.5550   -0.0870 c3        1 LLT      0.115100
     16 O3'         8.6330   -1.5340   -0.5290 oh        1 LLT     -0.588800
     17 C2'         6.3150   -1.0130   -1.1390 c3        1 LLT     -0.147400
     18 H7          1.0750    0.9060    2.8970 hc        1 LLT      0.050033
     19 H7A         2.7200    0.5290    3.5780 hc        1 LLT      0.050033
     20 H7B         1.5140   -0.8030    3.2920 hc        1 LLT      0.050033
     21 H6          4.5080    0.3820    1.9490 h4        1 LLT      0.201000
     22 HN3         1.3120   -0.7270   -1.5720 hn        1 LLT      0.351500
     23 H1'         5.6120    1.1000   -1.1240 h2        1 LLT      0.101700
     24 H4'         8.1870   -0.1160    1.3540 h1        1 LLT      0.114700
     25 H5'         5.6130   -1.7540    2.0690 h1        1 LLT      0.035200
     26 H5'A        7.3140   -2.0600    2.6820 h1        1 LLT      0.035200
     27 HO5'        6.2260   -0.7600    4.1460 ho        1 LLT      0.405000
     28 H3'         7.0130   -2.6010    0.2180 h1        1 LLT      0.051700
     29 HO3'        8.6760   -2.0770   -1.3260 ho        1 LLT      0.411000
     30 H2'         6.8710   -0.6340   -2.0340 hc        1 LLT      0.086700
     31 H2'A        5.6000   -1.7970   -1.4870 hc        1 LLT      0.086700
@<TRIPOS>BOND
     1    1    2 2   
     2    2    3 1   
     3    2    6 1   
     4    3    4 1   
     5    3    5 2   
     6    4   18 1   
     7    4   19 1   
     8    4   20 1   
     9    5    9 1   
    10    5   21 1   
    11    6    7 1   
    12    6   22 1   
    13    7    8 2   
    14    7    9 1   
    15    9   10 1   
    16   10   11 1   
    17   10   17 1   
    18   10   23 1   
    19   11   12 1   
    20   12   13 1   
    21   12   15 1   
    22   12   24 1   
    23   13   14 1   
    24   13   25 1   
    25   13   26 1   
    26   14   27 1   
    27   15   16 1   
    28   15   17 1   
    29   15   28 1   
    30   16   29 1   
    31   17   30 1   
    32   17   31 1   
@<TRIPOS>SUBSTRUCTURE
     1 LLT         1 TEMP              0 ****  ****    0 ROOT
