@<TRIPOS>MOLECULE
LLT
   31    32     1     0     0
SMALL
bcc


@<TRIPOS>ATOM
      1 O4          0.2140   -0.4520    0.6780 o         1 LLT     -0.611500
      2 C4          1.4340   -0.3150    0.4910 c         1 LLT      0.715700
      3 C5          2.4270    0.0070    1.5300 cc        1 LLT     -0.268400
      4 C7          1.9260    0.1960    2.9050 c3        1 LLT     -0.027900
      5 C6          3.7440    0.1260    1.2000 cd        1 LLT      0.043600
      6 N3          1.9330   -0.4760   -0.8160 n         1 LLT     -0.584500
      7 C2          3.2880   -0.3380   -1.1390 c         1 LLT      0.804500
      8 O2          3.6750   -0.4640   -2.3230 o         1 LLT     -0.655500
      9 N1          4.2070   -0.0700   -0.0920 n         1 LLT     -0.401000
     10 C1'         5.6080    0.1730   -0.4630 c3        1 LLT      0.317500
     11 O4'         6.3850    0.5030    0.6910 os        1 LLT     -0.391600
     12 C4'         7.1910   -0.6110    1.0990 c3        1 LLT      0.132100
     13 C5'         6.5880   -1.3050    2.3200 c3        1 LLT      0.106400
     14 O5'         6.3960   -0.3190    3.3200 oh        1 LLT     -0.589800
     15 C3'         7.2710   -1.5870   -0.0940 c3        1 LLT      0.115100
     16 O3'         8.6160   -1.5830   -0.5390 oh        1 LLT     -0.588800
     17 C2'         6.3040   -1.0280   -1.1430 c3        1 LLT     -0.147400
     18 H7          1.5040   -0.7640    3.2940 hc        1 LLT      0.049700
     19 H7A         1.1050    0.9570    2.9110 hc        1 LLT      0.049700
     20 H7B         2.7410    0.5370    3.5890 hc        1 LLT      0.049700
     21 H6          4.5220    0.3810    1.9540 h4        1 LLT      0.201000
     22 HN3         1.3040   -0.6710   -1.5660 hn        1 LLT      0.351500
     23 H1'         5.6300    1.0950   -1.1180 h2        1 LLT      0.101700
     24 H4'         8.1920   -0.1650    1.3510 h1        1 LLT      0.114700
     25 H5'         7.2950   -2.1020    2.6730 h1        1 LLT      0.035200
     26 H5'A        5.5970   -1.7710    2.0640 h1        1 LLT      0.035200
     27 HO5'        6.2280   -0.7920    4.1440 ho        1 LLT      0.405000
     28 H3'         6.9830   -2.6300    0.2080 h1        1 LLT      0.051700
     29 HO3'        8.6500   -2.1230   -1.3380 ho        1 LLT      0.411000
     30 H2'         5.5770   -1.8010   -1.4920 hc        1 LLT      0.086700
     31 H2'A        6.8630   -0.6530   -2.0370 hc        1 LLT      0.086700
@<TRIPOS>BOND
     1    1    2 2   
     2    2    3 1   
     3    2    6 1   
     4    3    4 1   
     5    3    5 2   
     6    4   18 1   
     7    4   19 1   
     8    4   20 1   
     9    5    9 1   
    10    5   21 1   
    11    6    7 1   
    12    6   22 1   
    13    7    8 2   
    14    7    9 1   
    15    9   10 1   
    16   10   11 1   
    17   10   17 1   
    18   10   23 1   
    19   11   12 1   
    20   12   13 1   
    21   12   15 1   
    22   12   24 1   
    23   13   14 1   
    24   13   25 1   
    25   13   26 1   
    26   14   27 1   
    27   15   16 1   
    28   15   17 1   
    29   15   28 1   
    30   16   29 1   
    31   17   30 1   
    32   17   31 1   
@<TRIPOS>SUBSTRUCTURE
     1 LLT         1 TEMP              0 ****  ****    0 ROOT
