@<TRIPOS>MOLECULE
LLX
   40    42     1     0     0
SMALL
bcc


@<TRIPOS>ATOM
      1 N1         -0.0460    1.0840    0.4390 n4        1 LLX     -0.709000
      2 C2          1.3460    0.7070    0.2020 ca        1 LLX     -0.072400
      3 C3          2.3010    1.0730    1.1670 ca        1 LLX     -0.061000
      4 C4          3.6480    0.7780    0.9870 ca        1 LLX     -0.082000
      5 C5          4.0930    0.1100   -0.1650 cp        1 LLX      0.107000
      6 C6          3.1370   -0.2670   -1.1330 ca        1 LLX     -0.106000
      7 C7          1.7760    0.0150   -0.9660 ca        1 LLX      0.004600
      8 N8          0.8520   -0.4570   -2.0030 n4        1 LLX     -0.574200
      9 C9          0.3300    0.6680   -2.9250 c         1 LLX      0.623700
     10 O10        -0.3500    1.4950   -2.3250 o         1 LLX     -0.506100
     11 C11         0.6880    0.6060   -4.3240 ca        1 LLX     -0.227600
     12 C12         0.6270    1.8240   -5.0380 ca        1 LLX     -0.053000
     13 C13         0.9290    1.8480   -6.3970 ca        1 LLX     -0.120000
     14 C14         1.2780    0.6710   -7.0600 ca        1 LLX     -0.014000
     15 C15         1.3210   -0.5430   -6.3590 ca        1 LLX     -0.120000
     16 C16         1.0300   -0.5830   -5.0020 ca        1 LLX     -0.053000
     17 C17         5.4970   -0.1970   -0.3600 cp        1 LLX     -0.137000
     18 C18         6.3100   -0.5160    0.7430 ca        1 LLX     -0.086000
     19 C19         7.6580   -0.8090    0.5580 ca        1 LLX     -0.119500
     20 C20         8.2150   -0.7770   -0.7220 ca        1 LLX     -0.055000
     21 C21         7.4160   -0.4550   -1.8220 ca        1 LLX     -0.119500
     22 C22         6.0660   -0.1720   -1.6470 ca        1 LLX     -0.086000
     23 HN1        -0.3530    1.7770   -0.2650 hn        1 LLX      0.477467
     24 HN1A       -0.6610    0.2650    0.4030 hn        1 LLX      0.477467
     25 H3          2.0010    1.6110    2.0870 ha        1 LLX      0.183000
     26 H4          4.3790    1.0890    1.7590 ha        1 LLX      0.204000
     27 H6          3.5000   -0.8100   -2.0260 ha        1 LLX      0.183000
     28 HN8         0.0550   -0.9330   -1.5670 hn        1 LLX      0.465800
     29 H12         0.3360    2.7530   -4.5170 ha        1 LLX      0.151000
     30 H13         0.8820    2.8040   -6.9500 ha        1 LLX      0.185000
     31 H14         1.5100    0.6900   -8.1400 ha        1 LLX      0.187000
     32 H15         1.5780   -1.4740   -6.8940 ha        1 LLX      0.185000
     33 H16         1.0310   -1.5630   -4.5020 ha        1 LLX      0.151000
     34 H18         5.8810   -0.5560    1.7560 ha        1 LLX      0.133000
     35 H19         8.2870   -1.0660    1.4270 ha        1 LLX      0.167000
     36 H20         9.2860   -1.0040   -0.8650 ha        1 LLX      0.171000
     37 H21         7.8590   -0.4210   -2.8310 ha        1 LLX      0.167000
     38 H22         5.4530    0.1010   -2.5190 ha        1 LLX      0.133000
     39 H131       -0.1320    1.5110    1.3740 hn        1 LLX      0.477467
     40 H82         1.3520   -1.1510   -2.5810 hn        1 LLX      0.465800
@<TRIPOS>BOND
     1    1    2 1   
     2    1   23 1   
     3    1   24 1   
     4    1   39 1   
     5    2    3 ar  
     6    2    7 ar  
     7    3    4 ar  
     8    3   25 1   
     9    4    5 ar  
    10    4   26 1   
    11    5    6 ar  
    12    5   17 1   
    13    6    7 ar  
    14    6   27 1   
    15    7    8 1   
    16    8    9 1   
    17    8   28 1   
    18    8   40 1   
    19    9   10 2   
    20    9   11 1   
    21   11   12 ar  
    22   11   16 ar  
    23   12   13 ar  
    24   12   29 1   
    25   13   14 ar  
    26   13   30 1   
    27   14   15 ar  
    28   14   31 1   
    29   15   16 ar  
    30   15   32 1   
    31   16   33 1   
    32   17   18 ar  
    33   17   22 ar  
    34   18   19 ar  
    35   18   34 1   
    36   19   20 ar  
    37   19   35 1   
    38   20   21 ar  
    39   20   36 1   
    40   21   22 ar  
    41   21   37 1   
    42   22   38 1   
@<TRIPOS>SUBSTRUCTURE
     1 LLX         1 TEMP              0 ****  ****    0 ROOT
