@<TRIPOS>MOLECULE
LLX
   38    40     1     0     0
SMALL
bcc


@<TRIPOS>ATOM
      1 N1          0.0140   -0.5420   -0.1350 nv        1 LLX     -0.806200
      2 C2          1.4120   -0.3700   -0.0970 ca        1 LLX      0.086600
      3 C3          2.1280   -0.5940    1.0970 ca        1 LLX     -0.172000
      4 C4          3.5110   -0.4890    1.1430 ca        1 LLX     -0.104000
      5 C5          4.2350   -0.1470   -0.0040 cp        1 LLX     -0.050000
      6 C6          3.5520    0.0640   -1.2060 ca        1 LLX     -0.101000
      7 C7          2.1520   -0.0560   -1.2840 ca        1 LLX      0.024600
      8 N8          1.4720    0.1090   -2.5070 ns        1 LLX     -0.477100
      9 C9          1.8500    0.9660   -3.5300 c         1 LLX      0.674700
     10 O10         2.8410    1.7160   -3.4450 o         1 LLX     -0.586100
     11 C11         1.0050    0.9390   -4.7610 ca        1 LLX     -0.144600
     12 C12         1.6480    1.0670   -5.9990 ca        1 LLX     -0.091000
     13 C13         0.8990    1.0590   -7.1750 ca        1 LLX     -0.137500
     14 C14        -0.4890    0.9340   -7.1190 ca        1 LLX     -0.108000
     15 C15        -1.1310    0.8210   -5.8860 ca        1 LLX     -0.137500
     16 C16        -0.3880    0.8230   -4.7060 ca        1 LLX     -0.091000
     17 C17         5.6900   -0.0190    0.0480 cp        1 LLX     -0.030000
     18 C18         6.3090    0.5810    1.1550 ca        1 LLX     -0.118500
     19 C19         7.6960    0.7010    1.2060 ca        1 LLX     -0.130500
     20 C20         8.4810    0.2230    0.1560 ca        1 LLX     -0.129000
     21 C21         7.8730   -0.3740   -0.9470 ca        1 LLX     -0.130500
     22 C22         6.4860   -0.4950   -1.0040 ca        1 LLX     -0.118500
     23 HN1        -0.4540    0.2040   -0.6080 hn        1 LLX      0.377800
     24 HN1A       -0.3770   -0.6920    0.7720 hn        1 LLX      0.377800
     25 H3          1.5830   -0.8590    2.0170 ha        1 LLX      0.131000
     26 H4          4.0400   -0.6760    2.0900 ha        1 LLX      0.137000
     27 H6          4.1240    0.3520   -2.1050 ha        1 LLX      0.165000
     28 HN8         0.7130   -0.5130   -2.6750 hn        1 LLX      0.327500
     29 H12         2.7430    1.1840   -6.0290 ha        1 LLX      0.144500
     30 H13         1.4060    1.1560   -8.1460 ha        1 LLX      0.138000
     31 H14        -1.0790    0.9290   -8.0480 ha        1 LLX      0.136000
     32 H15        -2.2260    0.7330   -5.8410 ha        1 LLX      0.138000
     33 H16        -0.9090    0.7500   -3.7400 ha        1 LLX      0.144500
     34 H18         5.6940    0.9670    1.9810 ha        1 LLX      0.134500
     35 H19         8.1720    1.1760    2.0760 ha        1 LLX      0.130500
     36 H20         9.5750    0.3190    0.1980 ha        1 LLX      0.130000
     37 H21         8.4880   -0.7510   -1.7770 ha        1 LLX      0.130500
     38 H22         6.0110   -0.9690   -1.8760 ha        1 LLX      0.134500
@<TRIPOS>BOND
     1    1    2 1   
     2    1   23 1   
     3    1   24 1   
     4    2    3 ar  
     5    2    7 ar  
     6    3    4 ar  
     7    3   25 1   
     8    4    5 ar  
     9    4   26 1   
    10    5    6 ar  
    11    5   17 1   
    12    6    7 ar  
    13    6   27 1   
    14    7    8 1   
    15    8    9 1   
    16    8   28 1   
    17    9   10 2   
    18    9   11 1   
    19   11   12 ar  
    20   11   16 ar  
    21   12   13 ar  
    22   12   29 1   
    23   13   14 ar  
    24   13   30 1   
    25   14   15 ar  
    26   14   31 1   
    27   15   16 ar  
    28   15   32 1   
    29   16   33 1   
    30   17   18 ar  
    31   17   22 ar  
    32   18   19 ar  
    33   18   34 1   
    34   19   20 ar  
    35   19   35 1   
    36   20   21 ar  
    37   20   36 1   
    38   21   22 ar  
    39   21   37 1   
    40   22   38 1   
@<TRIPOS>SUBSTRUCTURE
     1 LLX         1 TEMP              0 ****  ****    0 ROOT
