@<TRIPOS>MOLECULE
LLX
   38    40     1     0     0
SMALL
bcc


@<TRIPOS>ATOM
      1 N1          0.0200   -0.5830   -0.1430 nh        1 LLX     -0.806200
      2 C2          1.4170   -0.4020   -0.1030 ca        1 LLX      0.086600
      3 C3          2.1350   -0.6310    1.0890 ca        1 LLX     -0.172000
      4 C4          3.5160   -0.5160    1.1360 ca        1 LLX     -0.104000
      5 C5          4.2380   -0.1580   -0.0080 cp        1 LLX     -0.050000
      6 C6          3.5530    0.0600   -1.2080 ca        1 LLX     -0.101000
      7 C7          2.1550   -0.0690   -1.2870 ca        1 LLX      0.024600
      8 N8          1.4740    0.1020   -2.5090 n         1 LLX     -0.477100
      9 C9          1.8450    0.9730   -3.5220 c         1 LLX      0.674700
     10 O10         2.8290    1.7300   -3.4290 o         1 LLX     -0.586100
     11 C11         1.0000    0.9510   -4.7540 ca        1 LLX     -0.144600
     12 C12         1.6420    1.0990   -5.9900 ca        1 LLX     -0.091000
     13 C13         0.8950    1.0970   -7.1660 ca        1 LLX     -0.137500
     14 C14        -0.4930    0.9590   -7.1130 ca        1 LLX     -0.108000
     15 C15        -1.1340    0.8260   -5.8810 ca        1 LLX     -0.137500
     16 C16        -0.3910    0.8210   -4.7010 ca        1 LLX     -0.091000
     17 C17         5.6920   -0.0190    0.0460 cp        1 LLX     -0.030000
     18 C18         6.3070    0.5740    1.1580 ca        1 LLX     -0.118500
     19 C19         7.6930    0.7040    1.2110 ca        1 LLX     -0.130500
     20 C20         8.4810    0.2430    0.1570 ca        1 LLX     -0.129000
     21 C21         7.8770   -0.3480   -0.9530 ca        1 LLX     -0.130500
     22 C22         6.4910   -0.4790   -1.0110 ca        1 LLX     -0.118500
     23 HN1        -0.4530    0.1640   -0.6090 hn        1 LLX      0.377800
     24 HN1A       -0.3700   -0.7440    0.7620 hn        1 LLX      0.377800
     25 H3          1.5910   -0.9100    2.0060 ha        1 LLX      0.131000
     26 H4          4.0470   -0.7090    2.0810 ha        1 LLX      0.137000
     27 H6          4.1230    0.3610   -2.1040 ha        1 LLX      0.165000
     28 HN8         0.7200   -0.5240   -2.6830 hn        1 LLX      0.327500
     29 H12         2.7360    1.2270   -6.0190 ha        1 LLX      0.144500
     30 H13         1.4010    1.2100   -8.1360 ha        1 LLX      0.138000
     31 H14        -1.0820    0.9590   -8.0420 ha        1 LLX      0.136000
     32 H15        -2.2280    0.7270   -5.8390 ha        1 LLX      0.138000
     33 H16        -0.9120    0.7330   -3.7360 ha        1 LLX      0.144500
     34 H18         5.6880    0.9470    1.9880 ha        1 LLX      0.134500
     35 H19         8.1650    1.1750    2.0860 ha        1 LLX      0.130500
     36 H20         9.5750    0.3460    0.2000 ha        1 LLX      0.130000
     37 H21         8.4960   -0.7120   -1.7860 ha        1 LLX      0.130500
     38 H22         6.0200   -0.9480   -1.8870 ha        1 LLX      0.134500
@<TRIPOS>BOND
     1    1    2 1   
     2    1   23 1   
     3    1   24 1   
     4    2    3 ar  
     5    2    7 ar  
     6    3    4 ar  
     7    3   25 1   
     8    4    5 ar  
     9    4   26 1   
    10    5    6 ar  
    11    5   17 1   
    12    6    7 ar  
    13    6   27 1   
    14    7    8 1   
    15    8    9 1   
    16    8   28 1   
    17    9   10 2   
    18    9   11 1   
    19   11   12 ar  
    20   11   16 ar  
    21   12   13 ar  
    22   12   29 1   
    23   13   14 ar  
    24   13   30 1   
    25   14   15 ar  
    26   14   31 1   
    27   15   16 ar  
    28   15   32 1   
    29   16   33 1   
    30   17   18 ar  
    31   17   22 ar  
    32   18   19 ar  
    33   18   34 1   
    34   19   20 ar  
    35   19   35 1   
    36   20   21 ar  
    37   20   36 1   
    38   21   22 ar  
    39   21   37 1   
    40   22   38 1   
@<TRIPOS>SUBSTRUCTURE
     1 LLX         1 TEMP              0 ****  ****    0 ROOT
