@<TRIPOS>MOLECULE
LLX
   38    40     1     0     0
SMALL
bcc


@<TRIPOS>ATOM
      1 N1         -0.7310    3.5630    0.4180 nh        1 LLX     -0.806200
      2 C2          0.2730    2.5820    0.2930 ca        1 LLX      0.086600
      3 C3          1.6350    2.9420    0.3450 ca        1 LLX     -0.172000
      4 C4          2.6390    1.9880    0.2840 ca        1 LLX     -0.104000
      5 C5          2.3220    0.6310    0.1580 cp        1 LLX     -0.050000
      6 C6          0.9790    0.2440    0.1200 ca        1 LLX     -0.101000
      7 C7         -0.0580    1.1900    0.2010 ca        1 LLX      0.024600
      8 N8         -1.4110    0.7930    0.2130 n         1 LLX     -0.477100
      9 C9         -1.9330   -0.3060   -0.4530 c         1 LLX      0.674700
     10 O10        -1.2370   -1.0490   -1.1710 o         1 LLX     -0.586100
     11 C11        -3.3910   -0.5670   -0.2560 ca        1 LLX     -0.144600
     12 C12        -3.8100   -1.8990   -0.1580 ca        1 LLX     -0.091000
     13 C13        -5.1620   -2.1920    0.0140 ca        1 LLX     -0.137500
     14 C14        -6.0980   -1.1590    0.0770 ca        1 LLX     -0.108000
     15 C15        -5.6820    0.1670   -0.0350 ca        1 LLX     -0.137500
     16 C16        -4.3300    0.4670   -0.2010 ca        1 LLX     -0.091000
     17 C17         3.3810   -0.3740    0.0750 cp        1 LLX     -0.030000
     18 C18         4.5390   -0.1220   -0.6740 ca        1 LLX     -0.118500
     19 C19         5.5490   -1.0790   -0.7510 ca        1 LLX     -0.130500
     20 C20         5.4160   -2.2950   -0.0820 ca        1 LLX     -0.129000
     21 C21         4.2670   -2.5530    0.6640 ca        1 LLX     -0.130500
     22 C22         3.2530   -1.6000    0.7430 ca        1 LLX     -0.118500
     23 HN1        -1.4600    3.4570   -0.2580 hn        1 LLX      0.377800
     24 HN1A       -0.3620    4.4910    0.4040 hn        1 LLX      0.377800
     25 H3          1.9140    4.0040    0.4380 ha        1 LLX      0.131000
     26 H4          3.6930    2.3020    0.3330 ha        1 LLX      0.137000
     27 H6          0.7310   -0.8260    0.0030 ha        1 LLX      0.165000
     28 HN8        -2.0120    1.2970    0.8260 hn        1 LLX      0.327500
     29 H12        -3.0640   -2.7070   -0.2300 ha        1 LLX      0.144500
     30 H13        -5.4890   -3.2390    0.0940 ha        1 LLX      0.138000
     31 H14        -7.1650   -1.3920    0.2120 ha        1 LLX      0.136000
     32 H15        -6.4220    0.9810    0.0050 ha        1 LLX      0.138000
     33 H16        -4.0190    1.5180   -0.3050 ha        1 LLX      0.144500
     34 H18         4.6450    0.8330   -1.2100 ha        1 LLX      0.134500
     35 H19         6.4520   -0.8730   -1.3440 ha        1 LLX      0.130500
     36 H20         6.2140   -3.0490   -0.1440 ha        1 LLX      0.130000
     37 H21         4.1580   -3.5120    1.1930 ha        1 LLX      0.130500
     38 H22         2.3490   -1.8080    1.3350 ha        1 LLX      0.134500
@<TRIPOS>BOND
     1    1    2 1   
     2    1   23 1   
     3    1   24 1   
     4    2    3 ar  
     5    2    7 ar  
     6    3    4 ar  
     7    3   25 1   
     8    4    5 ar  
     9    4   26 1   
    10    5    6 ar  
    11    5   17 1   
    12    6    7 ar  
    13    6   27 1   
    14    7    8 1   
    15    8    9 1   
    16    8   28 1   
    17    9   10 2   
    18    9   11 1   
    19   11   12 ar  
    20   11   16 ar  
    21   12   13 ar  
    22   12   29 1   
    23   13   14 ar  
    24   13   30 1   
    25   14   15 ar  
    26   14   31 1   
    27   15   16 ar  
    28   15   32 1   
    29   16   33 1   
    30   17   18 ar  
    31   17   22 ar  
    32   18   19 ar  
    33   18   34 1   
    34   19   20 ar  
    35   19   35 1   
    36   20   21 ar  
    37   20   36 1   
    38   21   22 ar  
    39   21   37 1   
    40   22   38 1   
@<TRIPOS>SUBSTRUCTURE
     1 LLX         1 TEMP              0 ****  ****    0 ROOT
