@<TRIPOS>MOLECULE
LLY
   30    29     1     0     0
SMALL
bcc


@<TRIPOS>ATOM
      1 N           1.3280   -2.0980   -2.9330 n3        1 LLY     -0.907800
      2 CA          0.4170   -0.9830   -2.7250 c3        1 LLY      0.037500
      3 CB          0.9270    0.1130   -1.7780 c3        1 LLY     -0.088400
      4 CG          1.1440   -0.3700   -0.3570 c3        1 LLY     -0.077400
      5 CD          1.5750    0.7540    0.5650 c3        1 LLY     -0.078400
      6 CE          1.8270    0.2380    1.9870 c3        1 LLY      0.155800
      7 NZ          2.1030    1.3040    2.9370 n3        1 LLY     -0.796200
      8 CH          2.3000    0.8300    4.3080 c3        1 LLY     -0.040500
      9 C1          2.5870    2.0390    5.2470 c         1 LLY      0.918600
     10 O1          3.4710    2.8970    4.9480 o         1 LLY     -0.886800
     11 O2          1.8710    2.1610    6.2900 o         1 LLY     -0.886800
     12 C2          3.3630   -0.2900    4.4650 c         1 LLY      0.918600
     13 O3          3.1780   -1.1860    5.3470 o         1 LLY     -0.886800
     14 O4          4.3560   -0.3450    3.6740 o         1 LLY     -0.886800
     15 C          -0.0080   -0.3010   -4.0660 c         1 LLY      0.906600
     16 O           0.8170   -0.2740   -5.0280 o         1 LLY     -0.862800
     17 OXT        -1.1710    0.1880   -4.1370 o         1 LLY     -0.862800
     18 H           1.7270   -2.0210   -3.8540 hn        1 LLY      0.330300
     19 H2          2.0830   -2.0490   -2.2750 hn        1 LLY      0.330300
     20 HA         -0.5170   -1.4230   -2.2660 h1        1 LLY      0.041700
     21 HB2         1.8820    0.5410   -2.1790 hc        1 LLY      0.037700
     22 HB3         0.1650    0.9360   -1.7790 hc        1 LLY      0.037700
     23 HG2         1.9230   -1.1760   -0.3340 hc        1 LLY      0.027700
     24 HG3         0.1930   -0.8250    0.0280 hc        1 LLY      0.027700
     25 HD2         0.7840    1.5470    0.5780 hc        1 LLY      0.025700
     26 HD3         2.5110    1.2250    0.1660 hc        1 LLY      0.025700
     27 HE2         0.8990   -0.2970    2.3380 h1        1 LLY      0.026200
     28 HE3         2.6570   -0.5280    1.9480 h1        1 LLY      0.026200
     29 HZ          2.9440    1.7830    2.6610 hn        1 LLY      0.355800
     30 HH          1.3180    0.3860    4.6470 h1        1 LLY      0.033700
@<TRIPOS>BOND
     1    1    2 1   
     2    1   18 1   
     3    1   19 1   
     4    2    3 1   
     5    2   15 1   
     6    2   20 1   
     7    3    4 1   
     8    3   21 1   
     9    3   22 1   
    10    4    5 1   
    11    4   23 1   
    12    4   24 1   
    13    5    6 1   
    14    5   25 1   
    15    5   26 1   
    16    6    7 1   
    17    6   27 1   
    18    6   28 1   
    19    7    8 1   
    20    7   29 1   
    21    8    9 1   
    22    8   12 1   
    23    8   30 1   
    24    9   10 1   
    25    9   11 1   
    26   12   13 1   
    27   12   14 1   
    28   15   16 1   
    29   15   17 1   
@<TRIPOS>SUBSTRUCTURE
     1 LLY         1 TEMP              0 ****  ****    0 ROOT
