@<TRIPOS>MOLECULE
LLZ
   54    55     1     0     0
SMALL
bcc


@<TRIPOS>ATOM
      1 C          -7.4030    1.8980   -1.2080 c         1 LLZ      0.887600
      2 N          -7.3750    0.3960    0.8430 n3        1 LLZ     -0.891800
      3 O          -8.6390    1.6400   -1.2850 o         1 LLZ     -0.844800
      4 C1          4.3410    1.1920    1.3400 ca        1 LLZ     -0.072000
      5 O1          1.5180   -3.2180    2.2700 o         1 LLZ     -0.534100
      6 C2          5.3330    2.0050    0.8490 ca        1 LLZ     -0.190000
      7 C3          6.0420    1.6140   -0.3190 ca        1 LLZ      0.125100
      8 O3          7.0660    2.3590   -0.8750 os        1 LLZ     -0.330900
      9 C4          5.7470    0.4270   -0.9710 ca        1 LLZ     -0.164000
     10 C5          4.7250   -0.4130   -0.4680 ca        1 LLZ      0.006000
     11 C6          4.0130   -0.0320    0.6990 ca        1 LLZ     -0.076000
     12 C7          2.9900   -0.8810    1.2000 ca        1 LLZ     -0.045000
     13 C8          2.6710   -2.0530    0.5500 ca        1 LLZ     -0.165600
     14 C9          3.3820   -2.4320   -0.6200 ca        1 LLZ     -0.095000
     15 CA         -6.5890    1.2570   -0.0330 c3        1 LLZ      0.018500
     16 CB         -5.3660    0.5610   -0.6290 c3        1 LLZ     -0.063400
     17 CD         -3.1130   -0.4300   -0.2120 c3        1 LLZ     -0.113400
     18 CE         -2.0940   -0.8230    0.8570 c3        1 LLZ      0.155800
     19 CG         -4.3470    0.1770    0.4220 c3        1 LLZ     -0.073400
     20 NZ         -0.8660   -1.4310    0.3830 n3        1 LLZ     -0.825200
     21 C10         4.3860   -1.6380   -1.1120 ca        1 LLZ     -0.136000
     22 C12         0.5770   -3.4080    0.0730 c3        1 LLZ     -0.174400
     23 C13        -0.8330   -2.8860    0.4160 c3        1 LLZ      0.180500
     24 C14        -1.8320   -3.6030   -0.4930 c3        1 LLZ     -0.131100
     25 C31         7.2780    3.6510   -0.3210 c3        1 LLZ      0.114700
     26 OXT        -6.7800    2.6540   -2.0030 o         1 LLZ     -0.844800
     27 HN         -8.2580    0.8570    0.9970 hn        1 LLZ      0.329800
     28 HNA        -7.5870   -0.4520    0.3460 hn        1 LLZ      0.329800
     29 H4          6.3020    0.1380   -1.8750 ha        1 LLZ      0.148000
     30 H7          2.4460   -0.5880    2.1130 ha        1 LLZ      0.153000
     31 H9          3.1200   -3.3760   -1.1220 ha        1 LLZ      0.132000
     32 HA         -6.2290    2.1160    0.6060 h1        1 LLZ      0.040700
     33 HB         -5.6820   -0.3520   -1.1980 hc        1 LLZ      0.045700
     34 HBA        -4.9080    1.2750   -1.3660 hc        1 LLZ      0.045700
     35 HD         -2.6550    0.3100   -0.9210 hc        1 LLZ      0.036700
     36 HDA        -3.4060   -1.3280   -0.8160 hc        1 LLZ      0.036700
     37 HE         -1.7810    0.1130    1.4060 h1        1 LLZ      0.048700
     38 HEA        -2.5940   -1.4990    1.6050 h1        1 LLZ      0.048700
     39 HG         -4.0560    1.0860    1.0120 hc        1 LLZ      0.037700
     40 HGA        -4.7980   -0.5530    1.1430 hc        1 LLZ      0.037700
     41 HNZ        -0.6520   -1.1040   -0.5420 hn        1 LLZ      0.355800
     42 H10         4.9450   -1.9290   -2.0140 ha        1 LLZ      0.133000
     43 H12         0.8600   -3.0980   -0.9650 hc        1 LLZ      0.061700
     44 H12A        0.5540   -4.5290    0.1110 hc        1 LLZ      0.061700
     45 H13        -1.0510   -3.1900    1.4850 h1        1 LLZ      0.071700
     46 H14        -1.7150   -4.7070   -0.3900 hc        1 LLZ      0.040700
     47 H14A       -2.8770   -3.3300   -0.2080 hc        1 LLZ      0.040700
     48 H14B       -1.6710   -3.3250   -1.5620 hc        1 LLZ      0.040700
     49 H31         6.3480    4.2670   -0.3760 h1        1 LLZ      0.043033
     50 H31A        7.6350    3.5720    0.7350 h1        1 LLZ      0.043033
     51 H31B        8.0780    4.0860   -0.9730 h1        1 LLZ      0.043033
     52 C11         1.5870   -2.9170    1.0730 c         1 LLZ      0.598700
     53 H1          3.7790    1.4820    2.2420 ha        1 LLZ      0.140000
     54 H2          5.5750    2.9510    1.3530 ha        1 LLZ      0.137000
@<TRIPOS>BOND
     1    1    3 1   
     2    1   15 1   
     3    1   26 1   
     4    2   15 1   
     5    2   27 1   
     6    2   28 1   
     7    4    6 ar  
     8    4   11 ar  
     9    4   53 1   
    10    5   52 2   
    11    6    7 ar  
    12    6   54 1   
    13    7    8 1   
    14    7    9 ar  
    15    8   25 1   
    16    9   10 ar  
    17    9   29 1   
    18   10   11 ar  
    19   10   21 ar  
    20   11   12 ar  
    21   12   13 ar  
    22   12   30 1   
    23   13   14 ar  
    24   13   52 1   
    25   14   21 ar  
    26   14   31 1   
    27   15   16 1   
    28   15   32 1   
    29   16   19 1   
    30   16   33 1   
    31   16   34 1   
    32   17   18 1   
    33   17   19 1   
    34   17   35 1   
    35   17   36 1   
    36   18   20 1   
    37   18   37 1   
    38   18   38 1   
    39   19   39 1   
    40   19   40 1   
    41   20   23 1   
    42   20   41 1   
    43   21   42 1   
    44   22   23 1   
    45   22   43 1   
    46   22   44 1   
    47   22   52 1   
    48   23   24 1   
    49   23   45 1   
    50   24   46 1   
    51   24   47 1   
    52   24   48 1   
    53   25   49 1   
    54   25   50 1   
    55   25   51 1   
@<TRIPOS>SUBSTRUCTURE
     1 LLZ         1 TEMP              0 ****  ****    0 ROOT
