@<TRIPOS>MOLECULE
LM3
   43    46     1     0     0
SMALL
bcc


@<TRIPOS>ATOM
      1 C3          0.0070   -0.0820   -0.0130 c3        1 LM3      0.189100
      2 N2          1.4420    0.0290    0.0580 nh        1 LM3     -0.750300
      3 C1          2.0700   -0.4130    1.2780 c3        1 LM3      0.189100
      4 C4          2.1490   -0.0850   -1.1460 ca        1 LM3      0.584200
      5 N9          3.5190   -0.4000   -1.1260 nb        1 LM3     -0.353000
      6 N8          4.2030   -0.4310   -2.1790 nb        1 LM3     -0.260000
      7 C7          3.6750   -0.1660   -3.4250 cp        1 LM3      0.340800
      8 C6          2.3030    0.1550   -3.5600 cq        1 LM3     -0.060300
      9 C10         1.6700    0.4510   -4.8440 cq        1 LM3     -0.011000
     10 C21         0.4870   -0.2070   -5.2160 ca        1 LM3     -0.226800
     11 C20        -0.1070    0.1220   -6.4470 ca        1 LM3      0.391200
     12 N19         0.3920    1.0440   -7.2940 nb        1 LM3     -0.658000
     13 C18         1.5250    1.6690   -6.9230 ca        1 LM3      0.391200
     14 C17         2.2000    1.4100   -5.7160 ca        1 LM3     -0.226800
     15 C5          1.5230    0.1850   -2.3970 ca        1 LM3     -0.266300
     16 C11         4.5780   -0.2760   -4.5850 cp        1 LM3     -0.117500
     17 C16         5.4490    0.8040   -4.9240 ca        1 LM3     -0.018000
     18 C25         5.4770    2.0220   -4.1900 ca        1 LM3     -0.118000
     19 C24         6.3310    3.0370   -4.5460 ca        1 LM3     -0.126000
     20 C23         7.1980    2.8880   -5.6550 ca        1 LM3     -0.128000
     21 C22         7.1920    1.7250   -6.3830 ca        1 LM3     -0.117000
     22 C15         6.3200    0.6560   -6.0360 ca        1 LM3     -0.040000
     23 C14         6.3090   -0.5550   -6.7790 ca        1 LM3     -0.110000
     24 C13         5.4670   -1.5800   -6.4270 ca        1 LM3     -0.129000
     25 C12         4.5990   -1.4430   -5.3200 ca        1 LM3     -0.101000
     26 H1         -0.4080    0.8400   -0.5020 h1        1 LM3      0.045700
     27 H2         -0.3220   -0.9810   -0.6020 h1        1 LM3      0.045700
     28 H3         -0.4200   -0.1570    1.0220 h1        1 LM3      0.045700
     29 H4          2.2420   -1.5240    1.2870 h1        1 LM3      0.045700
     30 H5          1.4150   -0.1390    2.1460 h1        1 LM3      0.045700
     31 H6          3.0580    0.1050    1.4010 h1        1 LM3      0.045700
     32 H7          0.0360   -0.9660   -4.5650 ha        1 LM3      0.152000
     33 H8         -1.0350   -0.3800   -6.7750 h4        1 LM3      0.024600
     34 H9          1.9160    2.4200   -7.6340 h4        1 LM3      0.024600
     35 H10         3.1310    1.9410   -5.4680 ha        1 LM3      0.152000
     36 H11         0.4540    0.4280   -2.4660 ha        1 LM3      0.154000
     37 H12         4.8070    2.1340   -3.3240 ha        1 LM3      0.139000
     38 H13         6.3540    3.9750   -3.9720 ha        1 LM3      0.134000
     39 H14         7.8730    3.7150   -5.9210 ha        1 LM3      0.133000
     40 H15         7.8620    1.5960   -7.2470 ha        1 LM3      0.133000
     41 H16         6.9910   -0.6530   -7.6380 ha        1 LM3      0.134000
     42 H17         5.4580   -2.5220   -6.9960 ha        1 LM3      0.135000
     43 H18         3.9410   -2.2840   -5.0510 ha        1 LM3      0.138000
@<TRIPOS>BOND
     1    1    2 1   
     2    1   26 1   
     3    1   27 1   
     4    1   28 1   
     5    2    3 1   
     6    2    4 1   
     7    3   29 1   
     8    3   30 1   
     9    3   31 1   
    10    4    5 ar  
    11    4   15 ar  
    12    5    6 ar  
    13    6    7 ar  
    14    7    8 2   
    15    7   16 1   
    16    8    9 1   
    17    8   15 1   
    18    9   10 1   
    19    9   14 2   
    20   10   11 ar  
    21   10   32 1   
    22   11   12 ar  
    23   11   33 1   
    24   12   13 ar  
    25   13   14 ar  
    26   13   34 1   
    27   14   35 1   
    28   15   36 1   
    29   16   17 ar  
    30   16   25 ar  
    31   17   18 ar  
    32   17   22 ar  
    33   18   19 ar  
    34   18   37 1   
    35   19   20 ar  
    36   19   38 1   
    37   20   21 ar  
    38   20   39 1   
    39   21   22 ar  
    40   21   40 1   
    41   22   23 ar  
    42   23   24 ar  
    43   23   41 1   
    44   24   25 ar  
    45   24   42 1   
    46   25   43 1   
@<TRIPOS>SUBSTRUCTURE
     1 LM3         1 TEMP              0 ****  ****    0 ROOT
