@<TRIPOS>MOLECULE
LM3
   43    46     1     0     0
SMALL
bcc


@<TRIPOS>ATOM
      1 C3          5.2860   -0.3630   -0.3200 c3        1 LM3      0.189100
      2 N2          4.3570   -1.4360   -0.0720 nh        1 LM3     -0.750300
      3 C1          4.8910   -2.6340    0.5260 c3        1 LM3      0.189100
      4 C4          3.0300   -1.0800    0.1980 ca        1 LM3      0.584200
      5 N9          2.1780   -1.9940    0.8420 nb        1 LM3     -0.353000
      6 N8          0.9610   -1.7410    1.0280 nb        1 LM3     -0.260000
      7 C7          0.3690   -0.5620    0.6260 cp        1 LM3      0.340800
      8 C6          1.1390    0.4320   -0.0250 cq        1 LM3     -0.060300
      9 C10         0.5860    1.7050   -0.4830 cq        1 LM3     -0.011000
     10 C21         1.2160    2.9120   -0.1430 ca        1 LM3     -0.226800
     11 C20         0.6690    4.1140   -0.6230 ca        1 LM3      0.391200
     12 N19        -0.4280    4.1770   -1.4030 nb        1 LM3     -0.658000
     13 C18        -1.0200    3.0110   -1.7240 ca        1 LM3      0.391200
     14 C17        -0.5570    1.7560   -1.2920 ca        1 LM3     -0.226800
     15 C5          2.5000    0.1700   -0.2340 ca        1 LM3     -0.266300
     16 C11        -1.0580   -0.3730    0.9420 cp        1 LM3     -0.117500
     17 C16        -2.0620   -0.9510    0.1070 ca        1 LM3     -0.018000
     18 C25        -1.7470   -1.7040   -1.0580 ca        1 LM3     -0.118000
     19 C24        -2.7410   -2.2460   -1.8350 ca        1 LM3     -0.126000
     20 C23        -4.1010   -2.0600   -1.4900 ca        1 LM3     -0.128000
     21 C22        -4.4370   -1.3370   -0.3720 ca        1 LM3     -0.117000
     22 C15        -3.4270   -0.7670    0.4520 ca        1 LM3     -0.040000
     23 C14        -3.7630   -0.0200    1.6140 ca        1 LM3     -0.110000
     24 C13        -2.7770    0.5180    2.4040 ca        1 LM3     -0.129000
     25 C12        -1.4150    0.3360    2.0700 ca        1 LM3     -0.101000
     26 H1          5.0610    0.0930   -1.3220 h1        1 LM3      0.045700
     27 H2          5.2250    0.4420    0.4630 h1        1 LM3      0.045700
     28 H3          6.3330   -0.7630   -0.3410 h1        1 LM3      0.045700
     29 H4          4.9630   -2.5540    1.6440 h1        1 LM3      0.045700
     30 H5          4.2350   -3.5080    0.2690 h1        1 LM3      0.045700
     31 H6          5.9150   -2.8250    0.1080 h1        1 LM3      0.045700
     32 H7          2.1130    2.9200    0.4890 ha        1 LM3      0.152000
     33 H8          1.1340    5.0840   -0.3700 h4        1 LM3      0.024600
     34 H9         -1.9180    3.0880   -2.3630 h4        1 LM3      0.024600
     35 H10        -1.0870    0.8330   -1.5740 ha        1 LM3      0.152000
     36 H11         3.1270    0.9200   -0.7340 ha        1 LM3      0.154000
     37 H12        -0.6880   -1.8530   -1.3210 ha        1 LM3      0.139000
     38 H13        -2.4930   -2.8330   -2.7310 ha        1 LM3      0.134000
     39 H14        -4.8800   -2.5040   -2.1270 ha        1 LM3      0.133000
     40 H15        -5.4900   -1.1870   -0.0920 ha        1 LM3      0.133000
     41 H16        -4.8250    0.1130    1.8680 ha        1 LM3      0.134000
     42 H17        -3.0300    1.0930    3.3070 ha        1 LM3      0.135000
     43 H18        -0.6430    0.7680    2.7250 ha        1 LM3      0.138000
@<TRIPOS>BOND
     1    1    2 1   
     2    1   26 1   
     3    1   27 1   
     4    1   28 1   
     5    2    3 1   
     6    2    4 1   
     7    3   29 1   
     8    3   30 1   
     9    3   31 1   
    10    4    5 ar  
    11    4   15 ar  
    12    5    6 ar  
    13    6    7 ar  
    14    7    8 2   
    15    7   16 1   
    16    8    9 1   
    17    8   15 1   
    18    9   10 1   
    19    9   14 2   
    20   10   11 ar  
    21   10   32 1   
    22   11   12 ar  
    23   11   33 1   
    24   12   13 ar  
    25   13   14 ar  
    26   13   34 1   
    27   14   35 1   
    28   15   36 1   
    29   16   17 ar  
    30   16   25 ar  
    31   17   18 ar  
    32   17   22 ar  
    33   18   19 ar  
    34   18   37 1   
    35   19   20 ar  
    36   19   38 1   
    37   20   21 ar  
    38   20   39 1   
    39   21   22 ar  
    40   21   40 1   
    41   22   23 ar  
    42   23   24 ar  
    43   23   41 1   
    44   24   25 ar  
    45   24   42 1   
    46   25   43 1   
@<TRIPOS>SUBSTRUCTURE
     1 LM3         1 TEMP              0 ****  ****    0 ROOT
