@<TRIPOS>MOLECULE
LM3
   44    47     1     0     0
SMALL
bcc


@<TRIPOS>ATOM
      1 C3          1.0060   -1.4640    0.5080 c3        1 LM3      0.091100
      2 N2          1.1380   -0.0890   -0.0520 n4        1 LM3     -0.645100
      3 C1          1.7390    0.8370    0.9490 c3        1 LM3      0.091100
      4 C4          1.9220   -0.0980   -1.3050 ca        1 LM3      0.346200
      5 N9          3.2420   -0.5350   -1.2460 nb        1 LM3     -0.268000
      6 N8          3.9500   -0.5660   -2.2810 nb        1 LM3     -0.253000
      7 C7          3.4780   -0.1720   -3.5260 cp        1 LM3      0.485800
      8 C6          2.1470    0.2980   -3.6690 cq        1 LM3     -0.066300
      9 C10         1.5820    0.7540   -4.9340 cq        1 LM3     -0.051000
     10 C21         0.3310    0.2810   -5.3610 ca        1 LM3     -0.221800
     11 C20        -0.1890    0.7620   -6.5750 ca        1 LM3      0.407700
     12 N19         0.4460    1.6620   -7.3510 nb        1 LM3     -0.628000
     13 C18         1.6430    2.1090   -6.9300 ca        1 LM3      0.407700
     14 C17         2.2560    1.6860   -5.7340 ca        1 LM3     -0.221800
     15 C5          1.3390    0.3290   -2.5130 ca        1 LM3     -0.160300
     16 C11         4.3970   -0.3020   -4.6690 cp        1 LM3     -0.190500
     17 C16         5.4160    0.6740   -4.8810 ca        1 LM3     -0.007000
     18 C25         5.5670    1.8230   -4.0560 ca        1 LM3     -0.148000
     19 C24         6.5660    2.7340   -4.2980 ca        1 LM3     -0.097000
     20 C23         7.4600    2.5490   -5.3800 ca        1 LM3     -0.123000
     21 C22         7.3340    1.4540   -6.1980 ca        1 LM3     -0.100000
     22 C15         6.3100    0.4920   -5.9700 ca        1 LM3     -0.043000
     23 C14         6.1720   -0.6450   -6.8110 ca        1 LM3     -0.074000
     24 C13         5.1810   -1.5680   -6.5810 ca        1 LM3     -0.137000
     25 C12         4.2880   -1.4000   -5.4990 ca        1 LM3     -0.069000
     26 H1          0.3170   -1.4250    1.3930 hx        1 LM3      0.109700
     27 H2          2.0140   -1.8420    0.8300 hx        1 LM3      0.109700
     28 H3          0.5870   -2.1450   -0.2790 hx        1 LM3      0.109700
     29 H4          2.7460    0.4520    1.2680 hx        1 LM3      0.109700
     30 H5          1.8580    1.8540    0.4880 hx        1 LM3      0.109700
     31 H6          1.0580    0.8940    1.8400 hx        1 LM3      0.109700
     32 H7         -0.2290   -0.4590   -4.7750 ha        1 LM3      0.152500
     33 H8         -1.1670    0.4080   -6.9520 h4        1 LM3      0.043100
     34 H9          2.1440    2.8450   -7.5880 h4        1 LM3      0.043100
     35 H10         3.2450    2.0720   -5.4460 ha        1 LM3      0.152500
     36 H11         0.2980    0.6830   -2.5840 ha        1 LM3      0.173000
     37 H12         4.8780    1.9690   -3.2130 ha        1 LM3      0.118000
     38 H13         6.6850    3.6190   -3.6530 ha        1 LM3      0.143000
     39 H14         8.2540    3.2920   -5.5520 ha        1 LM3      0.150000
     40 H15         8.0230    1.2980   -7.0430 ha        1 LM3      0.148000
     41 H16         6.8770   -0.7720   -7.6480 ha        1 LM3      0.151000
     42 H17         5.0710   -2.4510   -7.2290 ha        1 LM3      0.153000
     43 H18         3.5110   -2.1610   -5.3290 ha        1 LM3      0.138000
     44 H21         0.1970    0.2570   -0.2900 hn        1 LM3      0.450800
@<TRIPOS>BOND
     1    1    2 1   
     2    1   26 1   
     3    1   27 1   
     4    1   28 1   
     5    2    3 1   
     6    2    4 1   
     7    2   44 1   
     8    3   29 1   
     9    3   30 1   
    10    3   31 1   
    11    4    5 ar  
    12    4   15 ar  
    13    5    6 ar  
    14    6    7 ar  
    15    7    8 2   
    16    7   16 1   
    17    8    9 1   
    18    8   15 1   
    19    9   10 1   
    20    9   14 2   
    21   10   11 ar  
    22   10   32 1   
    23   11   12 ar  
    24   11   33 1   
    25   12   13 ar  
    26   13   14 ar  
    27   13   34 1   
    28   14   35 1   
    29   15   36 1   
    30   16   17 ar  
    31   16   25 ar  
    32   17   18 ar  
    33   17   22 ar  
    34   18   19 ar  
    35   18   37 1   
    36   19   20 ar  
    37   19   38 1   
    38   20   21 ar  
    39   20   39 1   
    40   21   22 ar  
    41   21   40 1   
    42   22   23 ar  
    43   23   24 ar  
    44   23   41 1   
    45   24   25 ar  
    46   24   42 1   
    47   25   43 1   
@<TRIPOS>SUBSTRUCTURE
     1 LM3         1 TEMP              0 ****  ****    0 ROOT
