@<TRIPOS>MOLECULE
LM3
   43    46     1     0     0
SMALL
bcc


@<TRIPOS>ATOM
      1 C3          0.0140   -0.0970   -0.0090 c3        1 LM3      0.189100
      2 N2          1.4490    0.0130    0.0590 nh        1 LM3     -0.750300
      3 C1          2.0790   -0.4340    1.2760 c3        1 LM3      0.189100
      4 C4          2.1540   -0.0950   -1.1460 ca        1 LM3      0.584200
      5 N9          3.5230   -0.4120   -1.1300 nb        1 LM3     -0.353000
      6 N8          4.2050   -0.4380   -2.1840 nb        1 LM3     -0.260000
      7 C7          3.6760   -0.1680   -3.4290 cp        1 LM3      0.340800
      8 C6          2.3030    0.1540   -3.5600 cq        1 LM3     -0.060300
      9 C10         1.6680    0.4560   -4.8410 cq        1 LM3     -0.011000
     10 C21         0.4840   -0.1990   -5.2140 ca        1 LM3     -0.226800
     11 C20        -0.1120    0.1350   -6.4420 ca        1 LM3      0.391200
     12 N19         0.3860    1.0590   -7.2860 nb        1 LM3     -0.658000
     13 C18         1.5200    1.6830   -6.9150 ca        1 LM3      0.391200
     14 C17         2.1970    1.4180   -5.7100 ca        1 LM3     -0.226800
     15 C5          1.5250    0.1800   -2.3950 ca        1 LM3     -0.266300
     16 C11         4.5760   -0.2740   -4.5910 cp        1 LM3     -0.117500
     17 C16         5.4480    0.8070   -4.9260 ca        1 LM3     -0.018000
     18 C25         5.4780    2.0220   -4.1880 ca        1 LM3     -0.118000
     19 C24         6.3310    3.0380   -4.5400 ca        1 LM3     -0.126000
     20 C23         7.1960    2.8930   -5.6520 ca        1 LM3     -0.128000
     21 C22         7.1890    1.7330   -6.3850 ca        1 LM3     -0.117000
     22 C15         6.3160    0.6640   -6.0400 ca        1 LM3     -0.040000
     23 C14         6.3030   -0.5450   -6.7890 ca        1 LM3     -0.110000
     24 C13         5.4610   -1.5700   -6.4400 ca        1 LM3     -0.129000
     25 C12         4.5950   -1.4380   -5.3300 ca        1 LM3     -0.101000
     26 H1         -0.3160   -0.9930   -0.6020 h1        1 LM3      0.045867
     27 H2         -0.4110   -0.1760    1.0260 h1        1 LM3      0.045867
     28 H3         -0.4020    0.8280   -0.4930 h1        1 LM3      0.045867
     29 H4          1.4250   -0.1620    2.1470 h1        1 LM3      0.045867
     30 H5          3.0680    0.0840    1.4000 h1        1 LM3      0.045867
     31 H6          2.2510   -1.5440    1.2810 h1        1 LM3      0.045867
     32 H7          0.0340   -0.9610   -4.5640 ha        1 LM3      0.152000
     33 H8         -1.0410   -0.3650   -6.7710 h4        1 LM3      0.024600
     34 H9          1.9100    2.4360   -7.6230 h4        1 LM3      0.024600
     35 H10         3.1300    1.9480   -5.4610 ha        1 LM3      0.152000
     36 H11         0.4560    0.4240   -2.4610 ha        1 LM3      0.154000
     37 H12         4.8090    2.1300   -3.3200 ha        1 LM3      0.139000
     38 H13         6.3560    3.9740   -3.9630 ha        1 LM3      0.134000
     39 H14         7.8720    3.7200   -5.9150 ha        1 LM3      0.133000
     40 H15         7.8570    1.6070   -7.2500 ha        1 LM3      0.133000
     41 H16         6.9830   -0.6400   -7.6490 ha        1 LM3      0.134000
     42 H17         5.4500   -2.5090   -7.0130 ha        1 LM3      0.135000
     43 H18         3.9370   -2.2790   -5.0630 ha        1 LM3      0.138000
@<TRIPOS>BOND
     1    1    2 1   
     2    1   26 1   
     3    1   27 1   
     4    1   28 1   
     5    2    3 1   
     6    2    4 1   
     7    3   29 1   
     8    3   30 1   
     9    3   31 1   
    10    4    5 ar  
    11    4   15 ar  
    12    5    6 ar  
    13    6    7 ar  
    14    7    8 2   
    15    7   16 1   
    16    8    9 1   
    17    8   15 1   
    18    9   10 1   
    19    9   14 2   
    20   10   11 ar  
    21   10   32 1   
    22   11   12 ar  
    23   11   33 1   
    24   12   13 ar  
    25   13   14 ar  
    26   13   34 1   
    27   14   35 1   
    28   15   36 1   
    29   16   17 ar  
    30   16   25 ar  
    31   17   18 ar  
    32   17   22 ar  
    33   18   19 ar  
    34   18   37 1   
    35   19   20 ar  
    36   19   38 1   
    37   20   21 ar  
    38   20   39 1   
    39   21   22 ar  
    40   21   40 1   
    41   22   23 ar  
    42   23   24 ar  
    43   23   41 1   
    44   24   25 ar  
    45   24   42 1   
    46   25   43 1   
@<TRIPOS>SUBSTRUCTURE
     1 LM3         1 TEMP              0 ****  ****    0 ROOT
