@<TRIPOS>MOLECULE
LM4
   43    46     1     0     0
SMALL
bcc


@<TRIPOS>ATOM
      1 C3          0.0370   -0.1090   -0.0080 c3        1 LM4      0.189100
      2 N2          1.4520    0.1610    0.0130 nh        1 LM4     -0.749300
      3 C1          2.1540   -0.1400    1.2350 c3        1 LM4      0.189100
      4 C4          2.1380    0.0540   -1.2040 ca        1 LM4      0.583200
      5 N9          3.5330   -0.1150   -1.2090 nb        1 LM4     -0.350000
      6 N8          4.1880   -0.1460   -2.2800 nb        1 LM4     -0.267000
      7 C7          3.6040   -0.0220   -3.5250 cp        1 LM4      0.348800
      8 C6          2.2050    0.1680   -3.6310 cq        1 LM4     -0.065300
      9 C10         1.5120    0.3600   -4.9040 cq        1 LM4     -0.010000
     10 C21         1.8870    1.3810   -5.7890 ca        1 LM4     -0.227300
     11 C20         1.1550    1.5400   -6.9790 ca        1 LM4      0.392200
     12 N19         0.1090    0.7650   -7.3230 nb        1 LM4     -0.658000
     13 C18        -0.2410   -0.2120   -6.4640 ca        1 LM4      0.392200
     14 C17         0.4210   -0.4520   -5.2470 ca        1 LM4     -0.227300
     15 C5          1.4560    0.1910   -2.4480 ca        1 LM4     -0.263300
     16 C11         4.4830   -0.1140   -4.6990 cp        1 LM4     -0.134500
     17 C16         5.6170    0.6660   -4.7930 ca        1 LM4     -0.084000
     18 C15         6.4720    0.5640   -5.9240 ca        1 LM4     -0.043000
     19 C25         7.6410    1.3650   -6.0460 ca        1 LM4     -0.113000
     20 C24         8.4540    1.2480   -7.1470 ca        1 LM4     -0.130000
     21 C23         8.1370    0.3270   -8.1750 ca        1 LM4     -0.124000
     22 C22         7.0160   -0.4600   -8.0810 ca        1 LM4     -0.120000
     23 C14         6.1570   -0.3600   -6.9530 ca        1 LM4     -0.031000
     24 C13         4.9920   -1.1640   -6.8250 ca        1 LM4     -0.120000
     25 C12         4.1760   -1.0460   -5.7290 ca        1 LM4     -0.110000
     26 H1         -0.3540   -0.1780    1.0410 h1        1 LM4      0.045867
     27 H2         -0.4900    0.7370   -0.5270 h1        1 LM4      0.045867
     28 H3         -0.2060   -1.0670   -0.5450 h1        1 LM4      0.045867
     29 H4          3.0830    0.4880    1.3000 h1        1 LM4      0.045867
     30 H5          2.4460   -1.2230    1.3010 h1        1 LM4      0.045867
     31 H6          1.4940    0.1140    2.1070 h1        1 LM4      0.045867
     32 H7          2.7380    2.0380   -5.5640 ha        1 LM4      0.151000
     33 H8          1.4220    2.3340   -7.7000 h4        1 LM4      0.025600
     34 H9         -1.1000   -0.8350   -6.7690 h4        1 LM4      0.025600
     35 H10         0.0910   -1.2620   -4.5830 ha        1 LM4      0.151000
     36 H11         0.3680    0.3300   -2.4960 ha        1 LM4      0.154000
     37 H12         5.8820    1.3750   -3.9940 ha        1 LM4      0.145000
     38 H13         7.8800    2.0750   -5.2400 ha        1 LM4      0.135000
     39 H14         9.3590    1.8650   -7.2440 ha        1 LM4      0.133000
     40 H15         8.8040    0.2510   -9.0470 ha        1 LM4      0.132000
     41 H16         6.7630   -1.1800   -8.8740 ha        1 LM4      0.133000
     42 H17         4.7580   -1.8860   -7.6220 ha        1 LM4      0.135000
     43 H18         3.2740   -1.6680   -5.6280 ha        1 LM4      0.137000
@<TRIPOS>BOND
     1    1    2 1   
     2    1   26 1   
     3    1   27 1   
     4    1   28 1   
     5    2    3 1   
     6    2    4 1   
     7    3   29 1   
     8    3   30 1   
     9    3   31 1   
    10    4    5 ar  
    11    4   15 ar  
    12    5    6 ar  
    13    6    7 ar  
    14    7    8 2   
    15    7   16 1   
    16    8    9 1   
    17    8   15 1   
    18    9   10 1   
    19    9   14 2   
    20   10   11 ar  
    21   10   32 1   
    22   11   12 ar  
    23   11   33 1   
    24   12   13 ar  
    25   13   14 ar  
    26   13   34 1   
    27   14   35 1   
    28   15   36 1   
    29   16   17 ar  
    30   16   25 ar  
    31   17   18 ar  
    32   17   37 1   
    33   18   19 ar  
    34   18   23 ar  
    35   19   20 ar  
    36   19   38 1   
    37   20   21 ar  
    38   20   39 1   
    39   21   22 ar  
    40   21   40 1   
    41   22   23 ar  
    42   22   41 1   
    43   23   24 ar  
    44   24   25 ar  
    45   24   42 1   
    46   25   43 1   
@<TRIPOS>SUBSTRUCTURE
     1 LM4         1 TEMP              0 ****  ****    0 ROOT
