@<TRIPOS>MOLECULE
LM4
   43    46     1     0     0
SMALL
bcc


@<TRIPOS>ATOM
      1 C3          0.0360   -0.1080   -0.0090 c3        1 LM4      0.189100
      2 N2          1.4510    0.1600    0.0120 nh        1 LM4     -0.749300
      3 C1          2.1530   -0.1430    1.2350 c3        1 LM4      0.189100
      4 C4          2.1370    0.0530   -1.2050 ca        1 LM4      0.583200
      5 N9          3.5320   -0.1190   -1.2100 nb        1 LM4     -0.350000
      6 N8          4.1870   -0.1490   -2.2810 nb        1 LM4     -0.267000
      7 C7          3.6040   -0.0230   -3.5260 cp        1 LM4      0.348800
      8 C6          2.2040    0.1690   -3.6320 cq        1 LM4     -0.065300
      9 C10         1.5120    0.3640   -4.9050 cq        1 LM4     -0.010000
     10 C21         1.8870    1.3870   -5.7870 ca        1 LM4     -0.227300
     11 C20         1.1550    1.5490   -6.9770 ca        1 LM4      0.392200
     12 N19         0.1100    0.7740   -7.3230 nb        1 LM4     -0.658000
     13 C18        -0.2400   -0.2060   -6.4660 ca        1 LM4      0.392200
     14 C17         0.4210   -0.4480   -5.2500 ca        1 LM4     -0.227300
     15 C5          1.4560    0.1920   -2.4480 ca        1 LM4     -0.263300
     16 C11         4.4830   -0.1140   -4.7000 cp        1 LM4     -0.134500
     17 C16         5.6190    0.6630   -4.7920 ca        1 LM4     -0.084000
     18 C15         6.4740    0.5600   -5.9230 ca        1 LM4     -0.043000
     19 C25         7.6440    1.3580   -6.0430 ca        1 LM4     -0.113000
     20 C24         8.4570    1.2410   -7.1440 ca        1 LM4     -0.130000
     21 C23         8.1390    0.3230   -8.1730 ca        1 LM4     -0.124000
     22 C22         7.0160   -0.4620   -8.0820 ca        1 LM4     -0.120000
     23 C14         6.1570   -0.3610   -6.9530 ca        1 LM4     -0.031000
     24 C13         4.9890   -1.1630   -6.8270 ca        1 LM4     -0.120000
     25 C12         4.1730   -1.0440   -5.7310 ca        1 LM4     -0.110000
     26 H1         -0.4900    0.7390   -0.5270 h1        1 LM4      0.045867
     27 H2         -0.3550   -0.1780    1.0400 h1        1 LM4      0.045867
     28 H3         -0.2080   -1.0650   -0.5470 h1        1 LM4      0.045867
     29 H4          2.4420   -1.2270    1.2990 h1        1 LM4      0.045867
     30 H5          3.0830    0.4820    1.3000 h1        1 LM4      0.045867
     31 H6          1.4930    0.1100    2.1060 h1        1 LM4      0.045867
     32 H7          2.7380    2.0430   -5.5590 ha        1 LM4      0.151000
     33 H8          1.4230    2.3440   -7.6960 h4        1 LM4      0.025600
     34 H9         -1.0990   -0.8280   -6.7730 h4        1 LM4      0.025600
     35 H10         0.0920   -1.2590   -4.5870 ha        1 LM4      0.151000
     36 H11         0.3670    0.3330   -2.4970 ha        1 LM4      0.154000
     37 H12         5.8850    1.3700   -3.9910 ha        1 LM4      0.145000
     38 H13         7.8840    2.0670   -5.2360 ha        1 LM4      0.135000
     39 H14         9.3640    1.8570   -7.2390 ha        1 LM4      0.133000
     40 H15         8.8060    0.2470   -9.0450 ha        1 LM4      0.132000
     41 H16         6.7610   -1.1790   -8.8760 ha        1 LM4      0.133000
     42 H17         4.7540   -1.8830   -7.6260 ha        1 LM4      0.135000
     43 H18         3.2700   -1.6650   -5.6310 ha        1 LM4      0.137000
@<TRIPOS>BOND
     1    1    2 1   
     2    1   26 1   
     3    1   27 1   
     4    1   28 1   
     5    2    3 1   
     6    2    4 1   
     7    3   29 1   
     8    3   30 1   
     9    3   31 1   
    10    4    5 ar  
    11    4   15 ar  
    12    5    6 ar  
    13    6    7 ar  
    14    7    8 2   
    15    7   16 1   
    16    8    9 1   
    17    8   15 1   
    18    9   10 1   
    19    9   14 2   
    20   10   11 ar  
    21   10   32 1   
    22   11   12 ar  
    23   11   33 1   
    24   12   13 ar  
    25   13   14 ar  
    26   13   34 1   
    27   14   35 1   
    28   15   36 1   
    29   16   17 ar  
    30   16   25 ar  
    31   17   18 ar  
    32   17   37 1   
    33   18   19 ar  
    34   18   23 ar  
    35   19   20 ar  
    36   19   38 1   
    37   20   21 ar  
    38   20   39 1   
    39   21   22 ar  
    40   21   40 1   
    41   22   23 ar  
    42   22   41 1   
    43   23   24 ar  
    44   24   25 ar  
    45   24   42 1   
    46   25   43 1   
@<TRIPOS>SUBSTRUCTURE
     1 LM4         1 TEMP              0 ****  ****    0 ROOT
