@<TRIPOS>MOLECULE
LM4
   43    46     1     0     0
SMALL
bcc


@<TRIPOS>ATOM
      1 C3          5.6510   -0.3550   -0.0380 c3        1 LM4      0.189100
      2 N2          4.7200   -1.4380   -0.2220 nh        1 LM4     -0.749300
      3 C1          5.1910   -2.7630    0.0990 c3        1 LM4      0.189100
      4 C4          3.3610   -1.1450   -0.0510 ca        1 LM4      0.583200
      5 N9          2.4470   -2.1820    0.2040 nb        1 LM4     -0.350000
      6 N8          1.2140   -1.9640    0.2950 nb        1 LM4     -0.267000
      7 C7          0.6570   -0.7080    0.1590 cp        1 LM4      0.348800
      8 C6          1.4900    0.4050   -0.1140 cq        1 LM4     -0.065300
      9 C10         0.9810    1.7590   -0.3250 cq        1 LM4     -0.010000
     10 C21         0.0120    2.0290   -1.3020 ca        1 LM4     -0.227300
     11 C20        -0.4070    3.3590   -1.4840 ca        1 LM4      0.392200
     12 N19         0.0690    4.3970   -0.7700 nb        1 LM4     -0.658000
     13 C18         0.9990    4.1240    0.1660 ca        1 LM4      0.392200
     14 C17         1.4890    2.8320    0.4240 ca        1 LM4     -0.227300
     15 C5          2.8700    0.1830   -0.2040 ca        1 LM4     -0.263300
     16 C11        -0.7980   -0.5880    0.3260 cp        1 LM4     -0.134500
     17 C16        -1.6580   -1.4010   -0.3820 ca        1 LM4     -0.084000
     18 C15        -3.0640   -1.2910   -0.2060 ca        1 LM4     -0.043000
     19 C25        -3.9690   -2.1120   -0.9330 ca        1 LM4     -0.113000
     20 C24        -5.3240   -1.9900   -0.7460 ca        1 LM4     -0.130000
     21 C23        -5.8370   -1.0440    0.1740 ca        1 LM4     -0.124000
     22 C22        -4.9850   -0.2400    0.8910 ca        1 LM4     -0.120000
     23 C14        -3.5780   -0.3450    0.7170 ca        1 LM4     -0.031000
     24 C13        -2.6700    0.4700    1.4470 ca        1 LM4     -0.120000
     25 C12        -1.3170    0.3530    1.2580 ca        1 LM4     -0.110000
     26 H1          6.7000   -0.7530   -0.0130 h1        1 LM4      0.045867
     27 H2          5.5640    0.3550   -0.9050 h1        1 LM4      0.045867
     28 H3          5.4610    0.2140    0.9120 h1        1 LM4      0.045867
     29 H4          5.1070   -2.9890    1.1960 h1        1 LM4      0.045867
     30 H5          4.5930   -3.5230   -0.4720 h1        1 LM4      0.045867
     31 H6          6.2660   -2.8530   -0.2110 h1        1 LM4      0.045867
     32 H7         -0.4170    1.2190   -1.9080 ha        1 LM4      0.151000
     33 H8         -1.1690    3.6080   -2.2450 h4        1 LM4      0.025600
     34 H9          1.3720    4.9920    0.7400 h4        1 LM4      0.025600
     35 H10         2.2500    2.6670    1.1980 ha        1 LM4      0.151000
     36 H11         3.5430    1.0270   -0.4100 ha        1 LM4      0.154000
     37 H12        -1.2710   -2.1510   -1.0890 ha        1 LM4      0.145000
     38 H13        -3.5610   -2.8460   -1.6440 ha        1 LM4      0.135000
     39 H14        -6.0270   -2.6240   -1.3060 ha        1 LM4      0.133000
     40 H15        -6.9260   -0.9650    0.3070 ha        1 LM4      0.132000
     41 H16        -5.3740    0.4970    1.6090 ha        1 LM4      0.133000
     42 H17        -3.0750    1.1950    2.1690 ha        1 LM4      0.135000
     43 H18        -0.6130    0.9830    1.8240 ha        1 LM4      0.137000
@<TRIPOS>BOND
     1    1    2 1   
     2    1   26 1   
     3    1   27 1   
     4    1   28 1   
     5    2    3 1   
     6    2    4 1   
     7    3   29 1   
     8    3   30 1   
     9    3   31 1   
    10    4    5 ar  
    11    4   15 ar  
    12    5    6 ar  
    13    6    7 ar  
    14    7    8 2   
    15    7   16 1   
    16    8    9 1   
    17    8   15 1   
    18    9   10 1   
    19    9   14 2   
    20   10   11 ar  
    21   10   32 1   
    22   11   12 ar  
    23   11   33 1   
    24   12   13 ar  
    25   13   14 ar  
    26   13   34 1   
    27   14   35 1   
    28   15   36 1   
    29   16   17 ar  
    30   16   25 ar  
    31   17   18 ar  
    32   17   37 1   
    33   18   19 ar  
    34   18   23 ar  
    35   19   20 ar  
    36   19   38 1   
    37   20   21 ar  
    38   20   39 1   
    39   21   22 ar  
    40   21   40 1   
    41   22   23 ar  
    42   22   41 1   
    43   23   24 ar  
    44   24   25 ar  
    45   24   42 1   
    46   25   43 1   
@<TRIPOS>SUBSTRUCTURE
     1 LM4         1 TEMP              0 ****  ****    0 ROOT
