@<TRIPOS>MOLECULE
LM4
   44    47     1     0     0
SMALL
bcc


@<TRIPOS>ATOM
      1 C3          1.2320   -1.3770    0.5510 c3        1 LM4      0.091100
      2 N2          1.1790   -0.0270   -0.0790 n4        1 LM4     -0.641100
      3 C1          1.6740    1.0180    0.8610 c3        1 LM4      0.091100
      4 C4          1.9370   -0.0030   -1.3480 ca        1 LM4      0.327200
      5 N9          3.3030   -0.2640   -1.3000 nb        1 LM4     -0.258000
      6 N8          3.9860   -0.2790   -2.3500 nb        1 LM4     -0.276000
      7 C7          3.4460   -0.0350   -3.6120 cp        1 LM4      0.502800
      8 C6          2.0660    0.2850   -3.7340 cq        1 LM4     -0.087300
      9 C10         1.4200    0.6450   -4.9950 cq        1 LM4     -0.046000
     10 C21         1.7930    1.8050   -5.6870 ca        1 LM4     -0.227300
     11 C20         1.1040    2.1250   -6.8730 ca        1 LM4      0.408200
     12 N19         0.1070    1.3760   -7.3800 nb        1 LM4     -0.631000
     13 C18        -0.2380    0.2630   -6.7050 ca        1 LM4      0.408200
     14 C17         0.3810   -0.1440   -5.5100 ca        1 LM4     -0.227300
     15 C5          1.2860    0.2840   -2.5630 ca        1 LM4     -0.148300
     16 C11         4.3460   -0.1400   -4.7590 cp        1 LM4     -0.207500
     17 C16         5.6370    0.3560   -4.6920 ca        1 LM4     -0.034000
     18 C15         6.5100    0.2430   -5.8050 ca        1 LM4     -0.058000
     19 C25         7.8340    0.7620   -5.7630 ca        1 LM4     -0.109000
     20 C24         8.6640    0.6340   -6.8490 ca        1 LM4     -0.116000
     21 C23         8.2120   -0.0150   -8.0240 ca        1 LM4     -0.096000
     22 C22         6.9380   -0.5260   -8.0910 ca        1 LM4     -0.125000
     23 C14         6.0580   -0.4080   -6.9820 ca        1 LM4     -0.009000
     24 C13         4.7350   -0.9300   -7.0180 ca        1 LM4     -0.104000
     25 C12         3.8990   -0.7980   -5.9400 ca        1 LM4     -0.111000
     26 H1          0.8900   -2.1450   -0.1920 hx        1 LM4      0.108700
     27 H2          0.5570   -1.3790    1.4480 hx        1 LM4      0.108700
     28 H3          2.2850   -1.6080    0.8680 hx        1 LM4      0.108700
     29 H4          1.0040    1.0360    1.7620 hx        1 LM4      0.108700
     30 H5          2.7260    0.7790    1.1760 hx        1 LM4      0.108700
     31 H6          1.6570    2.0160    0.3470 hx        1 LM4      0.108700
     32 H7          2.6050    2.4500   -5.3270 ha        1 LM4      0.150500
     33 H8          1.3690    3.0320   -7.4500 h4        1 LM4      0.042600
     34 H9         -1.0570   -0.3350   -7.1490 h4        1 LM4      0.042600
     35 H10         0.0620   -1.0650   -5.0060 ha        1 LM4      0.150500
     36 H11         0.2100    0.5140   -2.6240 ha        1 LM4      0.172000
     37 H12         6.0120    0.8540   -3.7830 ha        1 LM4      0.148000
     38 H13         8.1780    1.2630   -4.8450 ha        1 LM4      0.141000
     39 H14         9.6900    1.0330   -6.8210 ha        1 LM4      0.148000
     40 H15         8.8970   -0.1040   -8.8820 ha        1 LM4      0.149000
     41 H16         6.5800   -1.0330   -9.0010 ha        1 LM4      0.146000
     42 H17         4.3950   -1.4460   -7.9300 ha        1 LM4      0.150000
     43 H18         2.8770   -1.2060   -5.9710 ha        1 LM4      0.139000
     44 H21         0.1990    0.1840   -0.3140 hn        1 LM4      0.449800
@<TRIPOS>BOND
     1    1    2 1   
     2    1   26 1   
     3    1   27 1   
     4    1   28 1   
     5    2    3 1   
     6    2    4 1   
     7    2   44 1   
     8    3   29 1   
     9    3   30 1   
    10    3   31 1   
    11    4    5 ar  
    12    4   15 ar  
    13    5    6 ar  
    14    6    7 ar  
    15    7    8 2   
    16    7   16 1   
    17    8    9 1   
    18    8   15 1   
    19    9   10 1   
    20    9   14 2   
    21   10   11 ar  
    22   10   32 1   
    23   11   12 ar  
    24   11   33 1   
    25   12   13 ar  
    26   13   14 ar  
    27   13   34 1   
    28   14   35 1   
    29   15   36 1   
    30   16   17 ar  
    31   16   25 ar  
    32   17   18 ar  
    33   17   37 1   
    34   18   19 ar  
    35   18   23 ar  
    36   19   20 ar  
    37   19   38 1   
    38   20   21 ar  
    39   20   39 1   
    40   21   22 ar  
    41   21   40 1   
    42   22   23 ar  
    43   22   41 1   
    44   23   24 ar  
    45   24   25 ar  
    46   24   42 1   
    47   25   43 1   
@<TRIPOS>SUBSTRUCTURE
     1 LM4         1 TEMP              0 ****  ****    0 ROOT
