@<TRIPOS>MOLECULE
LM5
   36    37     1     0     0
SMALL
bcc


@<TRIPOS>ATOM
      1 CAN        -3.8490   -0.9980   -0.7160 ca        1 LM5     -0.116500
      2 CAO        -4.9230   -0.3850   -1.3610 ca        1 LM5     -0.131000
      3 CAP        -5.3350    0.8910   -0.9780 ca        1 LM5     -0.124000
      4 CAQ        -4.6720    1.5560    0.0540 ca        1 LM5     -0.131000
      5 CAR        -3.6010    0.9450    0.7030 ca        1 LM5     -0.116500
      6 CAM        -3.1870   -0.3360    0.3220 ca        1 LM5     -0.118300
      7 CAL        -2.0470   -1.0020    1.0400 c3        1 LM5      0.130300
      8 N1         -0.7710   -0.3770    0.8180 n         1 LM5     -0.554900
      9 C           0.2470   -0.9970    0.1290 c         1 LM5      0.642100
     10 O           0.2100   -2.2070   -0.1760 o         1 LM5     -0.616100
     11 CA          1.4590   -0.1160   -0.2150 c3        1 LM5      0.055500
     12 N           2.5640   -0.8070   -0.8720 n3        1 LM5     -0.801200
     13 CD1         3.7570   -0.7130   -0.0150 c3        1 LM5      0.128500
     14 CAF         5.0450   -0.6050   -0.8160 c3        1 LM5     -0.084100
     15 CG          3.5410    0.5150    0.9130 c3        1 LM5      0.105100
     16 OD2         4.0420    1.7240    0.3860 oh        1 LM5     -0.591800
     17 CB          2.0020    0.5850    1.0680 c3        1 LM5      0.096100
     18 OG          1.4730    1.8810    1.1900 oh        1 LM5     -0.593800
     19 H1         -3.5230   -2.0030   -1.0240 ha        1 LM5      0.135500
     20 H2         -5.4440   -0.9100   -2.1760 ha        1 LM5      0.133500
     21 H3         -6.1810    1.3730   -1.4890 ha        1 LM5      0.132000
     22 H4         -4.9960    2.5620    0.3570 ha        1 LM5      0.133500
     23 H5         -3.0820    1.4670    1.5210 ha        1 LM5      0.135500
     24 H6         -2.2600   -0.9670    2.1500 h1        1 LM5      0.069700
     25 H7         -1.9800   -2.0870    0.7320 h1        1 LM5      0.069700
     26 H9          1.0960    0.6720   -0.9420 h1        1 LM5      0.089700
     27 H10         2.3330   -1.7650   -1.0710 hn        1 LM5      0.395800
     28 H12         3.8450   -1.6190    0.6570 h1        1 LM5      0.042700
     29 H13         4.9880    0.2020   -1.5860 hc        1 LM5      0.046033
     30 H14         5.8830   -0.3710   -0.1170 hc        1 LM5      0.046033
     31 H15         5.2580   -1.5690   -1.3350 hc        1 LM5      0.046033
     32 H16         4.0590    0.3920    1.8990 h1        1 LM5      0.095700
     33 H17         3.8570    1.7320   -0.5630 ho        1 LM5      0.415000
     34 H18         1.6800    0.0430    1.9980 h1        1 LM5      0.090700
     35 H19         2.0630    2.4970    0.7330 ho        1 LM5      0.422000
     36 H20        -0.7160    0.6080    0.9530 hn        1 LM5      0.323500
@<TRIPOS>BOND
     1    1    2 ar  
     2    1    6 ar  
     3    1   19 1   
     4    2    3 ar  
     5    2   20 1   
     6    3    4 ar  
     7    3   21 1   
     8    4    5 ar  
     9    4   22 1   
    10    5    6 ar  
    11    5   23 1   
    12    6    7 1   
    13    7    8 1   
    14    7   24 1   
    15    7   25 1   
    16    8    9 1   
    17    8   36 1   
    18    9   10 2   
    19    9   11 1   
    20   11   12 1   
    21   11   17 1   
    22   11   26 1   
    23   12   13 1   
    24   12   27 1   
    25   13   14 1   
    26   13   15 1   
    27   13   28 1   
    28   14   29 1   
    29   14   30 1   
    30   14   31 1   
    31   15   16 1   
    32   15   17 1   
    33   15   32 1   
    34   16   33 1   
    35   17   18 1   
    36   17   34 1   
    37   18   35 1   
@<TRIPOS>SUBSTRUCTURE
     1 LM5         1 TEMP              0 ****  ****    0 ROOT
