@<TRIPOS>MOLECULE
LM5
   37    38     1     0     0
SMALL
bcc


@<TRIPOS>ATOM
      1 CAN         0.0250    0.4120    0.1680 ca        1 LM5     -0.100000
      2 CAO         1.4100    0.5160    0.2890 ca        1 LM5     -0.119500
      3 CAP         2.0660   -0.0820    1.3650 ca        1 LM5     -0.079000
      4 CAQ         1.3370   -0.7850    2.3280 ca        1 LM5     -0.119500
      5 CAR        -0.0480   -0.8890    2.2150 ca        1 LM5     -0.100000
      6 CAM        -0.7060   -0.2900    1.1330 ca        1 LM5     -0.190300
      7 CAL        -2.1900   -0.3670    1.0340 c3        1 LM5      0.179100
      8 N1         -2.6270   -1.7110    0.5250 ny        1 LM5     -0.692800
      9 C          -4.1280   -1.7710    0.3050 c         1 LM5      0.539100
     10 O          -4.5900   -0.9510   -0.4670 o         1 LM5     -0.387100
     11 CA         -4.8150   -2.9020    1.0650 c3        1 LM5      0.084500
     12 N          -6.2600   -2.8150    0.9590 n7        1 LM5     -0.798200
     13 CD1        -6.8580   -3.0450    2.2830 c3        1 LM5      0.144500
     14 CAF        -7.9580   -4.0910    2.3100 c3        1 LM5     -0.121100
     15 CG         -5.7100   -3.3920    3.2800 c3        1 LM5      0.098100
     16 OD2        -5.5100   -4.7850    3.4150 oh        1 LM5     -0.612800
     17 CB         -4.4450   -2.8400    2.5860 c3        1 LM5      0.137100
     18 OG         -3.2460   -3.5310    2.8120 oh        1 LM5     -0.620800
     19 H1         -0.4890    0.8970   -0.6770 ha        1 LM5      0.141500
     20 H2          1.9850    1.0760   -0.4660 ha        1 LM5      0.159000
     21 H3          3.1610    0.0040    1.4600 ha        1 LM5      0.160000
     22 H4          1.8550   -1.2510    3.1810 ha        1 LM5      0.159000
     23 H5         -0.6220   -1.4290    2.9830 ha        1 LM5      0.141500
     24 H6         -2.6660   -0.2230    2.0470 hx        1 LM5      0.109200
     25 H7         -2.5950    0.4140    0.3260 hx        1 LM5      0.109200
     26 H9         -4.3990   -3.8610    0.6260 h1        1 LM5      0.090700
     27 H10        -6.6220   -3.4330    0.2590 hn        1 LM5      0.401800
     28 H12        -7.2960   -2.0490    2.5940 h1        1 LM5      0.090700
     29 H13        -8.3680   -4.1620    3.3460 hc        1 LM5      0.062367
     30 H14        -7.5720   -5.0950    2.0090 hc        1 LM5      0.062367
     31 H15        -8.7890   -3.8040    1.6210 hc        1 LM5      0.062367
     32 H16        -5.8800   -2.9120    4.2770 h1        1 LM5      0.085700
     33 H17        -6.1980   -5.1230    4.0030 ho        1 LM5      0.443000
     34 H18        -4.2600   -1.7810    2.9170 h1        1 LM5      0.085700
     35 H19        -3.4430   -4.4510    3.0500 ho        1 LM5      0.465000
     36 H20        -2.1500   -1.8920   -0.3650 hn        1 LM5      0.464800
     37 H121       -2.3360   -2.4350    1.1990 hn        1 LM5      0.464800
@<TRIPOS>BOND
     1    1    2 ar  
     2    1    6 ar  
     3    1   19 1   
     4    2    3 ar  
     5    2   20 1   
     6    3    4 ar  
     7    3   21 1   
     8    4    5 ar  
     9    4   22 1   
    10    5    6 ar  
    11    5   23 1   
    12    6    7 1   
    13    7    8 1   
    14    7   24 1   
    15    7   25 1   
    16    8    9 1   
    17    8   36 1   
    18    8   37 1   
    19    9   10 2   
    20    9   11 1   
    21   11   12 1   
    22   11   17 1   
    23   11   26 1   
    24   12   13 1   
    25   12   27 1   
    26   13   14 1   
    27   13   15 1   
    28   13   28 1   
    29   14   29 1   
    30   14   30 1   
    31   14   31 1   
    32   15   16 1   
    33   15   17 1   
    34   15   32 1   
    35   16   33 1   
    36   17   18 1   
    37   17   34 1   
    38   18   35 1   
@<TRIPOS>SUBSTRUCTURE
     1 LM5         1 TEMP              0 ****  ****    0 ROOT
