@<TRIPOS>MOLECULE
LM5
   36    34     1     0     0
SMALL
bcc


@<TRIPOS>ATOM
      1 CAN         3.4660    1.1090   -1.4950 c1        1 LM5     -0.066500
      2 CAO         4.8540    1.0850   -1.7080 c1        1 LM5     -0.067000
      3 CAP         5.7210    1.5710   -0.7240 c1        1 LM5     -0.067000
      4 CAQ         5.2080    2.0780    0.4640 c1        1 LM5     -0.067000
      5 CAR         3.8310    2.1030    0.6760 c1        1 LM5     -0.067000
      6 CAM         2.9580    1.6150   -0.3130 c1        1 LM5     -0.078100
      7 CAL         1.4170    1.7190   -0.1150 c3        1 LM5      0.097100
      8 N1          0.9120    0.4670    0.3290 n         1 LM5     -0.550900
      9 C          -0.5080    0.2630    0.4410 c         1 LM5      0.668100
     10 O          -1.2480    1.2100    0.7390 o         1 LM5     -0.628100
     11 CA         -1.0650   -1.0600    0.2590 c3        1 LM5      0.088500
     12 N          -1.8640   -1.0670   -0.8110 n3        1 LM5     -0.801200
     13 CD1        -3.3240   -0.6510   -0.3150 c3        1 LM5      0.125500
     14 CAF        -4.3780   -1.1520   -1.3190 c3        1 LM5     -0.100100
     15 CG         -3.5070   -1.2150    0.8350 c3        1 LM5      0.085100
     16 OD2        -4.1570   -2.5590    0.6600 oh        1 LM5     -0.590800
     17 CB         -2.1060   -1.3720    1.4420 c3        1 LM5      0.088100
     18 OG         -1.9350   -2.6090    1.8900 oh        1 LM5     -0.605800
     19 H1          2.8350    0.7550   -2.2110 ha        1 LM5      0.072500
     20 H2          5.2170    0.7240   -2.5500 ha        1 LM5      0.077000
     21 H3          6.6980    1.5540   -0.8730 ha        1 LM5      0.077000
     22 H4          5.8290    2.4280    1.1700 ha        1 LM5      0.077000
     23 H5          3.4770    2.4560    1.4990 ha        1 LM5      0.077000
     24 H6          1.2140    2.4210    0.5660 h1        1 LM5      0.067700
     25 H7          0.9800    1.9660   -0.9930 h1        1 LM5      0.067700
     26 H9         -0.2850   -1.5850    0.2200 h1        1 LM5      0.097700
     27 H10        -1.8920   -1.9540   -1.1900 hn        1 LM5      0.362800
     28 H12        -3.3820    0.3260   -0.2230 h1        1 LM5      0.074700
     29 H13        -5.2820   -1.0590   -0.9200 hc        1 LM5      0.047367
     30 H14        -4.3280   -0.6250   -2.1340 hc        1 LM5      0.047367
     31 H15        -4.2040   -2.1140   -1.5340 hc        1 LM5      0.047367
     32 H16        -4.0310   -0.6740    1.3750 h1        1 LM5      0.092700
     33 H17        -4.8190   -2.6580    1.2800 ho        1 LM5      0.411000
     34 H18        -1.9810   -0.7240    2.1840 h1        1 LM5      0.097700
     35 H19        -1.8140   -2.5900    2.7770 ho        1 LM5      0.418000
     36 H20         1.4930   -0.1820    0.6200 hn        1 LM5      0.325500
@<TRIPOS>BOND
     1    1    6 3   
     2    1   19 1   
     3    2    3 3   
     4    2   20 1   
     5    3   21 1   
     6    4    5 3   
     7    4   22 1   
     8    5   23 1   
     9    6    7 1   
    10    7    8 1   
    11    7   24 1   
    12    7   25 1   
    13    8    9 1   
    14    8   36 1   
    15    9   10 2   
    16    9   11 1   
    17   11   12 1   
    18   11   17 1   
    19   11   26 1   
    20   12   13 1   
    21   12   27 1   
    22   13   14 1   
    23   13   15 1   
    24   13   28 1   
    25   14   29 1   
    26   14   30 1   
    27   14   31 1   
    28   15   16 1   
    29   15   17 1   
    30   15   32 1   
    31   16   33 1   
    32   17   18 1   
    33   17   34 1   
    34   18   35 1   
@<TRIPOS>SUBSTRUCTURE
     1 LM5         1 TEMP              0 ****  ****    0 ROOT
