@<TRIPOS>MOLECULE
LM5
   37    38     1     0     0
SMALL
bcc


@<TRIPOS>ATOM
      1 CAN         0.0400    0.4580    0.2810 ca        1 LM5     -0.100000
      2 CAO         1.4220    0.5670    0.4320 ca        1 LM5     -0.119500
      3 CAP         2.0600   -0.0480    1.5100 ca        1 LM5     -0.079000
      4 CAQ         1.3150   -0.7710    2.4450 ca        1 LM5     -0.119500
      5 CAR        -0.0660   -0.8810    2.3020 ca        1 LM5     -0.100000
      6 CAM        -0.7060   -0.2660    1.2180 ca        1 LM5     -0.190300
      7 CAL        -2.1870   -0.3490    1.0880 c3        1 LM5      0.179100
      8 N1         -2.6050   -1.6850    0.5450 n4        1 LM5     -0.692800
      9 C          -4.1010   -1.7490    0.2930 c         1 LM5      0.539100
     10 O          -4.5530   -0.9170   -0.4720 o         1 LM5     -0.387100
     11 CA         -4.7970   -2.8980    1.0180 c3        1 LM5      0.084500
     12 N          -6.2400   -2.8180    0.8830 n3        1 LM5     -0.798200
     13 CD1        -6.8630   -3.0760    2.1900 c3        1 LM5      0.144500
     14 CAF        -7.9570   -4.1290    2.1750 c3        1 LM5     -0.121100
     15 CG         -5.7340   -3.4360    3.2040 c3        1 LM5      0.098100
     16 OD2        -5.5280   -4.8290    3.3170 oh        1 LM5     -0.612800
     17 CB         -4.4580   -2.8630    2.5470 c3        1 LM5      0.137100
     18 OG         -3.2600   -3.5510    2.7840 oh        1 LM5     -0.620800
     19 H1         -0.4590    0.9560   -0.5650 ha        1 LM5      0.141500
     20 H2          2.0090    1.1440   -0.3010 ha        1 LM5      0.159000
     21 H3          3.1520    0.0420    1.6290 ha        1 LM5      0.160000
     22 H4          1.8190   -1.2510    3.2990 ha        1 LM5      0.159000
     23 H5         -0.6530   -1.4380    3.0490 ha        1 LM5      0.141500
     24 H6         -2.5820    0.4430    0.3860 hx        1 LM5      0.109200
     25 H7         -2.6840   -0.2270    2.0930 hx        1 LM5      0.109200
     26 H9         -4.3670   -3.8470    0.5690 h1        1 LM5      0.090700
     27 H10        -6.5840   -3.4250    0.1640 hn        1 LM5      0.401800
     28 H12        -7.3140   -2.0890    2.5100 h1        1 LM5      0.090700
     29 H13        -8.7760   -3.8340    1.4740 hc        1 LM5      0.062367
     30 H14        -7.5590   -5.1250    1.8620 hc        1 LM5      0.062367
     31 H15        -8.3880   -4.2220    3.2010 hc        1 LM5      0.062367
     32 H16        -5.9270   -2.9750    4.2060 h1        1 LM5      0.085700
     33 H17        -6.2260   -5.1830    3.8840 ho        1 LM5      0.443000
     34 H18        -4.2870   -1.8090    2.9010 h1        1 LM5      0.085700
     35 H19        -3.4570   -4.4770    3.0010 ho        1 LM5      0.465000
     36 H20        -2.1090   -1.8460   -0.3390 hn        1 LM5      0.464800
     37 H121       -2.3240   -2.4210    1.2110 hn        1 LM5      0.464800
@<TRIPOS>BOND
     1    1    2 ar  
     2    1    6 ar  
     3    1   19 1   
     4    2    3 ar  
     5    2   20 1   
     6    3    4 ar  
     7    3   21 1   
     8    4    5 ar  
     9    4   22 1   
    10    5    6 ar  
    11    5   23 1   
    12    6    7 1   
    13    7    8 1   
    14    7   24 1   
    15    7   25 1   
    16    8    9 1   
    17    8   36 1   
    18    8   37 1   
    19    9   10 2   
    20    9   11 1   
    21   11   12 1   
    22   11   17 1   
    23   11   26 1   
    24   12   13 1   
    25   12   27 1   
    26   13   14 1   
    27   13   15 1   
    28   13   28 1   
    29   14   29 1   
    30   14   30 1   
    31   14   31 1   
    32   15   16 1   
    33   15   17 1   
    34   15   32 1   
    35   16   33 1   
    36   17   18 1   
    37   17   34 1   
    38   18   35 1   
@<TRIPOS>SUBSTRUCTURE
     1 LM5         1 TEMP              0 ****  ****    0 ROOT
