@<TRIPOS>MOLECULE
LM5
   37    38     1     0     0
SMALL
bcc


@<TRIPOS>ATOM
      1 CAN         0.1350    0.3040    0.0880 ca        1 LM5     -0.098500
      2 CAO         1.5290    0.2760    0.1080 ca        1 LM5     -0.119500
      3 CAP         2.2030   -0.2250    1.2230 ca        1 LM5     -0.077000
      4 CAQ         1.4830   -0.6970    2.3230 ca        1 LM5     -0.119500
      5 CAR         0.0900   -0.6690    2.3100 ca        1 LM5     -0.098500
      6 CAM        -0.5870   -0.1690    1.1900 ca        1 LM5     -0.192300
      7 CAL        -2.0730   -0.0990    1.1920 c3        1 LM5      0.177100
      8 N1         -2.6690   -1.4310    0.8330 n4        1 LM5     -0.683800
      9 C          -4.1700   -1.3890    0.6850 c         1 LM5      0.528100
     10 O          -4.6710   -0.3720    0.2310 o         1 LM5     -0.413100
     11 CA         -4.8640   -2.6640    1.1290 c3        1 LM5      0.070500
     12 N          -6.2870   -2.7430    0.8460 n3        1 LM5     -0.785200
     13 CD1        -6.9840   -3.2170    2.0570 c3        1 LM5      0.138500
     14 CAF        -7.9350   -4.3630    1.7510 c3        1 LM5     -0.095100
     15 CG         -5.9050   -3.6260    3.1080 c3        1 LM5      0.111100
     16 OD2        -5.5730   -4.9970    3.0680 oh        1 LM5     -0.606800
     17 CB         -4.6370   -2.8630    2.6670 c3        1 LM5      0.125100
     18 OG         -3.4030   -3.4920    2.8820 oh        1 LM5     -0.621800
     19 H1         -0.3910    0.7150   -0.7880 ha        1 LM5      0.141000
     20 H2          2.0970    0.6550   -0.7560 ha        1 LM5      0.159500
     21 H3          3.3050   -0.2440    1.2380 ha        1 LM5      0.161000
     22 H4          2.0160   -1.0860    3.2050 ha        1 LM5      0.159500
     23 H5         -0.4730   -1.0260    3.1860 ha        1 LM5      0.141000
     24 H6         -2.4640    0.1770    2.2130 hx        1 LM5      0.111700
     25 H7         -2.4490    0.6590    0.4440 hx        1 LM5      0.111700
     26 H9         -4.3810   -3.5290    0.5750 h1        1 LM5      0.120700
     27 H10        -6.6700   -1.8800    0.5090 hn        1 LM5      0.396800
     28 H12        -7.5880   -2.3730    2.5090 h1        1 LM5      0.057700
     29 H13        -8.7200   -4.0350    1.0270 hc        1 LM5      0.060700
     30 H14        -8.4320   -4.6820    2.6990 hc        1 LM5      0.060700
     31 H15        -7.3920   -5.2340    1.3100 hc        1 LM5      0.060700
     32 H16        -6.2260   -3.3300    4.1420 h1        1 LM5      0.081700
     33 H17        -6.3390   -5.4950    3.3850 ho        1 LM5      0.445000
     34 H18        -4.5770   -1.8760    3.2030 h1        1 LM5      0.082700
     35 H19        -3.5340   -4.4530    2.9420 ho        1 LM5      0.468000
     36 H20        -2.4170   -2.1230    1.5580 hn        1 LM5      0.471300
     37 H121       -2.2620   -1.7450   -0.0570 hn        1 LM5      0.471300
@<TRIPOS>BOND
     1    1    2 ar  
     2    1    6 ar  
     3    1   19 1   
     4    2    3 ar  
     5    2   20 1   
     6    3    4 ar  
     7    3   21 1   
     8    4    5 ar  
     9    4   22 1   
    10    5    6 ar  
    11    5   23 1   
    12    6    7 1   
    13    7    8 1   
    14    7   24 1   
    15    7   25 1   
    16    8    9 1   
    17    8   36 1   
    18    8   37 1   
    19    9   10 2   
    20    9   11 1   
    21   11   12 1   
    22   11   17 1   
    23   11   26 1   
    24   12   13 1   
    25   12   27 1   
    26   13   14 1   
    27   13   15 1   
    28   13   28 1   
    29   14   29 1   
    30   14   30 1   
    31   14   31 1   
    32   15   16 1   
    33   15   17 1   
    34   15   32 1   
    35   16   33 1   
    36   17   18 1   
    37   17   34 1   
    38   18   35 1   
@<TRIPOS>SUBSTRUCTURE
     1 LM5         1 TEMP              0 ****  ****    0 ROOT
