@<TRIPOS>MOLECULE
LM8
   56    55     1     0     0
SMALL
bcc


@<TRIPOS>ATOM
      1 C01         0.4000    0.6140    0.9790 c2        1 LM8     -0.214200
      2 C02         1.8810    0.6210    1.0680 c3        1 LM8     -0.016000
      3 C03         2.3620    0.6200    2.4710 c2        1 LM8     -0.159200
      4 C04         3.3040   -0.1910    2.9640 c2        1 LM8     -0.178200
      5 C05         3.9940   -1.2430    2.1770 c3        1 LM8     -0.021000
      6 C06         4.9730   -2.0310    2.9650 c2        1 LM8     -0.161200
      7 C07         5.5960   -3.1300    2.5290 c2        1 LM8     -0.168200
      8 C08         5.4210   -3.7540    1.1840 c3        1 LM8     -0.004300
      9 C09         4.9330   -5.1570    1.3330 c2        1 LM8     -0.186200
     10 C10         3.7200   -5.5980    0.9880 c2        1 LM8     -0.147200
     11 C11        -0.2920    0.0090    0.0070 c2        1 LM8     -0.132200
     12 C12         0.3100   -0.7590   -1.1090 c3        1 LM8     -0.061200
     13 C13        -0.7070   -1.1610   -2.1590 c3        1 LM8     -0.066400
     14 C14         2.6380   -4.7700    0.4050 c3        1 LM8     -0.056200
     15 C15         1.3360   -5.5350    0.2780 c3        1 LM8     -0.074400
     16 C16         0.2240   -4.6440   -0.2310 c3        1 LM8     -0.086400
     17 C17        -1.0840   -5.4000   -0.3360 c3        1 LM8     -0.065400
     18 C18        -2.1950   -4.5110   -0.8320 c3        1 LM8     -0.123100
     19 C19        -0.0510   -1.8610   -3.3240 c3        1 LM8     -0.197400
     20 C20        -1.1030   -2.4320   -4.2910 c         1 LM8      0.909600
     21 O21        -1.0230   -2.1110   -5.5100 o         1 LM8     -0.850800
     22 O22        -1.9870   -3.2100   -3.8240 o         1 LM8     -0.850800
     23 C23         6.7440   -3.7410    0.4330 c3        1 LM8     -0.081100
     24 H1         -0.1230    1.1620    1.7780 ha        1 LM8      0.108000
     25 H2          2.3040   -0.2550    0.5020 hc        1 LM8      0.052200
     26 H3          2.2690    1.5510    0.5610 hc        1 LM8      0.052200
     27 H4          1.8820    1.3670    3.1260 ha        1 LM8      0.113000
     28 H5          3.6040   -0.1040    4.0210 ha        1 LM8      0.112000
     29 H6          3.2190   -1.9370    1.7400 hc        1 LM8      0.063200
     30 H7          4.5270   -0.7660    1.3050 hc        1 LM8      0.063200
     31 H8          5.1830   -1.6570    3.9810 ha        1 LM8      0.114000
     32 H9          6.3100   -3.6580    3.1820 ha        1 LM8      0.113000
     33 H10         4.6740   -3.1590    0.5810 hc        1 LM8      0.063700
     34 H11         5.6730   -5.8500    1.7660 ha        1 LM8      0.110000
     35 H12         3.4700   -6.6630    1.1340 ha        1 LM8      0.116000
     36 H13        -1.3940    0.0610    0.0030 ha        1 LM8      0.123000
     37 H14         1.1240   -0.1520   -1.5910 hc        1 LM8      0.040200
     38 H15         0.7950   -1.6870   -0.6950 hc        1 LM8      0.040200
     39 H16        -1.4720   -1.8510   -1.7080 hc        1 LM8      0.046200
     40 H17        -1.2510   -0.2520   -2.5250 hc        1 LM8      0.046200
     41 H18         2.4690   -3.8600    1.0450 hc        1 LM8      0.053700
     42 H19         2.9510   -4.4010   -0.6100 hc        1 LM8      0.053700
     43 H20         1.0510   -5.9590    1.2770 hc        1 LM8      0.033200
     44 H21         1.4750   -6.4010   -0.4220 hc        1 LM8      0.033200
     45 H22         0.4940   -4.2280   -1.2390 hc        1 LM8      0.051700
     46 H23         0.0960   -3.7690    0.4600 hc        1 LM8      0.051700
     47 H24        -1.3500   -5.8250    0.6680 hc        1 LM8      0.020700
     48 H25        -0.9570   -6.2660   -1.0380 hc        1 LM8      0.020700
     49 H26        -2.3370   -3.6400   -0.1470 hc        1 LM8      0.052700
     50 H27        -1.9700   -4.1140   -1.8620 hc        1 LM8      0.052700
     51 H28        -3.1520   -5.0820   -0.8790 hc        1 LM8      0.052700
     52 H29         0.5760   -2.7120   -2.9540 hc        1 LM8      0.020200
     53 H30         0.6170   -1.1540   -3.8770 hc        1 LM8      0.020200
     54 H32         7.5210   -4.3130    0.9950 hc        1 LM8      0.033033
     55 H33         6.6160   -4.2080   -0.5730 hc        1 LM8      0.033033
     56 H34         7.0990   -2.6920    0.3000 hc        1 LM8      0.033033
@<TRIPOS>BOND
     1    1    2 1   
     2    1   11 2   
     3    1   24 1   
     4    2    3 1   
     5    2   25 1   
     6    2   26 1   
     7    3    4 2   
     8    3   27 1   
     9    4    5 1   
    10    4   28 1   
    11    5    6 1   
    12    5   29 1   
    13    5   30 1   
    14    6    7 2   
    15    6   31 1   
    16    7    8 1   
    17    7   32 1   
    18    8    9 1   
    19    8   23 1   
    20    8   33 1   
    21    9   10 2   
    22    9   34 1   
    23   10   14 1   
    24   10   35 1   
    25   11   12 1   
    26   11   36 1   
    27   12   13 1   
    28   12   37 1   
    29   12   38 1   
    30   13   19 1   
    31   13   39 1   
    32   13   40 1   
    33   14   15 1   
    34   14   41 1   
    35   14   42 1   
    36   15   16 1   
    37   15   43 1   
    38   15   44 1   
    39   16   17 1   
    40   16   45 1   
    41   16   46 1   
    42   17   18 1   
    43   17   47 1   
    44   17   48 1   
    45   18   49 1   
    46   18   50 1   
    47   18   51 1   
    48   19   20 1   
    49   19   52 1   
    50   19   53 1   
    51   20   21 1   
    52   20   22 1   
    53   23   54 1   
    54   23   55 1   
    55   23   56 1   
@<TRIPOS>SUBSTRUCTURE
     1 LM8         1 TEMP              0 ****  ****    0 ROOT
