@<TRIPOS>MOLECULE
LMC
   41    42     1     0     0
SMALL
bcc


@<TRIPOS>ATOM
      1 C18         3.2990   -0.5540   -0.8220 c         1 LMC      0.562100
      2 C17         3.2460   -0.0120    0.5360 ce        1 LMC     -0.293200
      3 C16         2.1240    0.0490    1.2830 cf        1 LMC      0.012800
      4 C20         0.8050   -0.4210    0.7820 c3        1 LMC     -0.078900
      5 C15         2.1150    0.6130    2.6230 cf        1 LMC     -0.183000
      6 C14         3.0600    0.4770    3.5710 ce        1 LMC     -0.059000
      7 C13         4.2520   -0.3200    3.4550 ce        1 LMC     -0.233000
      8 C8          5.3480   -0.2250    4.2470 c2        1 LMC      0.132800
      9 C7          5.6110    0.7800    5.3890 c3        1 LMC      0.035500
     10 C11         5.4850    2.2120    4.9070 c3        1 LMC     -0.080100
     11 C10         4.7030    0.5160    6.5760 c3        1 LMC     -0.080100
     12 C2          7.0460    0.4680    5.7600 ca        1 LMC     -0.135300
     13 C3          7.5070   -0.6240    4.9600 ca        1 LMC      0.135600
     14 N9          6.4660   -1.1020    4.1290 nh        1 LMC     -0.523800
     15 C12         6.7350   -1.7800    2.8960 c3        1 LMC      0.191100
     16 C1          7.8740    1.0520    6.6970 ca        1 LMC     -0.082000
     17 C6          9.1780    0.5600    6.8480 ca        1 LMC     -0.161000
     18 C5          9.6290   -0.5020    6.0700 ca        1 LMC     -0.099000
     19 C4          8.8050   -1.1110    5.1150 ca        1 LMC     -0.161000
     20 O1          4.3560   -0.6870   -1.4470 o         1 LMC     -0.537100
     21 H18         2.3240   -0.8450   -1.2780 h4        1 LMC     -0.010800
     22 H17         4.2050    0.3680    0.9300 ha        1 LMC      0.153000
     23 H20         0.8700   -1.4870    0.4500 hc        1 LMC      0.051367
     24 H20A        0.0190   -0.3520    1.5740 hc        1 LMC      0.051367
     25 H15         1.2100    1.2050    2.8560 ha        1 LMC      0.129000
     26 H14         2.8980    0.9860    4.5400 ha        1 LMC      0.123000
     27 H13         4.2310   -1.0760    2.6470 ha        1 LMC      0.141000
     28 H11         5.7710    2.9090    5.7320 hc        1 LMC      0.044033
     29 H11A        4.4370    2.4340    4.5950 hc        1 LMC      0.044033
     30 H11B        6.1610    2.3930    4.0370 hc        1 LMC      0.044033
     31 H10         4.7170   -0.5680    6.8450 hc        1 LMC      0.044033
     32 H10A        5.0600    1.1070    7.4550 hc        1 LMC      0.044033
     33 H10B        3.6520    0.8160    6.3540 hc        1 LMC      0.044033
     34 H12         5.9520   -2.5720    2.7460 h1        1 LMC      0.048033
     35 H12A        6.7100   -1.0820    2.0150 h1        1 LMC      0.048033
     36 H12B        7.7420   -2.2720    2.9440 h1        1 LMC      0.048033
     37 H1          7.5200    1.8910    7.3140 ha        1 LMC      0.135000
     38 H6          9.8470    1.0200    7.5890 ha        1 LMC      0.133000
     39 H5         10.6550   -0.8780    6.2020 ha        1 LMC      0.132000
     40 H4          9.1810   -1.9520    4.5170 ha        1 LMC      0.139000
     41 H21         0.4770    0.2010   -0.0890 hc        1 LMC      0.051367
@<TRIPOS>BOND
     1    1    2 1   
     2    1   20 2   
     3    1   21 1   
     4    2    3 2   
     5    2   22 1   
     6    3    4 1   
     7    3    5 1   
     8    4   23 1   
     9    4   24 1   
    10    4   41 1   
    11    5    6 2   
    12    5   25 1   
    13    6    7 1   
    14    6   26 1   
    15    7    8 2   
    16    7   27 1   
    17    8    9 1   
    18    8   14 1   
    19    9   10 1   
    20    9   11 1   
    21    9   12 1   
    22   10   28 1   
    23   10   29 1   
    24   10   30 1   
    25   11   31 1   
    26   11   32 1   
    27   11   33 1   
    28   12   13 ar  
    29   12   16 ar  
    30   13   14 1   
    31   13   19 ar  
    32   14   15 1   
    33   15   34 1   
    34   15   35 1   
    35   15   36 1   
    36   16   17 ar  
    37   16   37 1   
    38   17   18 ar  
    39   17   38 1   
    40   18   19 ar  
    41   18   39 1   
    42   19   40 1   
@<TRIPOS>SUBSTRUCTURE
     1 LMC         1 TEMP              0 ****  ****    0 ROOT
