@<TRIPOS>MOLECULE
LMC
   41    36     1     0     0
SMALL
bcc


@<TRIPOS>ATOM
      1 C18         2.8200    3.9890   -0.1030 c1        1 LMC      0.212000
      2 C17         2.1940    3.7130   -1.5390 c1        1 LMC     -0.264000
      3 C16         0.8490    3.4560   -1.6660 c1        1 LMC      0.009000
      4 C20         0.2600    3.1870   -3.0230 c3        1 LMC     -0.196000
      5 C15        -0.0890    3.4360   -0.3740 c1        1 LMC     -0.130750
      6 C14        -0.4770    2.2520    0.1570 c1        1 LMC     -0.130750
      7 C13        -0.0130    0.9430   -0.4800 c1        1 LMC     -0.223000
      8 C8         -0.3660   -0.2790    0.0990 c1        1 LMC      0.043000
      9 C7          0.0140   -1.6410   -0.4080 c3        1 LMC      0.018000
     10 C11        -0.5580   -1.9610   -1.7810 c3        1 LMC     -0.197000
     11 C10         1.4950   -1.7680   -0.6580 c3        1 LMC     -0.197000
     12 C2         -0.4590   -2.5770    0.6680 c2        1 LMC     -0.122000
     13 C3         -0.9500   -1.8060    1.7360 c2        1 LMC      0.043000
     14 N9         -1.1400   -0.4470    1.2620 n2        1 LMC     -0.193000
     15 C12        -2.0660    0.5010    1.7900 c3        1 LMC     -0.088000
     16 C1         -0.2690   -3.9460    0.8260 c1        1 LMC     -0.083000
     17 C6         -0.5670   -4.5580    2.0470 c1        1 LMC     -0.130750
     18 C5         -1.0610   -3.7870    3.1210 c1        1 LMC     -0.130750
     19 C4         -1.2510   -2.4220    2.9670 c1        1 LMC     -0.157000
     20 O1          3.0150    5.1430    0.2700 o         1 LMC     -0.296000
     21 H18         3.1240    3.2790    0.4110 ha        1 LMC      0.089000
     22 H17         2.7650    3.7930   -2.3580 ha        1 LMC      0.146000
     23 H20         0.4090    2.2090   -3.2710 hc        1 LMC      0.092000
     24 H20A        0.6700    3.7290   -3.6490 hc        1 LMC      0.092000
     25 H15        -0.3990    4.3110    0.0480 ha        1 LMC      0.131750
     26 H14        -1.0740    2.2350    0.9800 ha        1 LMC      0.131750
     27 H13         0.6140    0.9650   -1.2720 ha        1 LMC      0.141000
     28 H11        -0.1590   -2.7910   -2.1130 hc        1 LMC      0.083333
     29 H11A       -0.3510   -1.2290   -2.3990 hc        1 LMC      0.083333
     30 H11B       -1.6000   -2.0760   -1.7100 hc        1 LMC      0.083333
     31 H10         1.7590   -1.2080   -1.5260 hc        1 LMC      0.083333
     32 H10A        1.9760   -1.4320    0.0970 hc        1 LMC      0.083333
     33 H10B        1.7320   -2.7550   -0.8020 hc        1 LMC      0.083333
     34 H12        -2.7480    0.0300    2.3520 h1        1 LMC      0.085667
     35 H12A       -2.5480    0.9960    0.9980 h1        1 LMC      0.085667
     36 H12B       -1.5460    1.2040    2.3840 h1        1 LMC      0.085667
     37 H1          0.0840   -4.4980    0.0580 ha        1 LMC      0.136000
     38 H6         -0.4350   -5.5200    2.1550 ha        1 LMC      0.131750
     39 H5         -1.2660   -4.2050    3.9530 ha        1 LMC      0.131750
     40 H4         -1.6170   -1.8560    3.7580 ha        1 LMC      0.139000
     41 H21        -0.7720    3.3880   -3.0060 hc        1 LMC      0.092000
@<TRIPOS>BOND
     1    1   20 1   
     2    1   21 1   
     3    2    3 1   
     4    2   22 1   
     5    3    4 1   
     6    4   23 1   
     7    4   24 1   
     8    4   41 1   
     9    5    6 1   
    10    5   25 1   
    11    6   26 1   
    12    7    8 1   
    13    7   27 1   
    14    8    9 1   
    15    9   10 1   
    16    9   11 1   
    17    9   12 1   
    18   10   28 1   
    19   10   29 1   
    20   10   30 1   
    21   11   31 1   
    22   11   32 1   
    23   11   33 1   
    24   12   13 1   
    25   12   16 1   
    26   13   14 1   
    27   13   19 1   
    28   14   15 1   
    29   15   34 1   
    30   15   35 1   
    31   15   36 1   
    32   16   37 1   
    33   17   18 1   
    34   17   38 1   
    35   18   39 1   
    36   19   40 1   
@<TRIPOS>SUBSTRUCTURE
     1 LMC         1 TEMP              0 ****  ****    0 ROOT
