@<TRIPOS>MOLECULE
LMC
   41    42     1     0     0
SMALL
bcc


@<TRIPOS>ATOM
      1 C18         3.2560   -0.3910   -0.8230 c         1 LMC      0.562100
      2 C17         3.2080    0.0880    0.5580 ce        1 LMC     -0.293200
      3 C16         2.0950    0.0910    1.3200 cf        1 LMC      0.012800
      4 C20         0.7800   -0.3860    0.8140 c3        1 LMC     -0.078900
      5 C15         2.0900    0.5950    2.6830 cf        1 LMC     -0.183000
      6 C14         3.0500    0.4390    3.6140 ce        1 LMC     -0.059000
      7 C13         4.2570   -0.3250    3.4490 ce        1 LMC     -0.233000
      8 C8          5.3600   -0.2420    4.2320 c2        1 LMC      0.132800
      9 C7          5.6150    0.7160    5.4150 c3        1 LMC      0.035500
     10 C11         5.4530    2.1650    5.0000 c3        1 LMC     -0.080100
     11 C10         4.7260    0.3790    6.5990 c3        1 LMC     -0.080100
     12 C2          7.0610    0.4200    5.7560 ca        1 LMC     -0.135300
     13 C3          7.5360   -0.6250    4.9030 ca        1 LMC      0.135600
     14 N9          6.4960   -1.0880    4.0620 nh        1 LMC     -0.523800
     15 C12         6.7650   -1.7040    2.7970 c3        1 LMC      0.191100
     16 C1          7.8860    0.9790    6.7100 ca        1 LMC     -0.082000
     17 C6          9.2030    0.5090    6.8240 ca        1 LMC     -0.161000
     18 C5          9.6670   -0.5060    5.9940 ca        1 LMC     -0.099000
     19 C4          8.8460   -1.0900    5.0220 ca        1 LMC     -0.161000
     20 O1          4.3070   -0.4730   -1.4660 o         1 LMC     -0.537100
     21 H18         2.2820   -0.6840   -1.2810 h4        1 LMC     -0.010800
     22 H17         4.1630    0.4730    0.9570 ha        1 LMC      0.153000
     23 H20         0.0030   -0.3700    1.6170 hc        1 LMC      0.051367
     24 H20A        0.8650   -1.4350    0.4340 hc        1 LMC      0.051367
     25 H15         1.1760    1.1560    2.9520 ha        1 LMC      0.129000
     26 H14         2.8890    0.9000    4.6060 ha        1 LMC      0.123000
     27 H13         4.2430   -1.0450    2.6080 ha        1 LMC      0.141000
     28 H11         5.7330    2.8300    5.8530 hc        1 LMC      0.044033
     29 H11A        6.1140    2.4000    4.1320 hc        1 LMC      0.044033
     30 H11B        4.3960    2.3780    4.7100 hc        1 LMC      0.044033
     31 H10         3.6670    0.6650    6.4020 hc        1 LMC      0.044033
     32 H10A        5.0810    0.9380    7.5000 hc        1 LMC      0.044033
     33 H10B        4.7680   -0.7150    6.8180 hc        1 LMC      0.044033
     34 H12         5.9980   -2.5060    2.6190 h1        1 LMC      0.048033
     35 H12A        7.7830   -2.1740    2.8120 h1        1 LMC      0.048033
     36 H12B        6.7140   -0.9670    1.9490 h1        1 LMC      0.048033
     37 H1          7.5210    1.7810    7.3680 ha        1 LMC      0.135000
     38 H6          9.8700    0.9500    7.5790 ha        1 LMC      0.133000
     39 H5         10.7030   -0.8650    6.0980 ha        1 LMC      0.132000
     40 H4          9.2330   -1.8940    4.3820 ha        1 LMC      0.139000
     41 H21         0.4280    0.2650   -0.0250 hc        1 LMC      0.051367
@<TRIPOS>BOND
     1    1    2 1   
     2    1   20 2   
     3    1   21 1   
     4    2    3 2   
     5    2   22 1   
     6    3    4 1   
     7    3    5 1   
     8    4   23 1   
     9    4   24 1   
    10    4   41 1   
    11    5    6 2   
    12    5   25 1   
    13    6    7 1   
    14    6   26 1   
    15    7    8 2   
    16    7   27 1   
    17    8    9 1   
    18    8   14 1   
    19    9   10 1   
    20    9   11 1   
    21    9   12 1   
    22   10   28 1   
    23   10   29 1   
    24   10   30 1   
    25   11   31 1   
    26   11   32 1   
    27   11   33 1   
    28   12   13 ar  
    29   12   16 ar  
    30   13   14 1   
    31   13   19 ar  
    32   14   15 1   
    33   15   34 1   
    34   15   35 1   
    35   15   36 1   
    36   16   17 ar  
    37   16   37 1   
    38   17   18 ar  
    39   17   38 1   
    40   18   19 ar  
    41   18   39 1   
    42   19   40 1   
@<TRIPOS>SUBSTRUCTURE
     1 LMC         1 TEMP              0 ****  ****    0 ROOT
