@<TRIPOS>MOLECULE
LMC
   41    42     1     0     0
SMALL
bcc


@<TRIPOS>ATOM
      1 C18         3.2660   -0.4410   -0.8240 c         1 LMC      0.562100
      2 C17         3.2130    0.0500    0.5530 ce        1 LMC     -0.293200
      3 C16         2.0990    0.0500    1.3140 cf        1 LMC      0.012800
      4 C20         0.7880   -0.4410    0.8100 c3        1 LMC     -0.078900
      5 C15         2.0880    0.5660    2.6730 cf        1 LMC     -0.183000
      6 C14         3.0480    0.4240    3.6060 ce        1 LMC     -0.059000
      7 C13         4.2610   -0.3330    3.4490 ce        1 LMC     -0.233000
      8 C8          5.3620   -0.2360    4.2340 c2        1 LMC      0.132800
      9 C7          5.6070    0.7320    5.4100 c3        1 LMC      0.035500
     10 C11         5.4360    2.1770    4.9840 c3        1 LMC     -0.080100
     11 C10         4.7190    0.3970    6.5950 c3        1 LMC     -0.080100
     12 C2          7.0540    0.4480    5.7570 ca        1 LMC     -0.135300
     13 C3          7.5390   -0.5990    4.9120 ca        1 LMC      0.135600
     14 N9          6.5030   -1.0750    4.0720 nh        1 LMC     -0.523800
     15 C12         6.7790   -1.6990    2.8120 c3        1 LMC      0.191100
     16 C1          7.8740    1.0200    6.7080 ca        1 LMC     -0.082000
     17 C6          9.1940    0.5590    6.8290 ca        1 LMC     -0.161000
     18 C5          9.6670   -0.4590    6.0070 ca        1 LMC     -0.099000
     19 C4          8.8510   -1.0540    5.0370 ca        1 LMC     -0.161000
     20 O1          4.3180   -0.5200   -1.4650 o         1 LMC     -0.537100
     21 H18         2.2950   -0.7460   -1.2800 h4        1 LMC     -0.010800
     22 H17         4.1640    0.4450    0.9510 ha        1 LMC      0.153000
     23 H20         0.0100   -0.4240    1.6130 hc        1 LMC      0.051367
     24 H20A        0.4320    0.2010   -0.0350 hc        1 LMC      0.051367
     25 H15         1.1700    1.1230    2.9360 ha        1 LMC      0.129000
     26 H14         2.8820    0.8930    4.5940 ha        1 LMC      0.123000
     27 H13         4.2530   -1.0580    2.6130 ha        1 LMC      0.141000
     28 H11         4.3790    2.3810    4.6910 hc        1 LMC      0.044033
     29 H11A        6.0980    2.4100    4.1160 hc        1 LMC      0.044033
     30 H11B        5.7110    2.8500    5.8330 hc        1 LMC      0.044033
     31 H10         5.0680    0.9650    7.4920 hc        1 LMC      0.044033
     32 H10A        4.7670   -0.6950    6.8220 hc        1 LMC      0.044033
     33 H10B        3.6580    0.6750    6.3940 hc        1 LMC      0.044033
     34 H12         6.0180   -2.5060    2.6390 h1        1 LMC      0.048033
     35 H12A        6.7260   -0.9680    1.9590 h1        1 LMC      0.048033
     36 H12B        7.8000   -2.1620    2.8320 h1        1 LMC      0.048033
     37 H1          7.5030    1.8240    7.3600 ha        1 LMC      0.135000
     38 H6          9.8560    1.0100    7.5820 ha        1 LMC      0.133000
     39 H5         10.7040   -0.8090    6.1160 ha        1 LMC      0.132000
     40 H4          9.2450   -1.8610    4.4040 ha        1 LMC      0.139000
     41 H21         0.8810   -1.4920    0.4400 hc        1 LMC      0.051367
@<TRIPOS>BOND
     1    1    2 1   
     2    1   20 2   
     3    1   21 1   
     4    2    3 2   
     5    2   22 1   
     6    3    4 1   
     7    3    5 1   
     8    4   23 1   
     9    4   24 1   
    10    4   41 1   
    11    5    6 2   
    12    5   25 1   
    13    6    7 1   
    14    6   26 1   
    15    7    8 2   
    16    7   27 1   
    17    8    9 1   
    18    8   14 1   
    19    9   10 1   
    20    9   11 1   
    21    9   12 1   
    22   10   28 1   
    23   10   29 1   
    24   10   30 1   
    25   11   31 1   
    26   11   32 1   
    27   11   33 1   
    28   12   13 ar  
    29   12   16 ar  
    30   13   14 1   
    31   13   19 ar  
    32   14   15 1   
    33   15   34 1   
    34   15   35 1   
    35   15   36 1   
    36   16   17 ar  
    37   16   37 1   
    38   17   18 ar  
    39   17   38 1   
    40   18   19 ar  
    41   18   39 1   
    42   19   40 1   
@<TRIPOS>SUBSTRUCTURE
     1 LMC         1 TEMP              0 ****  ****    0 ROOT
