@<TRIPOS>MOLECULE
LMC
   41    42     1     0     0
SMALL
bcc


@<TRIPOS>ATOM
      1 C18         6.5240    0.0230   -0.0090 c         1 LMC      0.563100
      2 C17         5.1980    0.6390   -0.0020 ce        1 LMC     -0.285200
      3 C16         4.0190   -0.0160   -0.0610 cf        1 LMC      0.010800
      4 C20         3.8930   -1.4920   -0.1590 c3        1 LMC     -0.078900
      5 C15         2.7830    0.7520   -0.0260 cf        1 LMC     -0.178000
      6 C14         1.5500    0.2180    0.0800 ce        1 LMC     -0.067000
      7 C13         0.3630    1.0310    0.1190 ce        1 LMC     -0.225000
      8 C8         -0.9130    0.5740    0.1410 c2        1 LMC      0.133800
      9 C7         -1.4020   -0.8890    0.0780 c3        1 LMC      0.036500
     10 C11        -0.9290   -1.5800   -1.1870 c3        1 LMC     -0.080100
     11 C10        -0.9920   -1.6610    1.3180 c3        1 LMC     -0.080100
     12 C2         -2.9070   -0.7200    0.0450 ca        1 LMC     -0.136300
     13 C3         -3.2210    0.6730    0.1200 ca        1 LMC      0.136600
     14 N9         -2.0400    1.4370    0.2670 nh        1 LMC     -0.526800
     15 C12        -1.9670    2.8090   -0.1340 c3        1 LMC      0.195100
     16 C1         -3.9110   -1.6630   -0.0330 ca        1 LMC     -0.081000
     17 C6         -5.2450   -1.2320   -0.0430 ca        1 LMC     -0.161000
     18 C5         -5.5530    0.1230    0.0270 ca        1 LMC     -0.099000
     19 C4         -4.5500    1.0970    0.1100 ca        1 LMC     -0.161000
     20 O1          7.5630    0.6910   -0.0290 o         1 LMC     -0.535100
     21 H18         6.5710   -1.0900    0.0160 h4        1 LMC     -0.010800
     22 H17         5.2120    1.7420    0.0600 ha        1 LMC      0.146000
     23 H20         3.4980   -1.9030    0.8050 hc        1 LMC      0.051367
     24 H20A        3.1760   -1.7630   -0.9760 hc        1 LMC      0.051367
     25 H15         2.9060    1.8480   -0.0840 ha        1 LMC      0.131000
     26 H14         1.4180   -0.8750    0.1510 ha        1 LMC      0.123000
     27 H13         0.5460    2.1220    0.1420 ha        1 LMC      0.132000
     28 H11         0.1770   -1.7270   -1.1750 hc        1 LMC      0.044200
     29 H11A       -1.4210   -2.5800   -1.2690 hc        1 LMC      0.044200
     30 H11B       -1.1970   -0.9760   -2.0870 hc        1 LMC      0.044200
     31 H10        -1.3130   -1.1170    2.2390 hc        1 LMC      0.044200
     32 H10A       -1.4790   -2.6670    1.3080 hc        1 LMC      0.044200
     33 H10B        0.1140   -1.8010    1.3550 hc        1 LMC      0.044200
     34 H12        -1.5540    2.9220   -1.1740 h1        1 LMC      0.045700
     35 H12A       -2.9880    3.2710   -0.0950 h1        1 LMC      0.045700
     36 H12B       -1.2940    3.3570    0.5790 h1        1 LMC      0.045700
     37 H1         -3.6710   -2.7350   -0.0870 ha        1 LMC      0.136000
     38 H6         -6.0530   -1.9750   -0.1070 ha        1 LMC      0.134000
     39 H5         -6.6050    0.4450    0.0190 ha        1 LMC      0.133000
     40 H4         -4.8170    2.1600    0.1710 ha        1 LMC      0.138000
     41 H21         4.8660   -1.9920   -0.3800 hc        1 LMC      0.051367
@<TRIPOS>BOND
     1    1    2 1   
     2    1   20 2   
     3    1   21 1   
     4    2    3 2   
     5    2   22 1   
     6    3    4 1   
     7    3    5 1   
     8    4   23 1   
     9    4   24 1   
    10    4   41 1   
    11    5    6 2   
    12    5   25 1   
    13    6    7 1   
    14    6   26 1   
    15    7    8 2   
    16    7   27 1   
    17    8    9 1   
    18    8   14 1   
    19    9   10 1   
    20    9   11 1   
    21    9   12 1   
    22   10   28 1   
    23   10   29 1   
    24   10   30 1   
    25   11   31 1   
    26   11   32 1   
    27   11   33 1   
    28   12   13 ar  
    29   12   16 ar  
    30   13   14 1   
    31   13   19 ar  
    32   14   15 1   
    33   15   34 1   
    34   15   35 1   
    35   15   36 1   
    36   16   17 ar  
    37   16   37 1   
    38   17   18 ar  
    39   17   38 1   
    40   18   19 ar  
    41   18   39 1   
    42   19   40 1   
@<TRIPOS>SUBSTRUCTURE
     1 LMC         1 TEMP              0 ****  ****    0 ROOT
