@<TRIPOS>MOLECULE
LMD
   87    88     1     0     0
SMALL
bcc


@<TRIPOS>ATOM
      1 CBK         0.0250   -0.0470    0.0870 c3        1 LMD     -0.092100
      2 CBJ         1.5300    0.0320    0.0940 c3        1 LMD     -0.080400
      3 CBI         2.0840   -0.0460    1.5010 c3        1 LMD     -0.079400
      4 CBH         3.5950    0.0340    1.5030 c3        1 LMD     -0.079400
      5 CBG         4.1470   -0.0440    2.9100 c3        1 LMD     -0.079400
      6 CBF         5.6590    0.0360    2.9130 c3        1 LMD     -0.079400
      7 CBE         6.2110   -0.0430    4.3200 c3        1 LMD     -0.079400
      8 CBD         7.7230    0.0370    4.3220 c3        1 LMD     -0.079400
      9 CBC         8.2750   -0.0410    5.7290 c3        1 LMD     -0.079400
     10 CBB         9.7860    0.0400    5.7320 c3        1 LMD     -0.079400
     11 CBA        10.3380   -0.0390    7.1390 c3        1 LMD     -0.078400
     12 CAZ        11.8500    0.0420    7.1400 c3        1 LMD     -0.078400
     13 CAY        12.3960   -0.0370    8.5490 c3        1 LMD     -0.084400
     14 CAX        13.9120    0.0450    8.5300 c3        1 LMD      0.136400
     15 OAS        14.3340   -0.0370    9.8980 os        1 LMD     -0.423600
     16 CAM        15.7310    0.0420   10.0620 c3        1 LMD      0.307900
     17 CAN        16.0050    0.0810   11.5750 c3        1 LMD      0.086100
     18 OAT        15.6790    1.3520   12.1070 oh        1 LMD     -0.604800
     19 CAO        17.5040   -0.1330   11.8480 c3        1 LMD      0.121100
     20 OAU        17.6960   -0.3240   13.2400 oh        1 LMD     -0.605800
     21 OAV        16.1940   -1.1800    9.5000 os        1 LMD     -0.446600
     22 CAQ        17.6050   -1.3480    9.6410 c3        1 LMD      0.107100
     23 CAR        17.9350   -2.6600    8.9220 c3        1 LMD      0.140400
     24 OAW        17.5030   -2.6230    7.5800 oh        1 LMD     -0.594800
     25 CAP        18.0030   -1.4000   11.1290 c3        1 LMD      0.126100
     26 O1         19.4320   -1.4460   11.1220 os        1 LMD     -0.431600
     27 C1         20.0240   -1.8670   12.3360 c3        1 LMD      0.336900
     28 O5         19.8370   -3.2650   12.4210 os        1 LMD     -0.449600
     29 C5         20.4750   -4.0480   11.4070 c3        1 LMD      0.102100
     30 C6         20.1980   -5.5070   11.7780 c3        1 LMD      0.140400
     31 O6         18.8180   -5.7940   11.7250 oh        1 LMD     -0.595800
     32 C4         21.9850   -3.7700   11.3630 c3        1 LMD      0.126100
     33 O4         22.5170   -4.5110   10.2800 oh        1 LMD     -0.592800
     34 C3         22.2090   -2.2630   11.1540 c3        1 LMD      0.066100
     35 O3         23.6110   -2.0430   11.1850 oh        1 LMD     -0.607800
     36 C2         21.5210   -1.5010   12.2950 c3        1 LMD      0.098100
     37 O2         21.6260   -0.1030   12.1120 oh        1 LMD     -0.576800
     38 H1         -0.3620    0.0130   -0.9590 hc        1 LMD      0.032700
     39 H2         -0.4170    0.7940    0.6740 hc        1 LMD      0.032700
     40 H3         -0.3220   -1.0080    0.5370 hc        1 LMD      0.032700
     41 H4          1.8590    0.9930   -0.3840 hc        1 LMD      0.038700
     42 H5          1.9540   -0.8050   -0.5210 hc        1 LMD      0.038700
     43 H6          1.7570   -1.0060    1.9800 hc        1 LMD      0.039700
     44 H7          1.6620    0.7910    2.1170 hc        1 LMD      0.039700
     45 H8          4.0170   -0.8030    0.8870 hc        1 LMD      0.039700
     46 H9          3.9220    0.9940    1.0240 hc        1 LMD      0.039700
     47 H10         3.7260    0.7930    3.5270 hc        1 LMD      0.039700
     48 H11         3.8210   -1.0050    3.3900 hc        1 LMD      0.039700
     49 H12         5.9860    0.9960    2.4330 hc        1 LMD      0.039700
     50 H13         6.0810   -0.8010    2.2960 hc        1 LMD      0.039700
     51 H14         5.8850   -1.0030    4.7990 hc        1 LMD      0.039700
     52 H15         5.7890    0.7940    4.9370 hc        1 LMD      0.039700
     53 H16         8.0490    0.9980    3.8430 hc        1 LMD      0.039700
     54 H17         8.1450   -0.8000    3.7060 hc        1 LMD      0.039700
     55 H18         7.9490   -1.0010    6.2090 hc        1 LMD      0.040200
     56 H19         7.8530    0.7960    6.3460 hc        1 LMD      0.040200
     57 H20        10.1130    1.0000    5.2520 hc        1 LMD      0.040200
     58 H21        10.2080   -0.7970    5.1150 hc        1 LMD      0.040200
     59 H22        10.0120   -1.0000    7.6180 hc        1 LMD      0.041700
     60 H23         9.9160    0.7980    7.7560 hc        1 LMD      0.041700
     61 H24        12.2710   -0.7950    6.5240 hc        1 LMD      0.041700
     62 H25        12.1750    1.0030    6.6610 hc        1 LMD      0.041700
     63 H26        12.0830   -0.9990    9.0330 hc        1 LMD      0.055200
     64 H27        11.9840    0.7990    9.1720 hc        1 LMD      0.055200
     65 H28        14.2620    1.0180    8.0940 h1        1 LMD      0.038700
     66 H29        14.3600   -0.8040    7.9520 h1        1 LMD      0.038700
     67 H30        16.1760    0.9250    9.5250 h2        1 LMD      0.055700
     68 H31        15.4020   -0.7200   12.0870 h1        1 LMD      0.078700
     69 H32        14.7340    1.4800   11.9520 ho        1 LMD      0.424000
     70 H33        18.0920    0.7620   11.5030 h1        1 LMD      0.070700
     71 H34        17.3590    0.4700   13.6750 ho        1 LMD      0.425000
     72 H35        18.1350   -0.4900    9.1400 h1        1 LMD      0.066700
     73 H36        17.4730   -3.5260    9.4640 h1        1 LMD      0.063700
     74 H37        19.0500   -2.7790    8.8710 h1        1 LMD      0.063700
     75 H38        16.5440   -2.5020    7.5930 ho        1 LMD      0.412000
     76 H39        17.5890   -2.3150   11.6320 h1        1 LMD      0.082700
     77 H40        19.5130   -1.4450   13.2470 h2        1 LMD      0.126700
     78 H41        20.0120   -3.8030   10.4110 h1        1 LMD      0.076700
     79 H42        20.6050   -5.7280   12.8000 h1        1 LMD      0.062200
     80 H43        20.6760   -6.1760   11.0130 h1        1 LMD      0.062200
     81 H44        18.3820   -5.2020   12.3530 ho        1 LMD      0.410000
     82 H45        22.4760   -4.0940   12.3220 h1        1 LMD      0.057700
     83 H46        23.4430   -4.2460   10.2000 ho        1 LMD      0.422000
     84 H47        21.7770   -1.9400   10.1670 h1        1 LMD      0.081700
     85 H48        23.7690   -1.2010   10.7430 ho        1 LMD      0.411000
     86 H49        21.9760   -1.8030   13.2810 h1        1 LMD      0.062700
     87 H50        22.5480    0.1220   12.2950 ho        1 LMD      0.404000
@<TRIPOS>BOND
     1    1    2 1   
     2    1   38 1   
     3    1   39 1   
     4    1   40 1   
     5    2    3 1   
     6    2   41 1   
     7    2   42 1   
     8    3    4 1   
     9    3   43 1   
    10    3   44 1   
    11    4    5 1   
    12    4   45 1   
    13    4   46 1   
    14    5    6 1   
    15    5   47 1   
    16    5   48 1   
    17    6    7 1   
    18    6   49 1   
    19    6   50 1   
    20    7    8 1   
    21    7   51 1   
    22    7   52 1   
    23    8    9 1   
    24    8   53 1   
    25    8   54 1   
    26    9   10 1   
    27    9   55 1   
    28    9   56 1   
    29   10   11 1   
    30   10   57 1   
    31   10   58 1   
    32   11   12 1   
    33   11   59 1   
    34   11   60 1   
    35   12   13 1   
    36   12   61 1   
    37   12   62 1   
    38   13   14 1   
    39   13   63 1   
    40   13   64 1   
    41   14   15 1   
    42   14   65 1   
    43   14   66 1   
    44   15   16 1   
    45   16   17 1   
    46   16   21 1   
    47   16   67 1   
    48   17   18 1   
    49   17   19 1   
    50   17   68 1   
    51   18   69 1   
    52   19   20 1   
    53   19   25 1   
    54   19   70 1   
    55   20   71 1   
    56   21   22 1   
    57   22   23 1   
    58   22   25 1   
    59   22   72 1   
    60   23   24 1   
    61   23   73 1   
    62   23   74 1   
    63   24   75 1   
    64   25   26 1   
    65   25   76 1   
    66   26   27 1   
    67   27   28 1   
    68   27   36 1   
    69   27   77 1   
    70   28   29 1   
    71   29   30 1   
    72   29   32 1   
    73   29   78 1   
    74   30   31 1   
    75   30   79 1   
    76   30   80 1   
    77   31   81 1   
    78   32   33 1   
    79   32   34 1   
    80   32   82 1   
    81   33   83 1   
    82   34   35 1   
    83   34   36 1   
    84   34   84 1   
    85   35   85 1   
    86   36   37 1   
    87   36   86 1   
    88   37   87 1   
@<TRIPOS>SUBSTRUCTURE
     1 LMD         1 TEMP              0 ****  ****    0 ROOT
