@<TRIPOS>MOLECULE
LMD
   87    88     1     0     0
SMALL
bcc


@<TRIPOS>ATOM
      1 CBK        16.8110   -1.1650   -0.2940 c3        1 LMD     -0.092100
      2 CBJ        15.5190   -1.3270    0.4640 c3        1 LMD     -0.080400
      3 CBI        14.3490   -0.7470   -0.3030 c3        1 LMD     -0.079400
      4 CBH        13.0530   -0.9120    0.4620 c3        1 LMD     -0.079400
      5 CBG        11.8840   -0.3320   -0.3060 c3        1 LMD     -0.079400
      6 CBF        10.5880   -0.4970    0.4590 c3        1 LMD     -0.079400
      7 CBE         9.4200    0.0840   -0.3090 c3        1 LMD     -0.079400
      8 CBD         8.1240   -0.0810    0.4560 c3        1 LMD     -0.079400
      9 CBC         6.9560    0.4990   -0.3120 c3        1 LMD     -0.079400
     10 CBB         5.6600    0.3340    0.4530 c3        1 LMD     -0.079400
     11 CBA         4.4920    0.9140   -0.3150 c3        1 LMD     -0.078400
     12 CAZ         3.1960    0.7490    0.4510 c3        1 LMD     -0.078400
     13 CAY         2.0320    1.3290   -0.3210 c3        1 LMD     -0.084400
     14 CAX         0.7430    1.1550    0.4620 c3        1 LMD      0.136400
     15 OAS        -0.2950    1.7300   -0.3430 os        1 LMD     -0.423600
     16 CAM        -1.5700    1.6690    0.2520 c3        1 LMD      0.306900
     17 CAN        -2.5310    2.4480   -0.6640 c3        1 LMD      0.086100
     18 OAT        -2.3310    3.8430   -0.5210 oh        1 LMD     -0.603800
     19 CAO        -3.9870    2.1740   -0.2530 c3        1 LMD      0.121100
     20 OAU        -4.8640    2.7230   -1.2220 oh        1 LMD     -0.604800
     21 OAV        -1.8690    0.2780    0.2330 os        1 LMD     -0.444600
     22 CAQ        -3.1850   -0.0080    0.7070 c3        1 LMD      0.107100
     23 CAR        -3.3050   -1.5360    0.6930 c3        1 LMD      0.140400
     24 OAW        -2.2840   -2.1270    1.4650 oh        1 LMD     -0.592800
     25 CAP        -4.2390    0.6550   -0.2000 c3        1 LMD      0.128100
     26 O1         -5.4990    0.3780    0.4120 os        1 LMD     -0.458600
     27 C1         -6.6220    0.4940   -0.4510 c3        1 LMD      0.302900
     28 O5         -6.5630   -0.5790   -1.3600 os        1 LMD     -0.441600
     29 C5         -6.7390   -1.8860   -0.8040 c3        1 LMD      0.098100
     30 C6         -6.7050   -2.8470   -1.9960 c3        1 LMD      0.140400
     31 O6         -5.4430   -2.8280   -2.6260 oh        1 LMD     -0.596800
     32 C4         -8.0720   -1.9810   -0.0520 c3        1 LMD      0.129100
     33 O4         -8.1490   -3.2820    0.5000 oh        1 LMD     -0.594800
     34 C3         -8.0950   -0.9150    1.0560 c3        1 LMD      0.073100
     35 O3         -9.3640   -1.0040    1.6810 oh        1 LMD     -0.605800
     36 C2         -7.8750    0.4760    0.4470 c3        1 LMD      0.095100
     37 O2         -7.7980    1.4500    1.4660 oh        1 LMD     -0.590800
     38 H1         16.7580   -1.6850   -1.2800 hc        1 LMD      0.032700
     39 H2         17.0270   -0.0850   -0.4790 hc        1 LMD      0.032700
     40 H3         17.6590   -1.5990    0.2890 hc        1 LMD      0.032700
     41 H4         15.3320   -2.4160    0.6620 hc        1 LMD      0.038700
     42 H5         15.6000   -0.8190    1.4610 hc        1 LMD      0.038700
     43 H6         14.5330    0.3420   -0.5010 hc        1 LMD      0.039700
     44 H7         14.2650   -1.2540   -1.3000 hc        1 LMD      0.039700
     45 H8         12.8690   -2.0010    0.6600 hc        1 LMD      0.039700
     46 H9         13.1370   -0.4040    1.4590 hc        1 LMD      0.039700
     47 H10        12.0680    0.7570   -0.5040 hc        1 LMD      0.039700
     48 H11        11.8000   -0.8390   -1.3030 hc        1 LMD      0.039700
     49 H12        10.4050   -1.5850    0.6570 hc        1 LMD      0.039700
     50 H13        10.6730    0.0110    1.4560 hc        1 LMD      0.039700
     51 H14         9.6040    1.1720   -0.5070 hc        1 LMD      0.039700
     52 H15         9.3360   -0.4240   -1.3060 hc        1 LMD      0.039700
     53 H16         7.9410   -1.1700    0.6550 hc        1 LMD      0.039700
     54 H17         8.2090    0.4260    1.4530 hc        1 LMD      0.039700
     55 H18         7.1390    1.5870   -0.5100 hc        1 LMD      0.040200
     56 H19         6.8710   -0.0090   -1.3080 hc        1 LMD      0.040200
     57 H20         5.4760   -0.7550    0.6520 hc        1 LMD      0.040200
     58 H21         5.7450    0.8420    1.4500 hc        1 LMD      0.040200
     59 H22         4.6750    2.0030   -0.5140 hc        1 LMD      0.041700
     60 H23         4.4070    0.4050   -1.3110 hc        1 LMD      0.041700
     61 H24         3.0130   -0.3400    0.6490 hc        1 LMD      0.042200
     62 H25         3.2810    1.2580    1.4470 hc        1 LMD      0.042200
     63 H26         2.2040    2.4190   -0.5210 hc        1 LMD      0.055200
     64 H27         1.9330    0.8210   -1.3150 hc        1 LMD      0.055200
     65 H28         0.5170    0.0710    0.6400 h1        1 LMD      0.038700
     66 H29         0.7870    1.6930    1.4460 h1        1 LMD      0.038700
     67 H30        -1.5710    2.0640    1.3050 h2        1 LMD      0.054700
     68 H31        -2.3660    2.1390   -1.7340 h1        1 LMD      0.079700
     69 H32        -1.4220    4.0190   -0.7980 ho        1 LMD      0.426000
     70 H33        -4.1970    2.6360    0.7510 h1        1 LMD      0.062700
     71 H34        -4.6490    3.6640   -1.2870 ho        1 LMD      0.427000
     72 H35        -3.2960    0.3770    1.7590 h1        1 LMD      0.062700
     73 H36        -4.2650   -1.8330    1.1940 h1        1 LMD      0.065200
     74 H37        -3.2800   -1.9170   -0.3610 h1        1 LMD      0.065200
     75 H38        -1.4420   -1.8850    1.0570 ho        1 LMD      0.412000
     76 H39        -4.2100    0.2240   -1.2380 h1        1 LMD      0.087700
     77 H40        -6.5760    1.4220   -1.0900 h2        1 LMD      0.126700
     78 H41        -5.8850   -2.1030   -0.1050 h1        1 LMD      0.074700
     79 H42        -6.8420   -3.8970   -1.6230 h1        1 LMD      0.064700
     80 H43        -7.5130   -2.5820   -2.7270 h1        1 LMD      0.064700
     81 H44        -5.2970   -1.9260   -2.9400 ho        1 LMD      0.408000
     82 H45        -8.9360   -1.8140   -0.7530 h1        1 LMD      0.059700
     83 H46        -8.9250   -3.2880    1.0780 ho        1 LMD      0.426000
     84 H47        -7.2900   -1.1320    1.8130 h1        1 LMD      0.062700
     85 H48        -9.4530   -0.2210    2.2410 ho        1 LMD      0.424000
     86 H49        -8.7690    0.7740   -0.1710 h1        1 LMD      0.102700
     87 H50        -6.9540    1.3300    1.9210 ho        1 LMD      0.419000
@<TRIPOS>BOND
     1    1    2 1   
     2    1   38 1   
     3    1   39 1   
     4    1   40 1   
     5    2    3 1   
     6    2   41 1   
     7    2   42 1   
     8    3    4 1   
     9    3   43 1   
    10    3   44 1   
    11    4    5 1   
    12    4   45 1   
    13    4   46 1   
    14    5    6 1   
    15    5   47 1   
    16    5   48 1   
    17    6    7 1   
    18    6   49 1   
    19    6   50 1   
    20    7    8 1   
    21    7   51 1   
    22    7   52 1   
    23    8    9 1   
    24    8   53 1   
    25    8   54 1   
    26    9   10 1   
    27    9   55 1   
    28    9   56 1   
    29   10   11 1   
    30   10   57 1   
    31   10   58 1   
    32   11   12 1   
    33   11   59 1   
    34   11   60 1   
    35   12   13 1   
    36   12   61 1   
    37   12   62 1   
    38   13   14 1   
    39   13   63 1   
    40   13   64 1   
    41   14   15 1   
    42   14   65 1   
    43   14   66 1   
    44   15   16 1   
    45   16   17 1   
    46   16   21 1   
    47   16   67 1   
    48   17   18 1   
    49   17   19 1   
    50   17   68 1   
    51   18   69 1   
    52   19   20 1   
    53   19   25 1   
    54   19   70 1   
    55   20   71 1   
    56   21   22 1   
    57   22   23 1   
    58   22   25 1   
    59   22   72 1   
    60   23   24 1   
    61   23   73 1   
    62   23   74 1   
    63   24   75 1   
    64   25   26 1   
    65   25   76 1   
    66   26   27 1   
    67   27   28 1   
    68   27   36 1   
    69   27   77 1   
    70   28   29 1   
    71   29   30 1   
    72   29   32 1   
    73   29   78 1   
    74   30   31 1   
    75   30   79 1   
    76   30   80 1   
    77   31   81 1   
    78   32   33 1   
    79   32   34 1   
    80   32   82 1   
    81   33   83 1   
    82   34   35 1   
    83   34   36 1   
    84   34   84 1   
    85   35   85 1   
    86   36   37 1   
    87   36   86 1   
    88   37   87 1   
@<TRIPOS>SUBSTRUCTURE
     1 LMD         1 TEMP              0 ****  ****    0 ROOT
