@<TRIPOS>MOLECULE
LMD
   87    88     1     0     0
SMALL
bcc


@<TRIPOS>ATOM
      1 CBK        -5.7740   12.4380   -2.1480 c3        1 LMD     -0.092100
      2 CBJ        -5.0890   11.2330   -2.8660 c3        1 LMD     -0.080400
      3 CBI        -5.6450    9.9120   -2.2950 c3        1 LMD     -0.079400
      4 CBH        -4.9490    8.7090   -2.9920 c3        1 LMD     -0.079400
      5 CBG        -5.4720    7.3820   -2.3770 c3        1 LMD     -0.079400
      6 CBF        -4.7520    6.1900   -3.0340 c3        1 LMD     -0.079400
      7 CBE        -5.2150    4.8780   -2.3640 c3        1 LMD     -0.079400
      8 CBD        -4.4250    3.7190   -2.9270 c3        1 LMD     -0.079400
      9 CBC        -4.8420    2.4160   -2.2220 c3        1 LMD     -0.079400
     10 CBB        -3.9100    1.2440   -2.7000 c3        1 LMD     -0.078400
     11 CBA        -4.0020    0.0640   -1.6910 c3        1 LMD     -0.079400
     12 CAZ        -2.9560   -1.0020   -2.0470 c3        1 LMD     -0.078400
     13 CAY        -2.6740   -1.8730   -0.8090 c3        1 LMD     -0.082400
     14 CAX        -1.3190   -2.6340   -1.0030 c3        1 LMD      0.136400
     15 OAS        -0.8400   -3.1130    0.2860 os        1 LMD     -0.422600
     16 CAM         0.5740   -3.2220    0.3660 c3        1 LMD      0.305900
     17 CAN         1.0300   -2.6950    1.7000 c3        1 LMD      0.088100
     18 OAT         0.7870   -1.2680    1.7420 oh        1 LMD     -0.601800
     19 CAO         2.4710   -2.9410    1.9380 c3        1 LMD      0.120100
     20 OAU         2.7960   -2.5740    3.3220 oh        1 LMD     -0.606800
     21 OAV         0.9500   -4.6200    0.1560 os        1 LMD     -0.448600
     22 CAQ         2.3660   -4.8710    0.3860 c3        1 LMD      0.108100
     23 CAR         2.6140   -6.3780    0.3240 c3        1 LMD      0.141400
     24 OAW         1.9910   -6.9170   -0.8580 oh        1 LMD     -0.595800
     25 CAP         2.8360   -4.3510    1.7260 c3        1 LMD      0.128100
     26 O1          4.2970   -4.4830    1.8050 os        1 LMD     -0.432600
     27 C1          4.7190   -4.2810    3.1340 c3        1 LMD      0.329900
     28 O5          5.0170   -5.5860    3.7450 os        1 LMD     -0.444600
     29 C5          6.2130   -6.2290    3.1700 c3        1 LMD      0.072100
     30 C6          6.5390   -7.4500    3.9720 c3        1 LMD      0.130400
     31 O6          6.5550   -7.1160    5.3660 oh        1 LMD     -0.603800
     32 C4          7.4160   -5.3160    3.1660 c3        1 LMD      0.085100
     33 O4          8.4780   -5.9520    2.4250 oh        1 LMD     -0.601800
     34 C3          7.1240   -3.9990    2.5460 c3        1 LMD      0.108100
     35 O3          8.2750   -3.1140    2.7420 oh        1 LMD     -0.610800
     36 C2          5.9180   -3.3560    3.1310 c3        1 LMD      0.133100
     37 O2          5.6010   -2.1870    2.3670 oh        1 LMD     -0.585800
     38 H1         -5.5360   13.2860   -2.6190 hc        1 LMD      0.032700
     39 H2         -6.7570   12.3160   -2.1640 hc        1 LMD      0.032700
     40 H3         -5.4600   12.4830   -1.2030 hc        1 LMD      0.032700
     41 H4         -4.1430   11.2710   -2.7210 hc        1 LMD      0.038700
     42 H5         -5.2740   11.2780   -3.8250 hc        1 LMD      0.038700
     43 H6         -5.4750    9.8750   -1.3390 hc        1 LMD      0.039700
     44 H7         -6.5880    9.8700   -2.4530 hc        1 LMD      0.039700
     45 H8         -3.9790    8.7720   -2.8600 hc        1 LMD      0.039700
     46 H9         -5.1500    8.7270   -3.9480 hc        1 LMD      0.039700
     47 H10        -6.4420    7.3060   -2.5350 hc        1 LMD      0.039700
     48 H11        -5.2960    7.3780   -1.4110 hc        1 LMD      0.039700
     49 H12        -3.7850    6.2910   -2.9210 hc        1 LMD      0.039700
     50 H13        -4.9720    6.1620   -4.0020 hc        1 LMD      0.039700
     51 H14        -5.0660    4.9360   -1.3890 hc        1 LMD      0.039700
     52 H15        -6.1570    4.7410   -2.5390 hc        1 LMD      0.039700
     53 H16        -4.5990    3.6420   -3.8810 hc        1 LMD      0.039700
     54 H17        -3.4780    3.8750   -2.7820 hc        1 LMD      0.039700
     55 H18        -5.7880    2.2030   -2.4510 hc        1 LMD      0.039700
     56 H19        -4.7570    2.5270   -1.2540 hc        1 LMD      0.039700
     57 H20        -4.1970    0.9400   -3.5870 hc        1 LMD      0.039700
     58 H21        -2.9740    1.5660   -2.7480 hc        1 LMD      0.039700
     59 H22        -3.8350    0.3920   -0.7950 hc        1 LMD      0.040200
     60 H23        -4.8900   -0.3280   -1.7320 hc        1 LMD      0.040200
     61 H24        -2.1200   -0.5610   -2.3370 hc        1 LMD      0.042700
     62 H25        -3.2990   -1.5680   -2.7770 hc        1 LMD      0.042700
     63 H26        -3.4080   -2.5290   -0.6930 hc        1 LMD      0.055200
     64 H27        -2.6180   -1.2990   -0.0090 hc        1 LMD      0.055200
     65 H28        -1.4580   -3.4140   -1.6180 h1        1 LMD      0.038200
     66 H29        -0.6450   -2.0170   -1.3970 h1        1 LMD      0.038200
     67 H30         0.9680   -2.6850   -0.3310 h2        1 LMD      0.056700
     68 H31         0.5070   -3.1310    2.4130 h1        1 LMD      0.077700
     69 H32         0.3120   -1.0730    2.4500 ho        1 LMD      0.423000
     70 H33         2.9920   -2.3830    1.3310 h1        1 LMD      0.079700
     71 H34         2.3860   -1.8130    3.5320 ho        1 LMD      0.426000
     72 H35         2.8780   -4.4390   -0.3130 h1        1 LMD      0.071700
     73 H36         3.6060   -6.5560    0.2940 h1        1 LMD      0.059200
     74 H37         2.2190   -6.8160    1.1400 h1        1 LMD      0.059200
     75 H38         2.0120   -7.7930   -0.8250 ho        1 LMD      0.412000
     76 H39         2.4240   -4.9020    2.4450 h1        1 LMD      0.078700
     77 H40         3.9820   -3.8490    3.6400 h2        1 LMD      0.127700
     78 H41         6.0140   -6.5010    2.2420 h1        1 LMD      0.073700
     79 H42         5.8700   -8.1300    3.8100 h1        1 LMD      0.058700
     80 H43         7.4340   -7.7960    3.7010 h1        1 LMD      0.058700
     81 H44         6.7930   -7.8510    5.8520 ho        1 LMD      0.416000
     82 H45         7.7130   -5.1750    4.0920 h1        1 LMD      0.068700
     83 H46         9.2520   -5.8970    2.8980 ho        1 LMD      0.417000
     84 H47         6.9800   -4.1250    1.5860 h1        1 LMD      0.076700
     85 H48         8.9020   -3.2950    2.1240 ho        1 LMD      0.428000
     86 H49         6.1150   -3.0900    4.0540 h1        1 LMD      0.060700
     87 H50         6.0820   -1.4810    2.6780 ho        1 LMD      0.425000
@<TRIPOS>BOND
     1    1    2 1   
     2    1   38 1   
     3    1   39 1   
     4    1   40 1   
     5    2    3 1   
     6    2   41 1   
     7    2   42 1   
     8    3    4 1   
     9    3   43 1   
    10    3   44 1   
    11    4    5 1   
    12    4   45 1   
    13    4   46 1   
    14    5    6 1   
    15    5   47 1   
    16    5   48 1   
    17    6    7 1   
    18    6   49 1   
    19    6   50 1   
    20    7    8 1   
    21    7   51 1   
    22    7   52 1   
    23    8    9 1   
    24    8   53 1   
    25    8   54 1   
    26    9   10 1   
    27    9   55 1   
    28    9   56 1   
    29   10   11 1   
    30   10   57 1   
    31   10   58 1   
    32   11   12 1   
    33   11   59 1   
    34   11   60 1   
    35   12   13 1   
    36   12   61 1   
    37   12   62 1   
    38   13   14 1   
    39   13   63 1   
    40   13   64 1   
    41   14   15 1   
    42   14   65 1   
    43   14   66 1   
    44   15   16 1   
    45   16   17 1   
    46   16   21 1   
    47   16   67 1   
    48   17   18 1   
    49   17   19 1   
    50   17   68 1   
    51   18   69 1   
    52   19   20 1   
    53   19   25 1   
    54   19   70 1   
    55   20   71 1   
    56   21   22 1   
    57   22   23 1   
    58   22   25 1   
    59   22   72 1   
    60   23   24 1   
    61   23   73 1   
    62   23   74 1   
    63   24   75 1   
    64   25   26 1   
    65   25   76 1   
    66   26   27 1   
    67   27   28 1   
    68   27   36 1   
    69   27   77 1   
    70   28   29 1   
    71   29   30 1   
    72   29   32 1   
    73   29   78 1   
    74   30   31 1   
    75   30   79 1   
    76   30   80 1   
    77   31   81 1   
    78   32   33 1   
    79   32   34 1   
    80   32   82 1   
    81   33   83 1   
    82   34   35 1   
    83   34   36 1   
    84   34   84 1   
    85   35   85 1   
    86   36   37 1   
    87   36   86 1   
    88   37   87 1   
@<TRIPOS>SUBSTRUCTURE
     1 LMD         1 TEMP              0 ****  ****    0 ROOT
