@<TRIPOS>MOLECULE
LMD
   87    88     1     0     0
SMALL
bcc


@<TRIPOS>ATOM
      1 CBK         0.0190   -0.0320    0.0920 c3        1 LMD     -0.092100
      2 CBJ         1.5240    0.0360    0.0980 c3        1 LMD     -0.080400
      3 CBI         2.0780   -0.0360    1.5050 c3        1 LMD     -0.079400
      4 CBH         3.5900    0.0330    1.5060 c3        1 LMD     -0.079400
      5 CBG         4.1430   -0.0390    2.9130 c3        1 LMD     -0.079400
      6 CBF         5.6540    0.0310    2.9140 c3        1 LMD     -0.079400
      7 CBE         6.2070   -0.0430    4.3220 c3        1 LMD     -0.079400
      8 CBD         7.7190    0.0290    4.3230 c3        1 LMD     -0.079400
      9 CBC         8.2720   -0.0450    5.7300 c3        1 LMD     -0.079400
     10 CBB         9.7840    0.0280    5.7310 c3        1 LMD     -0.079400
     11 CBA        10.3350   -0.0460    7.1380 c3        1 LMD     -0.078400
     12 CAZ        11.8470    0.0290    7.1390 c3        1 LMD     -0.078400
     13 CAY        12.3950   -0.0460    8.5470 c3        1 LMD     -0.084400
     14 CAX        13.9100    0.0340    8.5280 c3        1 LMD      0.136400
     15 OAS        14.3330   -0.0460    9.8950 os        1 LMD     -0.423600
     16 CAM        15.7300    0.0360   10.0590 c3        1 LMD      0.307900
     17 CAN        16.0040    0.0770   11.5730 c3        1 LMD      0.086100
     18 OAT        15.6760    1.3490   12.1030 oh        1 LMD     -0.604800
     19 CAO        17.5040   -0.1340   11.8450 c3        1 LMD      0.121100
     20 OAU        17.6960   -0.3240   13.2380 oh        1 LMD     -0.605800
     21 OAV        16.1950   -1.1860    9.4990 os        1 LMD     -0.446600
     22 CAQ        17.6050   -1.3510    9.6400 c3        1 LMD      0.107100
     23 CAR        17.9380   -2.6630    8.9220 c3        1 LMD      0.140400
     24 OAW        17.5050   -2.6290    7.5800 oh        1 LMD     -0.594800
     25 CAP        18.0050   -1.4010   11.1280 c3        1 LMD      0.126100
     26 O1         19.4330   -1.4440   11.1200 os        1 LMD     -0.431600
     27 C1         20.0260   -1.8630   12.3350 c3        1 LMD      0.336900
     28 O5         19.8440   -3.2620   12.4200 os        1 LMD     -0.449600
     29 C5         20.4850   -4.0430   11.4070 c3        1 LMD      0.102100
     30 C6         20.2120   -5.5030   11.7780 c3        1 LMD      0.140400
     31 O6         18.8330   -5.7940   11.7250 oh        1 LMD     -0.595800
     32 C4         21.9940   -3.7600   11.3630 c3        1 LMD      0.126100
     33 O4         22.5280   -4.5000   10.2800 oh        1 LMD     -0.592800
     34 C3         22.2130   -2.2520   11.1540 c3        1 LMD      0.066100
     35 O3         23.6150   -2.0280   11.1850 oh        1 LMD     -0.607800
     36 C2         21.5220   -1.4930   12.2940 c3        1 LMD      0.098100
     37 O2         21.6230   -0.0940   12.1100 oh        1 LMD     -0.576800
     38 H1         -0.4170    0.8160    0.6740 hc        1 LMD      0.032700
     39 H2         -0.3680    0.0230   -0.9540 hc        1 LMD      0.032700
     40 H3         -0.3350   -0.9870    0.5500 hc        1 LMD      0.032700
     41 H4          1.8600    0.9900   -0.3870 hc        1 LMD      0.038700
     42 H5          1.9420   -0.8080   -0.5110 hc        1 LMD      0.038700
     43 H6          1.7440   -0.9900    1.9910 hc        1 LMD      0.039700
     44 H7          1.6620    0.8090    2.1160 hc        1 LMD      0.039700
     45 H8          3.9230    0.9880    1.0200 hc        1 LMD      0.039700
     46 H9          4.0050   -0.8110    0.8950 hc        1 LMD      0.039700
     47 H10         3.7270    0.8050    3.5250 hc        1 LMD      0.039700
     48 H11         3.8100   -0.9940    3.4000 hc        1 LMD      0.039700
     49 H12         6.0700   -0.8130    2.3030 hc        1 LMD      0.039700
     50 H13         5.9870    0.9860    2.4290 hc        1 LMD      0.039700
     51 H14         5.7900    0.8000    4.9340 hc        1 LMD      0.039700
     52 H15         5.8750   -0.9980    4.8070 hc        1 LMD      0.039700
     53 H16         8.1360   -0.8140    3.7110 hc        1 LMD      0.039700
     54 H17         8.0510    0.9850    3.8380 hc        1 LMD      0.039700
     55 H18         7.8540    0.7970    6.3430 hc        1 LMD      0.040200
     56 H19         7.9410   -1.0020    6.2140 hc        1 LMD      0.040200
     57 H20        10.1140    0.9850    5.2470 hc        1 LMD      0.040200
     58 H21        10.2010   -0.8140    5.1180 hc        1 LMD      0.040200
     59 H22        10.0070   -1.0040    7.6220 hc        1 LMD      0.041700
     60 H23         9.9170    0.7950    7.7520 hc        1 LMD      0.041700
     61 H24        12.2660   -0.8120    6.5250 hc        1 LMD      0.042200
     62 H25        12.1760    0.9870    6.6560 hc        1 LMD      0.042200
     63 H26        11.9840    0.7920    9.1680 hc        1 LMD      0.055200
     64 H27        12.0800   -1.0050    9.0350 hc        1 LMD      0.055200
     65 H28        14.3570   -0.8190    7.9520 h1        1 LMD      0.038700
     66 H29        14.2620    1.0050    8.0880 h1        1 LMD      0.038700
     67 H30        16.1730    0.9190    9.5210 h2        1 LMD      0.055700
     68 H31        15.4030   -0.7250   12.0850 h1        1 LMD      0.078700
     69 H32        14.7310    1.4740   11.9480 ho        1 LMD      0.424000
     70 H33        18.0900    0.7620   11.4990 h1        1 LMD      0.070700
     71 H34        17.3570    0.4710   13.6720 ho        1 LMD      0.425000
     72 H35        18.1340   -0.4930    9.1380 h1        1 LMD      0.066700
     73 H36        17.4770   -3.5300    9.4650 h1        1 LMD      0.063700
     74 H37        19.0540   -2.7810    8.8710 h1        1 LMD      0.063700
     75 H38        16.5470   -2.5100    7.5930 ho        1 LMD      0.411000
     76 H39        17.5930   -2.3170   11.6310 h1        1 LMD      0.082700
     77 H40        19.5140   -1.4420   13.2450 h2        1 LMD      0.126700
     78 H41        20.0220   -3.7990   10.4110 h1        1 LMD      0.076700
     79 H42        20.6920   -6.1710   11.0140 h1        1 LMD      0.062200
     80 H43        20.6200   -5.7220   12.8000 h1        1 LMD      0.062200
     81 H44        18.3950   -5.2030   12.3520 ho        1 LMD      0.410000
     82 H45        22.4860   -4.0830   12.3230 h1        1 LMD      0.057700
     83 H46        23.4540   -4.2320   10.2010 ho        1 LMD      0.422000
     84 H47        21.7800   -1.9320   10.1660 h1        1 LMD      0.081700
     85 H48        23.7700   -1.1860   10.7420 ho        1 LMD      0.411000
     86 H49        21.9780   -1.7920   13.2800 h1        1 LMD      0.062700
     87 H50        22.5440    0.1340   12.2940 ho        1 LMD      0.404000
@<TRIPOS>BOND
     1    1    2 1   
     2    1   38 1   
     3    1   39 1   
     4    1   40 1   
     5    2    3 1   
     6    2   41 1   
     7    2   42 1   
     8    3    4 1   
     9    3   43 1   
    10    3   44 1   
    11    4    5 1   
    12    4   45 1   
    13    4   46 1   
    14    5    6 1   
    15    5   47 1   
    16    5   48 1   
    17    6    7 1   
    18    6   49 1   
    19    6   50 1   
    20    7    8 1   
    21    7   51 1   
    22    7   52 1   
    23    8    9 1   
    24    8   53 1   
    25    8   54 1   
    26    9   10 1   
    27    9   55 1   
    28    9   56 1   
    29   10   11 1   
    30   10   57 1   
    31   10   58 1   
    32   11   12 1   
    33   11   59 1   
    34   11   60 1   
    35   12   13 1   
    36   12   61 1   
    37   12   62 1   
    38   13   14 1   
    39   13   63 1   
    40   13   64 1   
    41   14   15 1   
    42   14   65 1   
    43   14   66 1   
    44   15   16 1   
    45   16   17 1   
    46   16   21 1   
    47   16   67 1   
    48   17   18 1   
    49   17   19 1   
    50   17   68 1   
    51   18   69 1   
    52   19   20 1   
    53   19   25 1   
    54   19   70 1   
    55   20   71 1   
    56   21   22 1   
    57   22   23 1   
    58   22   25 1   
    59   22   72 1   
    60   23   24 1   
    61   23   73 1   
    62   23   74 1   
    63   24   75 1   
    64   25   26 1   
    65   25   76 1   
    66   26   27 1   
    67   27   28 1   
    68   27   36 1   
    69   27   77 1   
    70   28   29 1   
    71   29   30 1   
    72   29   32 1   
    73   29   78 1   
    74   30   31 1   
    75   30   79 1   
    76   30   80 1   
    77   31   81 1   
    78   32   33 1   
    79   32   34 1   
    80   32   82 1   
    81   33   83 1   
    82   34   35 1   
    83   34   36 1   
    84   34   84 1   
    85   35   85 1   
    86   36   37 1   
    87   36   86 1   
    88   37   87 1   
@<TRIPOS>SUBSTRUCTURE
     1 LMD         1 TEMP              0 ****  ****    0 ROOT
