@<TRIPOS>MOLECULE
LME
   20    19     1     0     0
SMALL
bcc


@<TRIPOS>ATOM
      1 N           1.2710    1.9770    0.1100 n3        1 LME     -0.908800
      2 CA          1.1360    0.5830    0.5090 c3        1 LME      0.037500
      3 CB         -0.1320   -0.1350   -0.0110 c3        1 LME     -0.055700
      4 C1         -0.1610   -0.1800   -1.5230 c3        1 LME     -0.086100
      5 CG         -1.3980    0.5040    0.5380 c3        1 LME     -0.175400
      6 CD         -2.6760   -0.3000    0.2650 c         1 LME      0.904600
      7 OE1        -3.1710   -0.9960    1.2040 o         1 LME     -0.876300
      8 OE2        -3.2410   -0.2040   -0.8680 o         1 LME     -0.876300
      9 C           2.3960   -0.2630    0.1430 c         1 LME      0.907600
     10 O           3.0520    0.0280   -0.9040 o         1 LME     -0.865800
     11 H2          1.9960    2.0410   -0.5860 hn        1 LME      0.326800
     12 H           0.4200    2.2860   -0.3230 hn        1 LME      0.326800
     13 HA          1.0670    0.5900    1.6380 h1        1 LME      0.038700
     14 HB         -0.0720   -1.1900    0.3770 hc        1 LME      0.061700
     15 H11        -0.2490    0.8470   -1.9550 hc        1 LME      0.026367
     16 H12         0.7790   -0.6450   -1.9090 hc        1 LME      0.026367
     17 H13        -1.0510   -0.7670   -1.8610 hc        1 LME      0.026367
     18 HG2        -1.2900    0.6270    1.6460 hc        1 LME      0.013700
     19 HG3        -1.5380    1.5210    0.0880 hc        1 LME      0.013700
     20 OXT         2.7300   -1.1990    0.9240 o         1 LME     -0.865800
@<TRIPOS>BOND
     1    1    2 1   
     2    1   11 1   
     3    1   12 1   
     4    2    3 1   
     5    2    9 1   
     6    2   13 1   
     7    3    4 1   
     8    3    5 1   
     9    3   14 1   
    10    4   15 1   
    11    4   16 1   
    12    4   17 1   
    13    5    6 1   
    14    5   18 1   
    15    5   19 1   
    16    6    7 1   
    17    6    8 1   
    18    9   10 1   
    19    9   20 1   
@<TRIPOS>SUBSTRUCTURE
     1 LME         1 TEMP              0 ****  ****    0 ROOT
