@<TRIPOS>MOLECULE
LMF
   30    29     1     0     0
SMALL
bcc


@<TRIPOS>ATOM
      1 N          -3.7860   -1.7080    0.6700 n3        1 LMF     -0.891800
      2 CA         -3.6520   -0.4790   -0.1020 c3        1 LMF      0.018500
      3 C          -4.8820    0.4860   -0.0040 c         1 LMF      0.887600
      4 O          -5.8820    0.1090    0.6710 o         1 LMF     -0.843800
      5 CB         -2.3960    0.3200    0.2450 c3        1 LMF     -0.064400
      6 CG         -1.1230   -0.4080   -0.1300 c3        1 LMF     -0.072400
      7 CD          0.0810    0.4920    0.0660 c3        1 LMF     -0.100400
      8 CE          1.3580   -0.2300   -0.3580 c3        1 LMF      0.072000
      9 NZ          2.5190    0.6340   -0.3580 n         1 LMF     -0.507900
     10 C1          3.7560    0.1950    0.0660 c         1 LMF      0.578400
     11 S           4.0790   -1.3870    0.3120 s         1 LMF     -0.626400
     12 N1          4.7340    1.1680    0.2700 n         1 LMF     -0.535900
     13 CM          6.1090    0.8190    0.4490 c3        1 LMF      0.067300
     14 OXT        -4.8110    1.5840   -0.6240 o         1 LMF     -0.843800
     15 H          -3.7000   -1.4820    1.6450 hn        1 LMF      0.330800
     16 H2         -4.7300   -2.0370    0.5410 hn        1 LMF      0.330800
     17 HA         -3.5840   -0.7900   -1.1850 h1        1 LMF      0.040700
     18 HB1        -2.3830    0.5630    1.3390 hc        1 LMF      0.046700
     19 HB2        -2.4630    1.2920   -0.3150 hc        1 LMF      0.046700
     20 HG1        -1.1790   -0.7340   -1.2020 hc        1 LMF      0.043700
     21 HG2        -1.0110   -1.3330    0.4920 hc        1 LMF      0.043700
     22 HD1         0.1510    0.7950    1.1430 hc        1 LMF      0.039700
     23 HD2        -0.0600    1.4280   -0.5380 hc        1 LMF      0.039700
     24 HE1         1.2330   -0.6280   -1.4060 h1        1 LMF      0.075700
     25 HE2         1.5450   -1.1150    0.3220 h1        1 LMF      0.075700
     26 HZ          2.3230    1.6110   -0.3960 hn        1 LMF      0.298500
     27 HN1         4.5590    2.1080   -0.0030 hn        1 LMF      0.294500
     28 HM1         6.5550    1.5110    1.2120 h1        1 LMF      0.052033
     29 HM2         6.1960   -0.2450    0.8100 h1        1 LMF      0.052033
     30 HM3         6.6810    0.9220   -0.5130 h1        1 LMF      0.052033
@<TRIPOS>BOND
     1    1    2 1   
     2    1   15 1   
     3    1   16 1   
     4    2    3 1   
     5    2    5 1   
     6    2   17 1   
     7    3    4 1   
     8    3   14 1   
     9    5    6 1   
    10    5   18 1   
    11    5   19 1   
    12    6    7 1   
    13    6   20 1   
    14    6   21 1   
    15    7    8 1   
    16    7   22 1   
    17    7   23 1   
    18    8    9 1   
    19    8   24 1   
    20    8   25 1   
    21    9   10 1   
    22    9   26 1   
    23   10   11 2   
    24   10   12 1   
    25   12   13 1   
    26   12   27 1   
    27   13   28 1   
    28   13   29 1   
    29   13   30 1   
@<TRIPOS>SUBSTRUCTURE
     1 LMF         1 TEMP              0 ****  ****    0 ROOT
