@<TRIPOS>MOLECULE
LMG
  141   141     1     0     0
SMALL
bcc


@<TRIPOS>ATOM
      1 C1         -3.0960   -1.0210    0.7620 c3        1 LMG      0.304900
      2 O1         -2.6240    0.0110   -0.0770 os        1 LMG     -0.409600
      3 C2         -1.9710   -2.0700    0.8540 c3        1 LMG      0.086100
      4 O2         -1.8680   -2.8070   -0.3490 oh        1 LMG     -0.605800
      5 C3         -2.3070   -3.0730    1.9680 c3        1 LMG      0.111100
      6 O3         -1.2180   -3.9500    2.1990 oh        1 LMG     -0.608800
      7 C4         -2.5520   -2.3210    3.2890 c3        1 LMG      0.120100
      8 O4         -1.3660   -1.6980    3.7520 oh        1 LMG     -0.600800
      9 C5         -3.6180   -1.2360    3.0760 c3        1 LMG      0.110100
     10 C6         -3.7620   -0.3410    4.3140 c3        1 LMG      0.144400
     11 O6         -3.2780   -0.3550    2.0060 os        1 LMG     -0.440600
     12 C7         -3.6180    0.9980   -0.3740 c3        1 LMG      0.102400
     13 C8         -2.9400    2.1570   -1.1020 c3        1 LMG      0.129100
     14 C9         -2.2690    3.1790   -0.1810 c3        1 LMG      0.134400
     15 O7         -1.9180    1.6960   -1.9980 os        1 LMG     -0.418900
     16 C10        -2.3160    1.1560   -3.1910 c         1 LMG      0.634100
     17 O9         -3.5220    1.0950   -3.4390 o         1 LMG     -0.550000
     18 C11        -1.1580    0.7020   -4.0240 c3        1 LMG     -0.126400
     19 C12        -1.3820    1.0250   -5.4870 c3        1 LMG     -0.079400
     20 C13        -0.2780    0.4400   -6.3400 c3        1 LMG     -0.078400
     21 C14        -0.4840    0.7760   -7.8020 c3        1 LMG     -0.079400
     22 C15         0.6160    0.1890   -8.6600 c3        1 LMG     -0.079400
     23 C16         0.4110    0.5250  -10.1210 c3        1 LMG     -0.079400
     24 C17         1.5100   -0.0620  -10.9800 c3        1 LMG     -0.079400
     25 C18         1.3050    0.2750  -12.4410 c3        1 LMG     -0.079400
     26 C19         2.4050   -0.3130  -13.3000 c3        1 LMG     -0.079400
     27 C20         2.2000    0.0240  -14.7610 c3        1 LMG     -0.079400
     28 C21         3.2990   -0.5630  -15.6200 c3        1 LMG     -0.079400
     29 C22         3.0940   -0.2270  -17.0810 c3        1 LMG     -0.079400
     30 C23         4.1940   -0.8140  -17.9400 c3        1 LMG     -0.079400
     31 C24         3.9890   -0.4770  -19.4010 c3        1 LMG     -0.079400
     32 C25         5.0880   -1.0640  -20.2600 c3        1 LMG     -0.079400
     33 C26         4.8840   -0.7290  -21.7220 c3        1 LMG     -0.080400
     34 C27         5.9770   -1.3110  -22.5810 c3        1 LMG     -0.092100
     35 O8         -1.3820    2.5790    0.7570 os        1 LMG     -0.419900
     36 C28        -1.8410    2.3240    2.0230 c         1 LMG      0.656100
     37 O10        -2.9840    2.6840    2.3190 o         1 LMG     -0.573000
     38 C29        -0.8350    1.6000    2.8600 c3        1 LMG     -0.136400
     39 C30        -0.8260    2.1160    4.2840 c3        1 LMG     -0.076400
     40 C31        -0.0280    1.1890    5.1760 c3        1 LMG     -0.084400
     41 C32        -0.0410    1.6680    6.6110 c3        1 LMG     -0.078400
     42 C33         0.7630    0.7480    7.5040 c3        1 LMG     -0.078400
     43 C34         0.7480    1.2250    8.9400 c3        1 LMG     -0.079400
     44 C35         1.5530    0.3050    9.8330 c3        1 LMG     -0.078400
     45 C36         1.5370    0.7820   11.2700 c3        1 LMG     -0.079400
     46 C37         2.3420   -0.1370   12.1630 c3        1 LMG     -0.078400
     47 C38         2.3270    0.3400   13.6000 c3        1 LMG     -0.079400
     48 C39         3.1320   -0.5790   14.4930 c3        1 LMG     -0.079400
     49 C40         3.1170   -0.1020   15.9290 c3        1 LMG     -0.079400
     50 C41         3.9220   -1.0210   16.8220 c3        1 LMG     -0.078400
     51 C42         3.9070   -0.5440   18.2590 c3        1 LMG     -0.079400
     52 C43         4.7120   -1.4630   19.1520 c3        1 LMG     -0.079400
     53 C44         4.6970   -0.9870   20.5890 c3        1 LMG     -0.080400
     54 C45         5.4980   -1.8980   21.4820 c3        1 LMG     -0.092100
     55 HC1        -4.0640   -1.4630    0.3980 h2        1 LMG      0.055700
     56 HC2        -0.9970   -1.5540    1.0850 h1        1 LMG      0.081700
     57 HO2        -1.6800   -2.1660   -1.0480 ho        1 LMG      0.426000
     58 HC3        -3.2190   -3.6680    1.6830 h1        1 LMG      0.060700
     59 HO3        -0.9740   -4.3210    1.3400 ho        1 LMG      0.431000
     60 HC4        -2.9120   -3.0530    4.0660 h1        1 LMG      0.060700
     61 HO4        -0.6740   -2.3740    3.7420 ho        1 LMG      0.426000
     62 HC5        -4.5980   -1.7370    2.8360 h1        1 LMG      0.055700
     63 HO5        -4.3270    1.2840    3.4350 ho        1 LMG      0.433000
     64 HC61       -4.1670   -0.9500    5.1650 h1        1 LMG      0.061200
     65 HC62       -2.7580    0.0860    4.5840 h1        1 LMG      0.061200
     66 HC71       -4.0850    1.3730    0.5750 h1        1 LMG      0.066700
     67 HC72       -4.3920    0.5320   -1.0420 h1        1 LMG      0.066700
     68 HC8        -3.7360    2.6930   -1.6990 h1        1 LMG      0.077700
     69 HC91       -3.0660    3.7740    0.3400 h1        1 LMG      0.078200
     70 HC92       -1.6000    3.8490   -0.7880 h1        1 LMG      0.078200
     71 H111       -0.2140    1.1820   -3.6530 hc        1 LMG      0.078700
     72 H112       -1.0590   -0.4080   -3.8800 hc        1 LMG      0.078700
     73 H121       -2.3760    0.6170   -5.8110 hc        1 LMG      0.057700
     74 H122       -1.4190    2.1370   -5.6250 hc        1 LMG      0.057700
     75 H131        0.7150    0.8380   -5.9990 hc        1 LMG      0.041700
     76 H132       -0.2500   -0.6740   -6.2110 hc        1 LMG      0.041700
     77 H141       -1.4780    0.3820   -8.1420 hc        1 LMG      0.042700
     78 H142       -0.5090    1.8900   -7.9320 hc        1 LMG      0.042700
     79 H151        1.6100    0.5820   -8.3190 hc        1 LMG      0.039700
     80 H152        0.6400   -0.9250   -8.5300 hc        1 LMG      0.039700
     81 H161       -0.5830    0.1320  -10.4620 hc        1 LMG      0.040700
     82 H162        0.3870    1.6390  -10.2510 hc        1 LMG      0.040700
     83 H171        2.5040    0.3310  -10.6390 hc        1 LMG      0.039700
     84 H172        1.5340   -1.1760  -10.8500 hc        1 LMG      0.039700
     85 H181        0.3110   -0.1190  -12.7820 hc        1 LMG      0.039700
     86 H182        1.2810    1.3890  -12.5710 hc        1 LMG      0.039700
     87 H191        3.3990    0.0810  -12.9590 hc        1 LMG      0.039700
     88 H192        2.4290   -1.4270  -13.1700 hc        1 LMG      0.039700
     89 H201        1.2060   -0.3700  -15.1020 hc        1 LMG      0.039700
     90 H202        2.1760    1.1380  -14.8910 hc        1 LMG      0.039700
     91 H211        4.2930   -0.1700  -15.2790 hc        1 LMG      0.039700
     92 H212        3.3230   -1.6770  -15.4900 hc        1 LMG      0.039700
     93 H221        2.1000   -0.6200  -17.4220 hc        1 LMG      0.039700
     94 H222        3.0700    0.8870  -17.2110 hc        1 LMG      0.039700
     95 H231        5.1880   -0.4200  -17.5990 hc        1 LMG      0.039700
     96 H232        4.2180   -1.9280  -17.8100 hc        1 LMG      0.039700
     97 H241        2.9950   -0.8710  -19.7420 hc        1 LMG      0.039700
     98 H242        3.9650    0.6370  -19.5310 hc        1 LMG      0.039700
     99 H251        6.0820   -0.6700  -19.9200 hc        1 LMG      0.039700
    100 H252        5.1130   -2.1780  -20.1310 hc        1 LMG      0.039700
    101 H261        3.8890   -1.1220  -22.0600 hc        1 LMG      0.038700
    102 H262        4.8590    0.3860  -21.8490 hc        1 LMG      0.038700
    103 H271        5.8070   -1.0520  -23.6540 hc        1 LMG      0.032700
    104 H272        6.9740   -0.9120  -22.2750 hc        1 LMG      0.032700
    105 H273        6.0020   -2.4240  -22.4860 hc        1 LMG      0.032700
    106 H291        0.1820    1.6880    2.3980 hc        1 LMG      0.094200
    107 H292       -1.1350    0.5100    2.8420 hc        1 LMG      0.094200
    108 H301       -1.8820    2.1940    4.6590 hc        1 LMG      0.052700
    109 H302       -0.3850    3.1470    4.3130 hc        1 LMG      0.052700
    110 H311        1.0300    1.1300    4.8070 hc        1 LMG      0.048200
    111 H312       -0.4580    0.1510    5.1160 hc        1 LMG      0.048200
    112 H321       -1.0990    1.7200    6.9800 hc        1 LMG      0.041200
    113 H322        0.3790    2.7070    6.6650 hc        1 LMG      0.041200
    114 H331        1.8220    0.6980    7.1360 hc        1 LMG      0.039200
    115 H332        0.3440   -0.2910    7.4480 hc        1 LMG      0.039200
    116 H341       -0.3110    1.2740    9.3090 hc        1 LMG      0.040200
    117 H342        1.1660    2.2640    8.9960 hc        1 LMG      0.040200
    118 H351        2.6120    0.2560    9.4650 hc        1 LMG      0.039200
    119 H352        1.1350   -0.7340    9.7780 hc        1 LMG      0.039200
    120 H361        0.4780    0.8320   11.6380 hc        1 LMG      0.039700
    121 H362        1.9550    1.8220   11.3260 hc        1 LMG      0.039700
    122 H371        3.4010   -0.1870   11.7950 hc        1 LMG      0.039700
    123 H372        1.9250   -1.1770   12.1070 hc        1 LMG      0.039700
    124 H381        1.2680    0.3900   13.9680 hc        1 LMG      0.039700
    125 H382        2.7450    1.3800   13.6550 hc        1 LMG      0.039700
    126 H391        4.1910   -0.6290   14.1240 hc        1 LMG      0.039700
    127 H392        2.7140   -1.6190   14.4370 hc        1 LMG      0.039700
    128 H401        2.0580   -0.0520   16.2970 hc        1 LMG      0.039700
    129 H402        3.5340    0.9380   15.9850 hc        1 LMG      0.039700
    130 H411        4.9810   -1.0700   16.4540 hc        1 LMG      0.039700
    131 H412        3.5040   -2.0610   16.7670 hc        1 LMG      0.039700
    132 H421        2.8480   -0.4940   18.6270 hc        1 LMG      0.039700
    133 H422        4.3240    0.4960   18.3140 hc        1 LMG      0.039700
    134 H431        5.7710   -1.5120   18.7840 hc        1 LMG      0.039700
    135 H432        4.2950   -2.5020   19.0970 hc        1 LMG      0.039700
    136 H441        3.6380   -0.9360   20.9550 hc        1 LMG      0.038700
    137 H442        5.1140    0.0540   20.6420 hc        1 LMG      0.038700
    138 H451        5.4740   -1.5300   22.5360 hc        1 LMG      0.032700
    139 H452        5.0830   -2.9350   21.4620 hc        1 LMG      0.032700
    140 H453        6.5630   -1.9420   21.1480 hc        1 LMG      0.032700
    141 O5         -4.7050    0.6800    4.0940 oh        1 LMG     -0.602800
@<TRIPOS>BOND
     1    1    2 1   
     2    1    3 1   
     3    1   11 1   
     4    1   55 1   
     5    2   12 1   
     6    3    4 1   
     7    3    5 1   
     8    3   56 1   
     9    4   57 1   
    10    5    6 1   
    11    5    7 1   
    12    5   58 1   
    13    6   59 1   
    14    7    8 1   
    15    7    9 1   
    16    7   60 1   
    17    8   61 1   
    18    9   10 1   
    19    9   11 1   
    20    9   62 1   
    21   10   64 1   
    22   10   65 1   
    23   10  141 1   
    24   12   13 1   
    25   12   66 1   
    26   12   67 1   
    27   13   14 1   
    28   13   15 1   
    29   13   68 1   
    30   14   35 1   
    31   14   69 1   
    32   14   70 1   
    33   15   16 1   
    34   16   17 2   
    35   16   18 1   
    36   18   19 1   
    37   18   71 1   
    38   18   72 1   
    39   19   20 1   
    40   19   73 1   
    41   19   74 1   
    42   20   21 1   
    43   20   75 1   
    44   20   76 1   
    45   21   22 1   
    46   21   77 1   
    47   21   78 1   
    48   22   23 1   
    49   22   79 1   
    50   22   80 1   
    51   23   24 1   
    52   23   81 1   
    53   23   82 1   
    54   24   25 1   
    55   24   83 1   
    56   24   84 1   
    57   25   26 1   
    58   25   85 1   
    59   25   86 1   
    60   26   27 1   
    61   26   87 1   
    62   26   88 1   
    63   27   28 1   
    64   27   89 1   
    65   27   90 1   
    66   28   29 1   
    67   28   91 1   
    68   28   92 1   
    69   29   30 1   
    70   29   93 1   
    71   29   94 1   
    72   30   31 1   
    73   30   95 1   
    74   30   96 1   
    75   31   32 1   
    76   31   97 1   
    77   31   98 1   
    78   32   33 1   
    79   32   99 1   
    80   32  100 1   
    81   33   34 1   
    82   33  101 1   
    83   33  102 1   
    84   34  103 1   
    85   34  104 1   
    86   34  105 1   
    87   35   36 1   
    88   36   37 2   
    89   36   38 1   
    90   38   39 1   
    91   38  106 1   
    92   38  107 1   
    93   39   40 1   
    94   39  108 1   
    95   39  109 1   
    96   40   41 1   
    97   40  110 1   
    98   40  111 1   
    99   41   42 1   
   100   41  112 1   
   101   41  113 1   
   102   42   43 1   
   103   42  114 1   
   104   42  115 1   
   105   43   44 1   
   106   43  116 1   
   107   43  117 1   
   108   44   45 1   
   109   44  118 1   
   110   44  119 1   
   111   45   46 1   
   112   45  120 1   
   113   45  121 1   
   114   46   47 1   
   115   46  122 1   
   116   46  123 1   
   117   47   48 1   
   118   47  124 1   
   119   47  125 1   
   120   48   49 1   
   121   48  126 1   
   122   48  127 1   
   123   49   50 1   
   124   49  128 1   
   125   49  129 1   
   126   50   51 1   
   127   50  130 1   
   128   50  131 1   
   129   51   52 1   
   130   51  132 1   
   131   51  133 1   
   132   52   53 1   
   133   52  134 1   
   134   52  135 1   
   135   53   54 1   
   136   53  136 1   
   137   53  137 1   
   138   54  138 1   
   139   54  139 1   
   140   54  140 1   
   141   63  141 1   
@<TRIPOS>SUBSTRUCTURE
     1 LMG         1 TEMP              0 ****  ****    0 ROOT
