@<TRIPOS>MOLECULE
LML
   21    20     1     0     0
SMALL
bcc


@<TRIPOS>ATOM
      1 C1         -0.0470   -0.0480    0.0680 c         1 LML      0.928100
      2 O1          1.2200   -0.1700    0.0770 o         1 LML     -0.889050
      3 OXT        -0.7280   -0.2600    1.1200 o         1 LML     -0.889050
      4 CA         -0.7830    0.2290   -1.2530 c3        1 LML     -0.258700
      5 CB          0.1330   -0.0640   -2.4310 c3        1 LML     -0.038400
      6 CG         -0.6290   -0.1900   -3.7470 c3        1 LML     -0.089700
      7 CD1         0.2740    0.1220   -4.9220 c3        1 LML     -0.073100
      8 CD2        -1.2290   -1.5700   -3.9050 c3        1 LML     -0.073100
      9 C          -1.3750    1.6400   -1.4280 c         1 LML      0.928100
     10 O          -0.6520    2.6780   -1.3530 o         1 LML     -0.889050
     11 O2         -2.6070    1.7230   -1.7480 o         1 LML     -0.889050
     12 HA         -1.6530   -0.4870   -1.2760 hc        1 LML      0.022700
     13 HB1         0.7110   -1.0050   -2.2370 hc        1 LML      0.034700
     14 HB2         0.8740    0.7750   -2.5010 hc        1 LML      0.034700
     15 HG         -1.4690    0.5670   -3.7190 hc        1 LML      0.092700
     16 HD11        0.6530    1.1690   -4.8450 hc        1 LML      0.008200
     17 HD12        1.1500   -0.5700   -4.9410 hc        1 LML      0.008200
     18 HD13       -0.2790    0.0140   -5.8880 hc        1 LML      0.008200
     19 HD21       -1.8390   -1.6330   -4.8390 hc        1 LML      0.008200
     20 HD22       -0.4280   -2.3480   -3.9580 hc        1 LML      0.008200
     21 HD23       -1.8860   -1.7960   -3.0300 hc        1 LML      0.008200
@<TRIPOS>BOND
     1    1    2 1   
     2    1    3 1   
     3    1    4 1   
     4    4    5 1   
     5    4    9 1   
     6    4   12 1   
     7    5    6 1   
     8    5   13 1   
     9    5   14 1   
    10    6    7 1   
    11    6    8 1   
    12    6   15 1   
    13    7   16 1   
    14    7   17 1   
    15    7   18 1   
    16    8   19 1   
    17    8   20 1   
    18    8   21 1   
    19    9   10 1   
    20    9   11 1   
@<TRIPOS>SUBSTRUCTURE
     1 LML         1 TEMP              0 ****  ****    0 ROOT
