@<TRIPOS>MOLECULE
LML
   21    19     1     0     0
SMALL
bcc


@<TRIPOS>ATOM
      1 C1          0.9920    1.3020    1.9160 c1        1 LML      0.346000
      2 O1          0.3190    1.2510    2.9790 o         1 LML     -0.645000
      3 OXT         2.2480    1.3780    1.9690 os        1 LML     -0.600000
      4 CA          0.2900    1.3030    0.5760 c3        1 LML     -0.198000
      5 CB          0.5650   -0.0030   -0.1390 c3        1 LML     -0.117000
      6 CG         -0.7130   -0.8100   -0.2270 c3        1 LML     -0.129000
      7 CD1        -0.4780   -2.1910    0.3440 c3        1 LML     -0.191000
      8 CD2        -1.1370   -0.9280   -1.6740 c3        1 LML     -0.191000
      9 C           0.8030    2.4540   -0.2610 c2        1 LML      0.349000
     10 O           2.0210    2.5120   -0.5740 o         1 LML     -0.625000
     11 O2          0.0080    3.3450   -0.6610 o         1 LML     -0.625000
     12 HA         -0.6710    1.4030    0.7120 hc        1 LML      0.062000
     13 HB1         1.2380   -0.5110    0.3570 hc        1 LML      0.074000
     14 HB2         0.8960    0.1830   -1.0410 hc        1 LML      0.074000
     15 HG         -1.4150   -0.3630    0.2820 hc        1 LML      0.132000
     16 HD11       -0.3180   -2.1230    1.3090 hc        1 LML      0.047500
     17 HD12       -1.2660   -2.7500    0.1820 hc        1 LML      0.047500
     18 HD13        0.3040   -2.5940   -0.0880 hc        1 LML      0.047500
     19 HD21       -1.9840   -1.4180   -1.7280 hc        1 LML      0.047500
     20 HD22       -0.4480   -1.4100   -2.1780 hc        1 LML      0.047500
     21 HD23       -1.2540   -0.0320   -2.0540 hc        1 LML      0.047500
@<TRIPOS>BOND
     1    1    2 1   
     2    1    4 1   
     3    4    5 1   
     4    4    9 1   
     5    4   12 1   
     6    5    6 1   
     7    5   13 1   
     8    5   14 1   
     9    6    7 1   
    10    6    8 1   
    11    6   15 1   
    12    7   16 1   
    13    7   17 1   
    14    7   18 1   
    15    8   19 1   
    16    8   20 1   
    17    8   21 1   
    18    9   10 1   
    19    9   11 1   
@<TRIPOS>SUBSTRUCTURE
     1 LML         1 TEMP              0 ****  ****    0 ROOT
