@<TRIPOS>MOLECULE
LML
   21    20     1     0     0
SMALL
bcc


@<TRIPOS>ATOM
      1 C1         -1.0100   -0.1140   -1.6470 c         1 LML      0.928100
      2 O1         -2.1310    0.4750   -1.5220 o         1 LML     -0.889050
      3 OXT        -0.7210   -0.7430   -2.7120 o         1 LML     -0.889050
      4 CA         -0.0410   -0.1830   -0.4560 c3        1 LML     -0.258700
      5 CB         -0.7740    0.1640    0.8310 c3        1 LML     -0.038400
      6 CG          0.0020   -0.2550    2.0760 c3        1 LML     -0.089700
      7 CD1        -0.3990    0.5880    3.2690 c3        1 LML     -0.073100
      8 CD2        -0.2050   -1.7220    2.3850 c3        1 LML     -0.073100
      9 C           1.2270    0.6860   -0.5490 c         1 LML      0.928100
     10 O           1.1630    1.9410   -0.7140 o         1 LML     -0.889050
     11 O2          2.3480    0.1080   -0.3580 o         1 LML     -0.889050
     12 HA          0.3070   -1.2520   -0.4050 hc        1 LML      0.022700
     13 HB1        -1.7850   -0.3210    0.8350 hc        1 LML      0.034700
     14 HB2        -0.9360    1.2740    0.8410 hc        1 LML      0.034700
     15 HG          1.0990   -0.0840    1.8590 hc        1 LML      0.092700
     16 HD11        0.1570    0.2710    4.1850 hc        1 LML      0.008200
     17 HD12       -0.1720    1.6630    3.0700 hc        1 LML      0.008200
     18 HD13       -1.4930    0.4900    3.4710 hc        1 LML      0.008200
     19 HD21       -1.2750   -1.9310    2.6280 hc        1 LML      0.008200
     20 HD22        0.0850   -2.3370    1.4990 hc        1 LML      0.008200
     21 HD23        0.4180   -2.0350    3.2590 hc        1 LML      0.008200
@<TRIPOS>BOND
     1    1    2 1   
     2    1    3 1   
     3    1    4 1   
     4    4    5 1   
     5    4    9 1   
     6    4   12 1   
     7    5    6 1   
     8    5   13 1   
     9    5   14 1   
    10    6    7 1   
    11    6    8 1   
    12    6   15 1   
    13    7   16 1   
    14    7   17 1   
    15    7   18 1   
    16    8   19 1   
    17    8   20 1   
    18    8   21 1   
    19    9   10 1   
    20    9   11 1   
@<TRIPOS>SUBSTRUCTURE
     1 LML         1 TEMP              0 ****  ****    0 ROOT
