@<TRIPOS>MOLECULE
LML
   21    20     1     0     0
SMALL
bcc


@<TRIPOS>ATOM
      1 C1          0.0700    0.0210    0.0450 c         1 LML      0.928100
      2 O1          1.3350   -0.1020    0.0030 o         1 LML     -0.889050
      3 OXT        -0.5660   -0.1640    1.1290 o         1 LML     -0.889050
      4 CA         -0.7220    0.2650   -1.2500 c3        1 LML     -0.258700
      5 CB          0.1440   -0.0590   -2.4580 c3        1 LML     -0.038400
      6 CG         -0.6730   -0.2150   -3.7370 c3        1 LML     -0.089700
      7 CD1         0.1800    0.0650   -4.9570 c3        1 LML     -0.073100
      8 CD2        -1.2800   -1.5980   -3.8350 c3        1 LML     -0.073100
      9 C          -1.3190    1.6720   -1.4350 c         1 LML      0.928100
     10 O          -0.5930    2.7110   -1.4180 o         1 LML     -0.889050
     11 O2         -2.5640    1.7500   -1.7050 o         1 LML     -0.889050
     12 HA         -1.5920   -0.4490   -1.2180 hc        1 LML      0.022700
     13 HB1         0.7290   -0.9950   -2.2650 hc        1 LML      0.034700
     14 HB2         0.8820    0.7770   -2.5800 hc        1 LML      0.034700
     15 HG         -1.5100    0.5430   -3.6930 hc        1 LML      0.092700
     16 HD11        0.5630    1.1130   -4.9220 hc        1 LML      0.008200
     17 HD12        1.0540   -0.6290   -4.9950 hc        1 LML      0.008200
     18 HD13       -0.4130   -0.0660   -5.8950 hc        1 LML      0.008200
     19 HD21       -1.9290   -1.6830   -4.7410 hc        1 LML      0.008200
     20 HD22       -0.4830   -2.3790   -3.9020 hc        1 LML      0.008200
     21 HD23       -1.9000   -1.8010   -2.9280 hc        1 LML      0.008200
@<TRIPOS>BOND
     1    1    2 1   
     2    1    3 1   
     3    1    4 1   
     4    4    5 1   
     5    4    9 1   
     6    4   12 1   
     7    5    6 1   
     8    5   13 1   
     9    5   14 1   
    10    6    7 1   
    11    6    8 1   
    12    6   15 1   
    13    7   16 1   
    14    7   17 1   
    15    7   18 1   
    16    8   19 1   
    17    8   20 1   
    18    8   21 1   
    19    9   10 1   
    20    9   11 1   
@<TRIPOS>SUBSTRUCTURE
     1 LML         1 TEMP              0 ****  ****    0 ROOT
