@<TRIPOS>MOLECULE
LMM
   44    47     1     0     0
SMALL
bcc


@<TRIPOS>ATOM
      1 F28        -0.2510    0.0050    0.0640 f         1 LMM     -0.117900
      2 C25         1.0920   -0.0180   -0.0240 ca        1 LMM     -0.111700
      3 C26         1.9150    0.2190    1.1090 ca        1 LMM      0.404700
      4 N27         3.2550    0.1940    1.0300 nb        1 LMM     -0.671000
      5 C22         3.8010   -0.0700   -0.1980 ca        1 LMM      0.628300
      6 N23         3.0910   -0.3030   -1.3460 nb        1 LMM     -0.671000
      7 C24         1.7530   -0.2790   -1.2540 ca        1 LMM      0.404700
      8 C19         5.3450   -0.0710   -0.2850 c3        1 LMM      0.184200
      9 C21         5.7580    1.2040   -1.0220 c3        1 LMM     -0.129100
     10 N18         5.8040   -1.3120   -0.8810 nh        1 LMM     -0.813900
     11 C8          7.1790   -1.6460   -0.8210 ca        1 LMM      0.890900
     12 N7          7.6280   -2.5440   -1.7680 nb        1 LMM     -0.744000
     13 C6          8.9110   -2.9460   -1.6180 ca        1 LMM      0.509100
     14 C2          9.6150   -3.9000   -2.4700 cc        1 LMM     -0.199000
     15 C1          8.9770   -4.5530   -3.6200 c3        1 LMM     -0.030900
     16 N9          7.9370   -1.1090    0.2190 nb        1 LMM     -0.791000
     17 C10         9.2220   -1.5230    0.3390 ca        1 LMM      0.746200
     18 C5          9.7750   -2.4740   -0.5800 ca        1 LMM     -0.411700
     19 S4         11.3000   -3.1630   -0.6900 ss        1 LMM      0.063500
     20 C3         10.9030   -4.0770   -2.0400 cd        1 LMM     -0.141400
     21 N11        10.0800   -0.9630    1.3010 nh        1 LMM     -0.776600
     22 C12         9.5660   -0.3060    2.4340 cc        1 LMM      0.484200
     23 N16        10.0300   -0.5520    3.7530 nc        1 LMM     -0.687000
     24 C15         9.3620    0.3170    4.5330 cd        1 LMM      0.404400
     25 N14         8.4760    1.1130    3.7930 na        1 LMM     -0.208900
     26 C17         7.6130    2.1280    4.2960 c3        1 LMM      0.025600
     27 C13         8.6020    0.7320    2.4560 cd        1 LMM     -0.215600
     28 H26         1.4740    0.4300    2.0990 h4        1 LMM      0.045100
     29 H24         1.1810   -0.4720   -2.1790 h4        1 LMM      0.045100
     30 H19         5.7500   -0.0220    0.7730 h1        1 LMM      0.110700
     31 H211        6.8700    1.3100   -0.9980 hc        1 LMM      0.052033
     32 H212        5.4220    1.1880   -2.0860 hc        1 LMM      0.052033
     33 H213        5.3040    2.0880   -0.5150 hc        1 LMM      0.052033
     34 H18         5.3800   -1.5270   -1.7630 hn        1 LMM      0.434800
     35 H11C        9.6860   -5.2510   -4.1290 hc        1 LMM      0.050033
     36 H12C        8.6350   -3.7840   -4.3600 hc        1 LMM      0.050033
     37 H13C        8.0790   -5.1310   -3.2860 hc        1 LMM      0.050033
     38 H3         11.6310   -4.7410   -2.5090 h4        1 LMM      0.174000
     39 H11        10.8820   -1.5340    1.4950 hn        1 LMM      0.435800
     40 H13         8.0120    1.1760    1.6570 h4        1 LMM      0.195000
     41 H15         9.4740    0.4080    5.6180 h5        1 LMM      0.062100
     42 H171        7.9940    3.1440    4.0020 h1        1 LMM      0.055033
     43 H172        6.5790    1.9950    3.8770 h1        1 LMM      0.055033
     44 H173        7.5680    2.0640    5.4150 h1        1 LMM      0.055033
@<TRIPOS>BOND
     1    1    2 1   
     2    2    3 ar  
     3    2    7 ar  
     4    3    4 ar  
     5    3   28 1   
     6    4    5 ar  
     7    5    6 ar  
     8    5    8 1   
     9    6    7 ar  
    10    7   29 1   
    11    8    9 1   
    12    8   10 1   
    13    8   30 1   
    14    9   31 1   
    15    9   32 1   
    16    9   33 1   
    17   10   11 1   
    18   10   34 1   
    19   11   12 ar  
    20   11   16 ar  
    21   12   13 ar  
    22   13   14 1   
    23   13   18 ar  
    24   14   15 1   
    25   14   20 2   
    26   15   35 1   
    27   15   36 1   
    28   15   37 1   
    29   16   17 ar  
    30   17   18 ar  
    31   17   21 1   
    32   18   19 1   
    33   19   20 1   
    34   20   38 1   
    35   21   22 1   
    36   21   39 1   
    37   22   23 1   
    38   22   27 2   
    39   23   24 2   
    40   24   25 1   
    41   24   41 1   
    42   25   26 1   
    43   25   27 1   
    44   26   42 1   
    45   26   43 1   
    46   26   44 1   
    47   27   40 1   
@<TRIPOS>SUBSTRUCTURE
     1 LMM         1 TEMP              0 ****  ****    0 ROOT
