@<TRIPOS>MOLECULE
LMM
   44    47     1     0     0
SMALL
bcc


@<TRIPOS>ATOM
      1 F28        -7.1660   -1.5510    0.8920 f         1 LMM     -0.117900
      2 C25        -5.9000   -1.2720    0.5310 ca        1 LMM     -0.111700
      3 C26        -5.3100   -0.0090    0.8030 ca        1 LMM      0.404700
      4 N27        -4.0460    0.2740    0.4490 nb        1 LMM     -0.671000
      5 C22        -3.3440   -0.7100   -0.1930 ca        1 LMM      0.628300
      6 N23        -3.8290   -1.9530   -0.5050 nb        1 LMM     -0.671000
      7 C24        -5.0920   -2.2260   -0.1430 ca        1 LMM      0.404700
      8 C19        -1.8990   -0.3660   -0.6200 c3        1 LMM      0.184200
      9 C21        -1.9050   -0.1860   -2.1390 c3        1 LMM     -0.129100
     10 N18        -0.9820   -1.3710   -0.1160 nh        1 LMM     -0.813900
     11 C8          0.4120   -1.1270   -0.1580 ca        1 LMM      0.890900
     12 N7          1.2260   -2.2410   -0.1200 nb        1 LMM     -0.744000
     13 C6          2.5510   -1.9840   -0.0350 ca        1 LMM      0.509100
     14 C2          3.6140   -2.9820    0.0380 cc        1 LMM     -0.199000
     15 C1          3.3450   -4.4250    0.0320 c3        1 LMM     -0.030900
     16 N9          0.8430    0.1990   -0.1550 nb        1 LMM     -0.791000
     17 C10         2.1770    0.4260   -0.0780 ca        1 LMM      0.746200
     18 C5          3.1040   -0.6650   -0.0090 ca        1 LMM     -0.411700
     19 S4          4.7780   -0.7020    0.0900 ss        1 LMM      0.063500
     20 C3          4.8420   -2.3790    0.1120 cd        1 LMM     -0.141400
     21 N11         2.6990    1.7290   -0.1620 nh        1 LMM     -0.776600
     22 C12         1.8950    2.8500    0.1130 cc        1 LMM      0.484200
     23 N16         2.3070    3.9140    0.9580 nc        1 LMM     -0.687000
     24 C15         1.3140    4.8190    0.9000 cd        1 LMM      0.404400
     25 N14         0.2660    4.3970    0.0690 na        1 LMM     -0.208900
     26 C17        -0.9380    5.1010   -0.2160 c3        1 LMM      0.025600
     27 C13         0.6270    3.1500   -0.4440 cd        1 LMM     -0.215600
     28 H26        -5.8760    0.7840    1.3230 h4        1 LMM      0.045100
     29 H24        -5.4800   -3.2300   -0.3910 h4        1 LMM      0.045100
     30 H19        -1.6240    0.6250   -0.1430 h1        1 LMM      0.110700
     31 H211       -2.1270   -1.1460   -2.6640 hc        1 LMM      0.052033
     32 H212       -2.6830    0.5630   -2.4190 hc        1 LMM      0.052033
     33 H213       -0.9100    0.1880   -2.4800 hc        1 LMM      0.052033
     34 H18        -1.2290   -2.3120   -0.3590 hn        1 LMM      0.434800
     35 H11C        2.8150   -4.7150   -0.9100 hc        1 LMM      0.050033
     36 H12C        4.2950   -5.0100    0.1050 hc        1 LMM      0.050033
     37 H13C        2.6860   -4.6980    0.8950 hc        1 LMM      0.050033
     38 H3          5.7940   -2.9090    0.1760 h4        1 LMM      0.174000
     39 H11         3.6330    1.8040    0.1970 hn        1 LMM      0.435800
     40 H13        -0.0140    2.5760   -1.1100 h4        1 LMM      0.195000
     41 H15         1.2980    5.7750    1.4330 h5        1 LMM      0.062100
     42 H171       -0.9160    5.5000   -1.2670 h1        1 LMM      0.055367
     43 H172       -1.8190    4.4130   -0.1080 h1        1 LMM      0.055367
     44 H173       -1.0500    5.9600    0.4980 h1        1 LMM      0.055367
@<TRIPOS>BOND
     1    1    2 1   
     2    2    3 ar  
     3    2    7 ar  
     4    3    4 ar  
     5    3   28 1   
     6    4    5 ar  
     7    5    6 ar  
     8    5    8 1   
     9    6    7 ar  
    10    7   29 1   
    11    8    9 1   
    12    8   10 1   
    13    8   30 1   
    14    9   31 1   
    15    9   32 1   
    16    9   33 1   
    17   10   11 1   
    18   10   34 1   
    19   11   12 ar  
    20   11   16 ar  
    21   12   13 ar  
    22   13   14 1   
    23   13   18 ar  
    24   14   15 1   
    25   14   20 2   
    26   15   35 1   
    27   15   36 1   
    28   15   37 1   
    29   16   17 ar  
    30   17   18 ar  
    31   17   21 1   
    32   18   19 1   
    33   19   20 1   
    34   20   38 1   
    35   21   22 1   
    36   21   39 1   
    37   22   23 1   
    38   22   27 2   
    39   23   24 2   
    40   24   25 1   
    41   24   41 1   
    42   25   26 1   
    43   25   27 1   
    44   26   42 1   
    45   26   43 1   
    46   26   44 1   
    47   27   40 1   
@<TRIPOS>SUBSTRUCTURE
     1 LMM         1 TEMP              0 ****  ****    0 ROOT
