@<TRIPOS>MOLECULE
LMM
   46    49     1     0     0
SMALL
bcc


@<TRIPOS>ATOM
      1 F28        -0.7850    0.8520   -1.0830 f         1 LMM     -0.069900
      2 C25         0.5240    0.5890   -1.1700 ca        1 LMM     -0.032700
      3 C26         1.4730    1.6140   -1.4490 ca        1 LMM      0.410700
      4 N27         2.7880    1.3530   -1.5420 nb        1 LMM     -0.666500
      5 C22         3.1660    0.0520   -1.3670 ca        1 LMM      0.529300
      6 N23         2.3400   -0.9990   -1.0750 nb        1 LMM     -0.666500
      7 C24         1.0290   -0.7300   -0.9770 ca        1 LMM      0.410700
      8 C19         4.6540   -0.2510   -1.5860 c3        1 LMM      0.129200
      9 C21         4.8480   -0.7850   -2.9960 c3        1 LMM     -0.131100
     10 N18         5.1230   -1.2420   -0.5320 n4        1 LMM     -0.734700
     11 C8          6.6080   -1.2760   -0.4180 ca        1 LMM      0.691900
     12 N7          7.2530   -2.2870   -1.0600 nb        1 LMM     -0.561000
     13 C6          8.5960   -2.3030   -0.9270 ca        1 LMM      0.439100
     14 C2          9.5070   -3.2680   -1.5080 cc        1 LMM     -0.115000
     15 C1          9.0760   -4.3860   -2.3540 c3        1 LMM     -0.063900
     16 N9          7.1860   -0.2660    0.3380 nb        1 LMM     -0.680000
     17 C10         8.5250   -0.3020    0.4500 ca        1 LMM      0.587200
     18 C5          9.3380   -1.3070   -0.1420 ca        1 LMM     -0.370700
     19 S4         10.9490   -1.6420   -0.1550 ss        1 LMM      0.417500
     20 C3         10.8020   -2.9650   -1.1420 cd        1 LMM     -0.194400
     21 N11         9.1580    0.8030    1.2240 n4        1 LMM     -0.677400
     22 C12         9.7400    0.3520    2.4690 cc        1 LMM      0.256200
     23 N16        10.8410   -0.5320    2.5160 nc        1 LMM     -0.666000
     24 C15        11.1110   -0.6720    3.8260 cd        1 LMM      0.467400
     25 N14        10.2260    0.0760    4.6280 na        1 LMM     -0.155900
     26 C17        10.2660    0.1830    6.0590 c3        1 LMM     -0.005400
     27 C13         9.3480    0.7280    3.7830 cd        1 LMM     -0.128600
     28 H26         1.1560    2.6650   -1.6020 h4        1 LMM      0.078600
     29 H24         0.3520   -1.5770   -0.7470 h4        1 LMM      0.078600
     30 H19         5.2600    0.6940   -1.4390 hx        1 LMM      0.128700
     31 H211        4.2670   -1.7240   -3.1700 hc        1 LMM      0.089700
     32 H212        5.9270   -0.9740   -3.2140 hc        1 LMM      0.089700
     33 H213        4.4750   -0.0060   -3.7120 hc        1 LMM      0.089700
     34 H18         4.7210   -0.9820    0.3800 hn        1 LMM      0.486300
     35 H11C        8.3710   -5.0520   -1.7930 hc        1 LMM      0.082700
     36 H12C        9.9530   -4.9980   -2.6850 hc        1 LMM      0.082700
     37 H13C        8.5450   -4.0060   -3.2650 hc        1 LMM      0.082700
     38 H3         11.6740   -3.5530   -1.4600 h4        1 LMM      0.228000
     39 H11         8.4640    1.5360    1.4440 hn        1 LMM      0.484300
     40 H13         8.5510    1.3870    4.1390 h4        1 LMM      0.218000
     41 H15        11.9220   -1.2890    4.2480 h5        1 LMM      0.112100
     42 H171       10.7160   -0.7540    6.4880 h1        1 LMM      0.093367
     43 H172       10.8950    1.0670    6.3570 h1        1 LMM      0.093367
     44 H173        9.2250    0.3140    6.4610 h1        1 LMM      0.093367
     45 H182        4.7800   -2.1840   -0.7870 hn        1 LMM      0.486300
     46 H112        9.9030    1.2080    0.6320 hn        1 LMM      0.484300
@<TRIPOS>BOND
     1    1    2 1   
     2    2    3 ar  
     3    2    7 ar  
     4    3    4 ar  
     5    3   28 1   
     6    4    5 ar  
     7    5    6 ar  
     8    5    8 1   
     9    6    7 ar  
    10    7   29 1   
    11    8    9 1   
    12    8   10 1   
    13    8   30 1   
    14    9   31 1   
    15    9   32 1   
    16    9   33 1   
    17   10   11 1   
    18   10   34 1   
    19   10   45 1   
    20   11   12 ar  
    21   11   16 ar  
    22   12   13 ar  
    23   13   14 1   
    24   13   18 ar  
    25   14   15 1   
    26   14   20 2   
    27   15   35 1   
    28   15   36 1   
    29   15   37 1   
    30   16   17 ar  
    31   17   18 ar  
    32   17   21 1   
    33   18   19 1   
    34   19   20 1   
    35   20   38 1   
    36   21   22 1   
    37   21   39 1   
    38   21   46 1   
    39   22   23 1   
    40   22   27 2   
    41   23   24 2   
    42   24   25 1   
    43   24   41 1   
    44   25   26 1   
    45   25   27 1   
    46   26   42 1   
    47   26   43 1   
    48   26   44 1   
    49   27   40 1   
@<TRIPOS>SUBSTRUCTURE
     1 LMM         1 TEMP              0 ****  ****    0 ROOT
