@<TRIPOS>MOLECULE
LMM
   44    47     1     0     0
SMALL
bcc


@<TRIPOS>ATOM
      1 F28        -0.2520    0.0010    0.0690 f         1 LMM     -0.117900
      2 C25         1.0910   -0.0210   -0.0190 ca        1 LMM     -0.111700
      3 C26         1.9150    0.2160    1.1130 ca        1 LMM      0.404700
      4 N27         3.2550    0.1920    1.0330 nb        1 LMM     -0.671000
      5 C22         3.8000   -0.0720   -0.1950 ca        1 LMM      0.628300
      6 N23         3.0900   -0.3050   -1.3430 nb        1 LMM     -0.671000
      7 C24         1.7510   -0.2820   -1.2500 ca        1 LMM      0.404700
      8 C19         5.3430   -0.0730   -0.2830 c3        1 LMM      0.184200
      9 C21         5.7560    1.2020   -1.0210 c3        1 LMM     -0.129100
     10 N18         5.8030   -1.3130   -0.8790 nu        1 LMM     -0.813900
     11 C8          7.1780   -1.6470   -0.8200 ca        1 LMM      0.890900
     12 N7          7.6260   -2.5460   -1.7670 nb        1 LMM     -0.744000
     13 C6          8.9090   -2.9480   -1.6180 ca        1 LMM      0.509100
     14 C2          9.6120   -3.9020   -2.4700 cc        1 LMM     -0.199000
     15 C1          8.9730   -4.5560   -3.6180 c3        1 LMM     -0.030900
     16 N9          7.9360   -1.1090    0.2180 nb        1 LMM     -0.791000
     17 C10         9.2220   -1.5230    0.3370 ca        1 LMM      0.746200
     18 C5          9.7740   -2.4750   -0.5810 ca        1 LMM     -0.411700
     19 S4         11.2990   -3.1640   -0.6920 ss        1 LMM      0.063500
     20 C3         10.9010   -4.0800   -2.0410 cd        1 LMM     -0.141400
     21 N11        10.0810   -0.9620    1.2990 nu        1 LMM     -0.776600
     22 C12         9.5680   -0.3040    2.4310 cc        1 LMM      0.484200
     23 N16        10.0330   -0.5490    3.7500 nc        1 LMM     -0.687000
     24 C15         9.3660    0.3210    4.5300 cd        1 LMM      0.404400
     25 N14         8.4790    1.1160    3.7900 na        1 LMM     -0.208900
     26 C17         7.6170    2.1320    4.2930 c3        1 LMM      0.025600
     27 C13         8.6040    0.7340    2.4530 cd        1 LMM     -0.215600
     28 H26         1.4740    0.4270    2.1040 h4        1 LMM      0.045100
     29 H24         1.1790   -0.4750   -2.1750 h4        1 LMM      0.045100
     30 H19         5.7500   -0.0230    0.7740 h1        1 LMM      0.110700
     31 H211        6.8680    1.3100   -0.9970 hc        1 LMM      0.052033
     32 H212        5.3020    2.0870   -0.5130 hc        1 LMM      0.052033
     33 H213        5.4190    1.1870   -2.0850 hc        1 LMM      0.052033
     34 H18         5.3780   -1.5280   -1.7610 hn        1 LMM      0.434800
     35 H11C        9.6820   -5.2550   -4.1270 hc        1 LMM      0.050033
     36 H12C        8.6310   -3.7890   -4.3580 hc        1 LMM      0.050033
     37 H13C        8.0750   -5.1340   -3.2830 hc        1 LMM      0.050033
     38 H3         11.6280   -4.7440   -2.5100 h4        1 LMM      0.174000
     39 H11        10.8830   -1.5330    1.4920 hn        1 LMM      0.435800
     40 H13         8.0140    1.1780    1.6540 h4        1 LMM      0.195000
     41 H15         9.4790    0.4130    5.6150 h5        1 LMM      0.062100
     42 H171        6.5800    1.9930    3.8810 h1        1 LMM      0.055367
     43 H172        7.5790    2.0740    5.4130 h1        1 LMM      0.055367
     44 H173        7.9930    3.1470    3.9910 h1        1 LMM      0.055367
@<TRIPOS>BOND
     1    1    2 1   
     2    2    3 ar  
     3    2    7 ar  
     4    3    4 ar  
     5    3   28 1   
     6    4    5 ar  
     7    5    6 ar  
     8    5    8 1   
     9    6    7 ar  
    10    7   29 1   
    11    8    9 1   
    12    8   10 1   
    13    8   30 1   
    14    9   31 1   
    15    9   32 1   
    16    9   33 1   
    17   10   11 1   
    18   10   34 1   
    19   11   12 ar  
    20   11   16 ar  
    21   12   13 ar  
    22   13   14 1   
    23   13   18 ar  
    24   14   15 1   
    25   14   20 2   
    26   15   35 1   
    27   15   36 1   
    28   15   37 1   
    29   16   17 ar  
    30   17   18 ar  
    31   17   21 1   
    32   18   19 1   
    33   19   20 1   
    34   20   38 1   
    35   21   22 1   
    36   21   39 1   
    37   22   23 1   
    38   22   27 2   
    39   23   24 2   
    40   24   25 1   
    41   24   41 1   
    42   25   26 1   
    43   25   27 1   
    44   26   42 1   
    45   26   43 1   
    46   26   44 1   
    47   27   40 1   
@<TRIPOS>SUBSTRUCTURE
     1 LMM         1 TEMP              0 ****  ****    0 ROOT
