@<TRIPOS>MOLECULE
LMQ
   22    21     1     0     0
SMALL
bcc


@<TRIPOS>ATOM
      1 N           1.2980    2.0070   -0.0110 n3        1 LMQ     -0.895800
      2 CA          1.0890    0.6470    0.4730 c3        1 LMQ      0.021500
      3 CB         -0.1970   -0.0010   -0.0850 c3        1 LMQ     -0.040700
      4 CB2        -0.4660   -1.2900    0.6650 c3        1 LMQ     -0.108100
      5 CG         -1.3730    0.9630    0.0100 c3        1 LMQ     -0.140400
      6 CD         -2.6870    0.3450   -0.4180 c         1 LMQ      0.650100
      7 OE1        -3.1650    0.5050   -1.5610 o         1 LMQ     -0.638100
      8 NE2        -3.4300   -0.3510    0.5220 n         1 LMQ     -0.667000
      9 C           2.3010   -0.2950    0.1540 c         1 LMQ      0.886600
     10 O           2.9330   -0.0940   -0.9200 o         1 LMQ     -0.838300
     11 OXT         2.5900   -1.1850    1.0020 o         1 LMQ     -0.838300
     12 H           2.1900    2.3150    0.3360 hn        1 LMQ      0.334300
     13 H2          1.3820    1.9700   -1.0140 hn        1 LMQ      0.334300
     14 HA          0.9870    0.7080    1.5950 h1        1 LMQ      0.042700
     15 HB3        -0.0190   -0.2440   -1.1700 hc        1 LMQ      0.064700
     16 HB21       -0.8350   -1.0790    1.6980 hc        1 LMQ      0.037367
     17 HB22       -1.2210   -1.9110    0.1260 hc        1 LMQ      0.037367
     18 HB23        0.4840   -1.8800    0.7540 hc        1 LMQ      0.037367
     19 HG2        -1.4500    1.3510    1.0590 hc        1 LMQ      0.069700
     20 HG3        -1.1950    1.8390   -0.6680 hc        1 LMQ      0.069700
     21 HE21       -2.9640   -0.6940    1.3260 hn        1 LMQ      0.290500
     22 HE22       -4.2120   -0.8700    0.2030 hn        1 LMQ      0.290500
@<TRIPOS>BOND
     1    1    2 1   
     2    1   12 1   
     3    1   13 1   
     4    2    3 1   
     5    2    9 1   
     6    2   14 1   
     7    3    4 1   
     8    3    5 1   
     9    3   15 1   
    10    4   16 1   
    11    4   17 1   
    12    4   18 1   
    13    5    6 1   
    14    5   19 1   
    15    5   20 1   
    16    6    7 2   
    17    6    8 1   
    18    8   21 1   
    19    8   22 1   
    20    9   10 1   
    21    9   11 1   
@<TRIPOS>SUBSTRUCTURE
     1 LMQ         1 TEMP              0 ****  ****    0 ROOT
