@<TRIPOS>MOLECULE
LMR
   13    12     1     0     0
SMALL
bcc


@<TRIPOS>ATOM
      1 C1          1.8670    0.2040   -0.0920 c         1 LMR      0.881600
      2 O1A         2.5910   -0.2570    0.8480 o         1 LMR     -0.876300
      3 O1B         2.2810    1.0950   -0.8890 o         1 LMR     -0.876300
      4 C2          0.4460   -0.3850   -0.2490 c3        1 LMR      0.044100
      5 O2          0.4080   -1.6840    0.3370 oh        1 LMR     -0.640800
      6 C3         -0.5940    0.5300    0.3800 c3        1 LMR     -0.184400
      7 C4         -2.0360    0.3080   -0.0800 c         1 LMR      0.909600
      8 O4A        -2.9600    0.4120    0.7900 o         1 LMR     -0.886800
      9 O4B        -2.2990    0.0850   -1.3010 o         1 LMR     -0.886800
     10 H2          0.1990   -0.5460   -1.3330 h1        1 LMR      0.070700
     11 HO2         0.9790   -1.6410    1.1170 ho        1 LMR      0.396000
     12 H3         -0.5520    0.4240    1.4930 hc        1 LMR      0.025700
     13 H3A        -0.3240    1.5870    0.1180 hc        1 LMR      0.025700
@<TRIPOS>BOND
     1    1    2 1   
     2    1    3 1   
     3    1    4 1   
     4    4    5 1   
     5    4    6 1   
     6    4   10 1   
     7    5   11 1   
     8    6    7 1   
     9    6   12 1   
    10    6   13 1   
    11    7    8 1   
    12    7    9 1   
@<TRIPOS>SUBSTRUCTURE
     1 LMR         1 TEMP              0 ****  ****    0 ROOT
