@<TRIPOS>MOLECULE
LMR
   13    12     1     0     0
SMALL
bcc


@<TRIPOS>ATOM
      1 C1          0.0510    0.2200   -0.0870 c         1 LMR      0.881600
      2 O1A        -0.6220   -0.0740    0.9530 o         1 LMR     -0.876300
      3 O1B        -0.4970    0.6050   -1.1610 o         1 LMR     -0.876300
      4 C2          1.5900    0.1140    0.0080 c3        1 LMR      0.044100
      5 O2          1.9840    0.2220    1.3740 oh        1 LMR     -0.640800
      6 C3          2.0830   -1.1900   -0.6020 c3        1 LMR     -0.184400
      7 C4          3.5670   -1.2270   -0.9730 c         1 LMR      0.909600
      8 O4A         4.2040   -2.3110   -0.7700 o         1 LMR     -0.886800
      9 O4B         4.1230   -0.2260   -1.5180 o         1 LMR     -0.886800
     10 H2          2.0830    0.9810   -0.5080 h1        1 LMR      0.070700
     11 HO2         1.2980   -0.2290    1.8870 ho        1 LMR      0.396000
     12 H3          1.8690   -2.0310    0.1050 hc        1 LMR      0.025700
     13 H3A         1.5040   -1.3690   -1.5440 hc        1 LMR      0.025700
@<TRIPOS>BOND
     1    1    2 1   
     2    1    3 1   
     3    1    4 1   
     4    4    5 1   
     5    4    6 1   
     6    4   10 1   
     7    5   11 1   
     8    6    7 1   
     9    6   12 1   
    10    6   13 1   
    11    7    8 1   
    12    7    9 1   
@<TRIPOS>SUBSTRUCTURE
     1 LMR         1 TEMP              0 ****  ****    0 ROOT
