@<TRIPOS>MOLECULE
LMR
   13    11     1     0     0
SMALL
bcc


@<TRIPOS>ATOM
      1 C1         -1.3730    0.8070   -0.0270 c1        1 LMR      0.334000
      2 O1A        -2.0020    1.2120   -1.0390 o         1 LMR     -0.621000
      3 O1B        -2.0020    0.4020    0.9860 os        1 LMR     -0.597000
      4 C2          0.1390    0.8070   -0.0270 c3        1 LMR      0.001000
      5 O2          0.6080    0.8070    1.3010 oh        1 LMR     -0.371000
      6 C3          0.6430   -0.4270   -0.7390 c3        1 LMR     -0.229000
      7 C4          0.3510   -1.6500    0.1020 c2        1 LMR      0.317000
      8 O4A         1.1410   -1.9830    1.0240 o         1 LMR     -0.622000
      9 O4B        -0.6820   -2.3340   -0.1190 o         1 LMR     -0.622000
     10 H2          0.4640    1.6040   -0.4870 h1        1 LMR      0.044000
     11 HO2         0.9130    1.6150    1.5070 ho        1 LMR      0.215000
     12 H3          1.6060   -0.3510   -0.8800 hc        1 LMR      0.076000
     13 H3A         0.1940   -0.5110   -1.6020 hc        1 LMR      0.076000
@<TRIPOS>BOND
     1    1    2 1   
     2    1    4 1   
     3    4    5 1   
     4    4    6 1   
     5    4   10 1   
     6    5   11 1   
     7    6    7 1   
     8    6   12 1   
     9    6   13 1   
    10    7    8 1   
    11    7    9 1   
@<TRIPOS>SUBSTRUCTURE
     1 LMR         1 TEMP              0 ****  ****    0 ROOT
