@<TRIPOS>MOLECULE
LMS
   37    33     1     0     0
SMALL
bcc


@<TRIPOS>ATOM
      1 N9          0.0480    0.5850    1.5820 n2        1 LMS     -0.220000
      2 C8          1.3830    0.8010    1.5530 c1        1 LMS     -0.027000
      3 N7          1.8430    0.7470    2.8240 n2        1 LMS     -0.120000
      4 C5          0.7880    0.4950    3.6430 c1        1 LMS     -0.234000
      5 C6          0.6840    0.4070    5.0220 c1        1 LMS      0.245000
      6 N6          1.6800    0.3840    6.0370 n2        1 LMS     -0.356000
      7 N1         -0.5170    0.2220    5.5950 n2        1 LMS     -0.269000
      8 C2         -1.6370    0.1210    4.8190 c1        1 LMS      0.028000
      9 N3         -1.5370    0.2070    3.4610 n1        1 LMS     -0.244000
     10 C4         -0.3200    0.3950    2.8780 c1        1 LMS      0.052000
     11 N           1.2910   -3.3970   -5.3680 n3        1 LMS     -0.965000
     12 S           1.0550   -1.8280   -4.9170 s4        1 LMS      2.045800
     13 HA         -2.4030    1.3970   -2.9190 ho        1 LMS      0.233000
     14 HB         -2.2940    2.7740    0.4710 ho        1 LMS      0.242000
     15 H8          1.9170    0.9860    0.7580 DU        1 LMS      0.249000
     16 H2         -2.5120   -0.0140    5.2370 ha        1 LMS      0.187000
     17 O1P         2.3000   -1.0030   -5.1300 o         1 LMS     -0.545400
     18 O2P         0.0810   -1.1340   -5.8400 o         1 LMS     -0.545400
     19 O5'         0.5870   -1.7590   -3.4670 o         1 LMS     -0.704000
     20 C5'         0.5980   -0.4680   -2.8690 c3        1 LMS      0.021000
     21 C4'        -0.4740   -0.4060   -1.7580 c3        1 LMS     -0.030000
     22 O4'         0.0690   -0.6040   -0.5980 os        1 LMS     -0.299000
     23 C3'        -1.0830    1.0100   -1.6810 c3        1 LMS      0.028000
     24 O3'        -2.3580    0.9960   -2.1200 oh        1 LMS     -0.316000
     25 C2'        -1.0370    1.4000   -0.1820 c3        1 LMS     -0.029000
     26 O2'        -2.3640    1.9140    0.2590 oh        1 LMS     -0.326000
     27 C1'        -0.7520    0.3040    0.4400 c2        1 LMS      0.151000
     28 H5'1        0.4020    0.2100   -3.5510 h1        1 LMS      0.112000
     29 H5'2        1.4830   -0.2940   -2.4800 h1        1 LMS      0.112000
     30 H4'        -1.1740   -1.0680   -1.9230 h1        1 LMS      0.150000
     31 H3'        -0.5480    1.6390   -2.2120 h1        1 LMS      0.103000
     32 H2'        -0.3400    2.0730   -0.0250 h1        1 LMS      0.118000
     33 H1'        -1.5740   -0.1530    0.7090 h4        1 LMS      0.141000
     34 H6N1        1.4560    0.5810    6.9020 hn        1 LMS      0.247500
     35 H6N2        2.5420    0.1500    5.8290 hn        1 LMS      0.247500
     36 HN1         2.1420   -3.7120   -5.5040 hn        1 LMS      0.259000
     37 HN2         0.5740   -3.9560   -5.4750 hn        1 LMS      0.259000
@<TRIPOS>BOND
     1    1    2 1   
     2    1   10 1   
     3    2    3 1   
     4    3    4 1   
     5    4    5 1   
     6    5    7 1   
     7    6   34 1   
     8    6   35 1   
     9    7    8 1   
    10    8   16 1   
    11    9   10 1   
    12   11   12 1   
    13   11   36 1   
    14   11   37 1   
    15   12   17 1   
    16   12   18 1   
    17   13   24 1   
    18   14   26 1   
    19   19   20 1   
    20   20   21 1   
    21   20   28 1   
    22   20   29 1   
    23   21   22 1   
    24   21   23 1   
    25   21   30 1   
    26   22   27 1   
    27   23   24 1   
    28   23   25 1   
    29   23   31 1   
    30   25   26 1   
    31   25   27 1   
    32   25   32 1   
    33   27   33 1   
@<TRIPOS>SUBSTRUCTURE
     1 LMS         1 TEMP              0 ****  ****    0 ROOT
