@<TRIPOS>MOLECULE
LMS
   37    39     1     0     0
SMALL
bcc


@<TRIPOS>ATOM
      1 N9          1.1700   -0.0900    0.0420 na        1 LMS     -0.300000
      2 C8          0.8260   -1.2150   -0.7500 cc        1 LMS      0.419700
      3 N7          1.8850   -1.9530   -1.1110 nd        1 LMS     -0.546100
      4 C5          2.9960   -1.3080   -0.5450 ca        1 LMS     -0.229200
      5 C6          4.4050   -1.5890   -0.5610 ca        1 LMS      0.766200
      6 N6          4.8820   -2.6820   -1.2300 nh        1 LMS     -0.959500
      7 N1          5.2570   -0.7380    0.1070 nb        1 LMS     -0.795000
      8 C2          4.7090    0.3280    0.7460 ca        1 LMS      0.689900
      9 N3          3.4160    0.7180    0.8470 nb        1 LMS     -0.758000
     10 C4          2.5650   -0.1270    0.1890 ca        1 LMS      0.449800
     11 N          -2.9860   -1.7450    1.0780 n3        1 LMS     -1.029700
     12 S          -3.7050   -1.3200   -0.2620 s6        1 LMS      1.726400
     13 HA         -1.5500    3.8430    0.5390 ho        1 LMS      0.427000
     14 HB          1.4240    3.3030    1.3490 ho        1 LMS      0.433000
     15 H8         -0.2250   -1.4120   -1.0170 h5        1 LMS      0.103800
     16 H2          5.4440    0.9810    1.2670 h5        1 LMS      0.052100
     17 O1P        -4.2560   -2.4130   -0.9150 o         1 LMS     -0.656800
     18 O2P        -4.4080   -0.1270   -0.1420 o         1 LMS     -0.656800
     19 O5'        -2.4160   -0.8680   -1.2690 os        1 LMS     -0.581500
     20 C5'        -2.1240    0.4630   -1.6000 c3        1 LMS      0.183400
     21 C4'        -1.7720    1.3040   -0.3690 c3        1 LMS      0.036100
     22 O4'        -1.0580    0.5050    0.5880 os        1 LMS     -0.428600
     23 C3'        -0.9050    2.5270   -0.7330 c3        1 LMS      0.139100
     24 O3'        -1.5460    3.7370   -0.4230 oh        1 LMS     -0.569800
     25 C2'         0.4280    2.3180    0.0220 c3        1 LMS      0.079100
     26 O2'         0.5030    3.2770    1.0540 oh        1 LMS     -0.593800
     27 C1'         0.3160    0.8950    0.6630 c3        1 LMS      0.234800
     28 H5'1       -1.2530    0.3950   -2.3090 h1        1 LMS      0.065700
     29 H5'2       -3.0050    0.9310   -2.1180 h1        1 LMS      0.065700
     30 H4'        -2.7160    1.6190    0.1630 h1        1 LMS      0.113700
     31 H3'        -0.7240    2.5810   -1.8420 h1        1 LMS      0.095700
     32 H2'         1.3040    2.4070   -0.6710 h1        1 LMS      0.084700
     33 H1'         0.5600    0.9350    1.7690 h2        1 LMS      0.107700
     34 H6N1        4.2440   -3.2730   -1.7010 hn        1 LMS      0.451800
     35 H6N2        5.8510   -2.8840   -1.2480 hn        1 LMS      0.451800
     36 HN1        -2.5040   -1.1050    1.6660 hn        1 LMS      0.463300
     37 HN2        -2.8570   -2.6850    1.3620 hn        1 LMS      0.463300
@<TRIPOS>BOND
     1    1    2 1   
     2    1   10 1   
     3    1   27 1   
     4    2    3 2   
     5    2   15 1   
     6    3    4 1   
     7    4    5 ar  
     8    4   10 ar  
     9    5    6 1   
    10    5    7 ar  
    11    6   34 1   
    12    6   35 1   
    13    7    8 ar  
    14    8    9 ar  
    15    8   16 1   
    16    9   10 ar  
    17   11   12 1   
    18   11   36 1   
    19   11   37 1   
    20   12   17 2   
    21   12   18 2   
    22   12   19 1   
    23   13   24 1   
    24   14   26 1   
    25   19   20 1   
    26   20   21 1   
    27   20   28 1   
    28   20   29 1   
    29   21   22 1   
    30   21   23 1   
    31   21   30 1   
    32   22   27 1   
    33   23   24 1   
    34   23   25 1   
    35   23   31 1   
    36   25   26 1   
    37   25   27 1   
    38   25   32 1   
    39   27   33 1   
@<TRIPOS>SUBSTRUCTURE
     1 LMS         1 TEMP              0 ****  ****    0 ROOT
