@<TRIPOS>MOLECULE
LMT
   81    82     1     0     0
SMALL
bcc


@<TRIPOS>ATOM
      1 C1B        -0.5730    0.4600   -5.7490 c3        1 LMT      0.298900
      2 C2B        -0.5270   -0.3820   -7.0380 c3        1 LMT      0.094100
      3 C3B         0.8880   -0.9130   -7.3100 c3        1 LMT      0.074100
      4 C4B         1.9090    0.2330   -7.2170 c3        1 LMT      0.125100
      5 C5B         1.7910    0.8680   -5.8230 c3        1 LMT      0.136100
      6 C6B         2.7490    2.0470   -5.6510 c3        1 LMT      0.136400
      7 O1B        -0.4340   -0.4400   -4.6570 os        1 LMT     -0.458600
      8 O2B        -1.4480   -1.4520   -6.9980 oh        1 LMT     -0.592800
      9 O3B         0.9890   -1.4430   -8.6210 oh        1 LMT     -0.607800
     10 O4'         3.2300   -0.2550   -7.3560 oh        1 LMT     -0.595800
     11 O5B         0.4720    1.3980   -5.6520 os        1 LMT     -0.424600
     12 O6B         2.9970    2.1640   -4.2580 oh        1 LMT     -0.603800
     13 C1'        -1.6380   -0.3820   -0.6940 c3        1 LMT      0.307900
     14 C2'        -2.4950    0.4840   -1.6360 c3        1 LMT      0.086100
     15 C3'        -2.2280    0.0880   -3.0980 c3        1 LMT      0.121100
     16 C4'        -0.7150    0.1360   -3.3800 c3        1 LMT      0.125100
     17 C5'         0.0250   -0.7360   -2.3490 c3        1 LMT      0.108100
     18 C6'         1.5470   -0.6360   -2.5030 c3        1 LMT      0.137400
     19 O1'        -1.7060    0.2080    0.5830 os        1 LMT     -0.423600
     20 O2'        -3.8740    0.2540   -1.4030 oh        1 LMT     -0.604800
     21 O3'        -2.8590    1.0140   -3.9650 oh        1 LMT     -0.603800
     22 O5'        -0.2580   -0.2790   -1.0250 os        1 LMT     -0.444600
     23 O6'         2.2060   -1.2720   -1.4300 oh        1 LMT     -0.595800
     24 C1         -1.0510   -0.5560    1.6040 c3        1 LMT      0.136400
     25 C2         -1.2460    0.2120    2.8990 c3        1 LMT     -0.084400
     26 C3         -0.5840   -0.5190    4.0460 c3        1 LMT     -0.078400
     27 C4         -0.7680    0.2320    5.3480 c3        1 LMT     -0.078400
     28 C5         -0.1070   -0.4950    6.4990 c3        1 LMT     -0.079400
     29 C6         -0.2910    0.2550    7.8000 c3        1 LMT     -0.079400
     30 C7          0.3700   -0.4720    8.9510 c3        1 LMT     -0.079400
     31 C8          0.1860    0.2780   10.2530 c3        1 LMT     -0.079400
     32 C9          0.8470   -0.4490   11.4050 c3        1 LMT     -0.079400
     33 C10         0.6630    0.3010   12.7060 c3        1 LMT     -0.079400
     34 C11         1.3240   -0.4250   13.8590 c3        1 LMT     -0.080400
     35 C12         1.1430    0.3180   15.1570 c3        1 LMT     -0.092100
     36 H1B        -1.5210    1.0670   -5.6790 h2        1 LMT      0.124700
     37 H2B        -0.8670    0.2590   -7.9010 h1        1 LMT      0.100700
     38 H3B         1.1440   -1.7160   -6.5620 h1        1 LMT      0.062700
     39 H4B         1.7000    0.9940   -8.0190 h1        1 LMT      0.058700
     40 H5B         1.9890    0.0950   -5.0300 h1        1 LMT      0.081700
     41 H6'2        3.7050    1.8230   -6.1960 h1        1 LMT      0.048700
     42 H6'1        2.2870    2.9900   -6.0450 h1        1 LMT      0.048700
     43 H2O1       -1.3100   -1.9250   -6.1660 ho        1 LMT      0.420000
     44 H3O1        0.2330   -2.0340   -8.7400 ho        1 LMT      0.424000
     45 H4O1        3.2410   -0.7860   -8.1640 ho        1 LMT      0.426000
     46 H6B         3.5690    2.9320   -4.1450 ho        1 LMT      0.404000
     47 H1'        -1.9690   -1.4570   -0.6870 h2        1 LMT      0.053700
     48 H2'        -2.2500    1.5710   -1.4780 h1        1 LMT      0.079700
     49 H3'        -2.6280   -0.9450   -3.2950 h1        1 LMT      0.060700
     50 H4'        -0.3490    1.1990   -3.3440 h1        1 LMT      0.097700
     51 H5'        -0.3030   -1.8070   -2.4510 h1        1 LMT      0.058700
     52 H6D         1.8590   -1.2070   -3.4190 h1        1 LMT      0.069700
     53 H6E         1.8650    0.4370   -2.5900 h1        1 LMT      0.069700
     54 H2O2       -4.0450    0.5200   -0.4890 ho        1 LMT      0.425000
     55 H3O2       -3.7970    1.0180   -3.7290 ho        1 LMT      0.425000
     56 H6'         1.9550   -0.8040   -0.6230 ho        1 LMT      0.411000
     57 H12         0.0360   -0.6580    1.3500 h1        1 LMT      0.039200
     58 H11        -1.5180   -1.5750    1.6600 h1        1 LMT      0.039200
     59 H22        -2.3420    0.3350    3.0990 hc        1 LMT      0.054700
     60 H21        -0.8100    1.2390    2.7900 hc        1 LMT      0.054700
     61 H32         0.5110   -0.6420    3.8350 hc        1 LMT      0.042200
     62 H31        -1.0200   -1.5480    4.1410 hc        1 LMT      0.042200
     63 H42        -1.8630    0.3550    5.5590 hc        1 LMT      0.041700
     64 H41        -0.3320    1.2620    5.2530 hc        1 LMT      0.041700
     65 H52         0.9880   -0.6180    6.2870 hc        1 LMT      0.040200
     66 H51        -0.5420   -1.5250    6.5930 hc        1 LMT      0.040200
     67 H62        -1.3850    0.3780    8.0120 hc        1 LMT      0.040200
     68 H61         0.1450    1.2840    7.7060 hc        1 LMT      0.040200
     69 H72         1.4650   -0.5950    8.7400 hc        1 LMT      0.039700
     70 H71        -0.0650   -1.5020    9.0460 hc        1 LMT      0.039700
     71 H82        -0.9080    0.4010   10.4650 hc        1 LMT      0.039700
     72 H81         0.6220    1.3080   10.1590 hc        1 LMT      0.039700
     73 H92         1.9420   -0.5720   11.1930 hc        1 LMT      0.039700
     74 H91         0.4120   -1.4790   11.4990 hc        1 LMT      0.039700
     75 H102       -0.4310    0.4240   12.9180 hc        1 LMT      0.039700
     76 H101        1.0990    1.3300   12.6120 hc        1 LMT      0.039700
     77 H112        2.4190   -0.5490   13.6440 hc        1 LMT      0.038700
     78 H111        0.8880   -1.4550   13.9500 hc        1 LMT      0.038700
     79 H123        1.6370   -0.2340   15.9930 hc        1 LMT      0.032700
     80 H122        1.5940    1.3380   15.0940 hc        1 LMT      0.032700
     81 H121        0.0590    0.4290   15.4000 hc        1 LMT      0.032700
@<TRIPOS>BOND
     1    1    2 1   
     2    1    7 1   
     3    1   11 1   
     4    1   36 1   
     5    2    3 1   
     6    2    8 1   
     7    2   37 1   
     8    3    4 1   
     9    3    9 1   
    10    3   38 1   
    11    4    5 1   
    12    4   10 1   
    13    4   39 1   
    14    5    6 1   
    15    5   11 1   
    16    5   40 1   
    17    6   12 1   
    18    6   41 1   
    19    6   42 1   
    20    7   16 1   
    21    8   43 1   
    22    9   44 1   
    23   10   45 1   
    24   12   46 1   
    25   13   14 1   
    26   13   19 1   
    27   13   22 1   
    28   13   47 1   
    29   14   15 1   
    30   14   20 1   
    31   14   48 1   
    32   15   16 1   
    33   15   21 1   
    34   15   49 1   
    35   16   17 1   
    36   16   50 1   
    37   17   18 1   
    38   17   22 1   
    39   17   51 1   
    40   18   23 1   
    41   18   52 1   
    42   18   53 1   
    43   19   24 1   
    44   20   54 1   
    45   21   55 1   
    46   23   56 1   
    47   24   25 1   
    48   24   57 1   
    49   24   58 1   
    50   25   26 1   
    51   25   59 1   
    52   25   60 1   
    53   26   27 1   
    54   26   61 1   
    55   26   62 1   
    56   27   28 1   
    57   27   63 1   
    58   27   64 1   
    59   28   29 1   
    60   28   65 1   
    61   28   66 1   
    62   29   30 1   
    63   29   67 1   
    64   29   68 1   
    65   30   31 1   
    66   30   69 1   
    67   30   70 1   
    68   31   32 1   
    69   31   71 1   
    70   31   72 1   
    71   32   33 1   
    72   32   73 1   
    73   32   74 1   
    74   33   34 1   
    75   33   75 1   
    76   33   76 1   
    77   34   35 1   
    78   34   77 1   
    79   34   78 1   
    80   35   79 1   
    81   35   80 1   
    82   35   81 1   
@<TRIPOS>SUBSTRUCTURE
     1 LMT         1 TEMP              0 ****  ****    0 ROOT
