@<TRIPOS>MOLECULE
LMU
   81    82     1     0     0
SMALL
bcc


@<TRIPOS>ATOM
      1 C1B         1.0360    5.4320    2.6630 c3        1 LMU      0.337900
      2 C2B         2.5510    5.4060    2.7210 c3        1 LMU      0.098100
      3 C3B         3.0600    5.3710    4.1090 c3        1 LMU      0.066100
      4 C4B         2.4660    6.4550    4.9590 c3        1 LMU      0.123100
      5 C5B         0.9440    6.4770    4.8900 c3        1 LMU      0.106100
      6 C6B         0.4490    7.6830    5.6080 c3        1 LMU      0.139400
      7 O1B         0.5510    4.2170    3.0810 os        1 LMU     -0.429600
      8 O2B         3.0240    4.2360    2.0200 oh        1 LMU     -0.577800
      9 O3B         4.4950    5.5340    4.0820 oh        1 LMU     -0.605800
     10 O4'         2.8640    6.2480    6.3190 oh        1 LMU     -0.595800
     11 O5B         0.4480    6.5090    3.5190 os        1 LMU     -0.451600
     12 O6B         0.6050    8.8030    4.7950 oh        1 LMU     -0.597800
     13 C1'        -2.0200    1.7330    0.9130 c3        1 LMU      0.305900
     14 C2'        -1.1630    2.7220    0.1430 c3        1 LMU      0.093100
     15 C3'        -0.0790    3.2900    0.9720 c3        1 LMU      0.089100
     16 C4'        -0.5830    3.8420    2.2530 c3        1 LMU      0.133100
     17 C5'        -1.4410    2.8460    3.0130 c3        1 LMU      0.101100
     18 C6'        -2.0500    3.5330    4.1830 c3        1 LMU      0.141400
     19 O1'        -1.2680    0.5770    1.1710 os        1 LMU     -0.460600
     20 O2'        -0.5810    2.0540   -0.9830 oh        1 LMU     -0.594800
     21 O3'         0.5760    4.3550    0.2240 oh        1 LMU     -0.605800
     22 O5'        -2.5090    2.2830    2.1870 os        1 LMU     -0.446600
     23 O6'        -3.1930    2.8360    4.5900 oh        1 LMU     -0.595800
     24 C1         -1.9660   -0.6710    0.8320 c3        1 LMU      0.136400
     25 C2         -0.9340   -1.8270    0.7030 c3        1 LMU     -0.082400
     26 C3         -1.5930   -3.0290   -0.0630 c3        1 LMU     -0.078400
     27 C4         -0.4920   -4.0230   -0.5200 c3        1 LMU     -0.079400
     28 C5         -1.1150   -5.0750   -1.4870 c3        1 LMU     -0.078400
     29 C6         -0.0190   -5.6100   -2.4490 c3        1 LMU     -0.079400
     30 C7         -0.6760   -6.5310   -3.5230 c3        1 LMU     -0.079400
     31 C8          0.3050   -6.7410   -4.6880 c3        1 LMU     -0.079400
     32 C9         -0.3790   -7.5530   -5.7930 c3        1 LMU     -0.079400
     33 C10         0.4890   -7.5510   -7.0270 c3        1 LMU     -0.079400
     34 C11        -0.2360   -8.2470   -8.1570 c3        1 LMU     -0.080400
     35 C12         0.6590   -8.2480   -9.4200 c3        1 LMU     -0.092100
     36 H1B         0.7580    5.5790    1.7340 h2        1 LMU      0.125700
     37 H2B         2.8970    6.2020    2.2770 h1        1 LMU      0.063700
     38 H3B         2.8440    4.4950    4.5080 h1        1 LMU      0.079700
     39 H4B         2.8110    7.3230    4.6550 h1        1 LMU      0.071700
     40 H5B         0.5910    5.6700    5.3390 h1        1 LMU      0.068700
     41 H6'2        0.9670    7.8060    6.4410 h1        1 LMU      0.061700
     42 H6'1       -0.5080    7.5660    5.8280 h1        1 LMU      0.061700
     43 H2O1        3.7780    4.4300    1.5970 ho        1 LMU      0.404000
     44 H3O1        4.8880    4.7400    4.2040 ho        1 LMU      0.409000
     45 H4O1        3.5040    6.8430    6.5380 ho        1 LMU      0.421000
     46 H6B         0.1850    9.5140    5.1740 ho        1 LMU      0.411000
     47 H1'        -2.7860    1.4910    0.3640 h2        1 LMU      0.088700
     48 H2'        -1.7300    3.4500   -0.1780 h1        1 LMU      0.100700
     49 H3'         0.5710    2.5920    1.1620 h1        1 LMU      0.069700
     50 H4'        -1.1190    4.6430    2.0650 h1        1 LMU      0.077700
     51 H5'        -0.8690    2.1150    3.3340 h1        1 LMU      0.082700
     52 H6D        -2.2980    4.4480    3.9320 h1        1 LMU      0.060200
     53 H6E        -1.4100    3.5590    4.9130 h1        1 LMU      0.060200
     54 H2O2       -0.9410    2.3650   -1.7310 ho        1 LMU      0.422000
     55 H3O2        0.8430    4.0400   -0.5720 ho        1 LMU      0.421000
     56 H6'        -3.4620    3.1430    5.3740 ho        1 LMU      0.410000
     57 H12        -2.4400   -0.5590   -0.0190 h1        1 LMU      0.038700
     58 H11        -2.6120   -0.8860    1.5400 h1        1 LMU      0.038700
     59 H22        -0.6580   -2.1220    1.6010 hc        1 LMU      0.055200
     60 H21        -0.1580   -1.5150    0.2120 hc        1 LMU      0.055200
     61 H32        -2.0730   -2.6910   -0.8460 hc        1 LMU      0.042700
     62 H31        -2.2260   -3.4930    0.5360 hc        1 LMU      0.042700
     63 H42        -0.1150   -4.4810    0.2670 hc        1 LMU      0.040700
     64 H41         0.2180   -3.5330   -0.9830 hc        1 LMU      0.040700
     65 H52        -1.8260   -4.6580   -2.0070 hc        1 LMU      0.039700
     66 H51        -1.4850   -5.8210   -0.9650 hc        1 LMU      0.039700
     67 H62         0.4230   -4.8590   -2.8900 hc        1 LMU      0.039700
     68 H61         0.6420   -6.1240   -1.9380 hc        1 LMU      0.039700
     69 H72        -1.4940   -6.1100   -3.8570 hc        1 LMU      0.039700
     70 H71        -0.8950   -7.4000   -3.1180 hc        1 LMU      0.039700
     71 H82         0.5780   -5.8750   -5.0430 hc        1 LMU      0.039700
     72 H81         1.0930   -7.2260   -4.3680 hc        1 LMU      0.039700
     73 H92        -1.2440   -7.1520   -6.0030 hc        1 LMU      0.039700
     74 H91        -0.5120   -8.4750   -5.4880 hc        1 LMU      0.039700
     75 H102        1.3260   -8.0200   -6.8380 hc        1 LMU      0.039700
     76 H101        0.6820   -6.6410   -7.2820 hc        1 LMU      0.039700
     77 H112       -0.4370   -9.1770   -7.8950 hc        1 LMU      0.038700
     78 H111       -1.0720   -7.7750   -8.3490 hc        1 LMU      0.038700
     79 H123        0.7730   -7.3310   -9.7400 hc        1 LMU      0.032700
     80 H122        0.2300   -8.7940  -10.1270 hc        1 LMU      0.032700
     81 H121        1.5420   -8.6310   -9.1980 hc        1 LMU      0.032700
@<TRIPOS>BOND
     1    1    2 1   
     2    1    7 1   
     3    1   11 1   
     4    1   36 1   
     5    2    3 1   
     6    2    8 1   
     7    2   37 1   
     8    3    4 1   
     9    3    9 1   
    10    3   38 1   
    11    4    5 1   
    12    4   10 1   
    13    4   39 1   
    14    5    6 1   
    15    5   11 1   
    16    5   40 1   
    17    6   12 1   
    18    6   41 1   
    19    6   42 1   
    20    7   16 1   
    21    8   43 1   
    22    9   44 1   
    23   10   45 1   
    24   12   46 1   
    25   13   14 1   
    26   13   19 1   
    27   13   22 1   
    28   13   47 1   
    29   14   15 1   
    30   14   20 1   
    31   14   48 1   
    32   15   16 1   
    33   15   21 1   
    34   15   49 1   
    35   16   17 1   
    36   16   50 1   
    37   17   18 1   
    38   17   22 1   
    39   17   51 1   
    40   18   23 1   
    41   18   52 1   
    42   18   53 1   
    43   19   24 1   
    44   20   54 1   
    45   21   55 1   
    46   23   56 1   
    47   24   25 1   
    48   24   57 1   
    49   24   58 1   
    50   25   26 1   
    51   25   59 1   
    52   25   60 1   
    53   26   27 1   
    54   26   61 1   
    55   26   62 1   
    56   27   28 1   
    57   27   63 1   
    58   27   64 1   
    59   28   29 1   
    60   28   65 1   
    61   28   66 1   
    62   29   30 1   
    63   29   67 1   
    64   29   68 1   
    65   30   31 1   
    66   30   69 1   
    67   30   70 1   
    68   31   32 1   
    69   31   71 1   
    70   31   72 1   
    71   32   33 1   
    72   32   73 1   
    73   32   74 1   
    74   33   34 1   
    75   33   75 1   
    76   33   76 1   
    77   34   35 1   
    78   34   77 1   
    79   34   78 1   
    80   35   79 1   
    81   35   80 1   
    82   35   81 1   
@<TRIPOS>SUBSTRUCTURE
     1 LMU         1 TEMP              0 ****  ****    0 ROOT
