@<TRIPOS>MOLECULE
LMU
   81    82     1     0     0
SMALL
bcc


@<TRIPOS>ATOM
      1 C1B         0.3200   -1.0450   -5.0300 c3        1 LMU      0.299900
      2 C2B         1.5060   -2.0220   -5.1440 c3        1 LMU      0.095100
      3 C3B         2.8480   -1.2820   -5.0490 c3        1 LMU      0.073100
      4 C4B         2.8630   -0.0900   -6.0210 c3        1 LMU      0.125100
      5 C5B         1.6780    0.8250   -5.6770 c3        1 LMU      0.136100
      6 C6B         1.5920    2.0230   -6.6230 c3        1 LMU      0.136400
      7 O1B         0.2720   -0.6050   -3.6800 os        1 LMU     -0.456600
      8 O2B         1.4430   -3.0400   -4.1680 oh        1 LMU     -0.592800
      9 O3B         3.9230   -2.1270   -5.4230 oh        1 LMU     -0.607800
     10 O4'         4.0490    0.6690   -5.8710 oh        1 LMU     -0.595800
     11 O5B         0.4540    0.1000   -5.8390 os        1 LMU     -0.426600
     12 O6B         0.9180    3.0500   -5.9120 oh        1 LMU     -0.603800
     13 C1'        -2.8100    0.8940   -1.2820 c3        1 LMU      0.305900
     14 C2'        -3.2420   -0.0970   -2.3760 c3        1 LMU      0.093100
     15 C3'        -2.0380   -0.8700   -2.9430 c3        1 LMU      0.088100
     16 C4'        -0.9160    0.1080   -3.3330 c3        1 LMU      0.132100
     17 C5'        -0.5600    0.9580   -2.1010 c3        1 LMU      0.101100
     18 C6'         0.5040    2.0140   -2.4150 c3        1 LMU      0.137400
     19 O1'        -2.4110    0.1330   -0.1590 os        1 LMU     -0.464600
     20 O2'        -4.2160   -1.0000   -1.8970 oh        1 LMU     -0.593800
     21 O3'        -2.4290   -1.5750   -4.1100 oh        1 LMU     -0.604800
     22 O5'        -1.7120    1.6910   -1.6670 os        1 LMU     -0.443600
     23 O6'         0.7060    2.8730   -1.3140 oh        1 LMU     -0.596800
     24 C1         -2.2190    0.9160    1.0250 c3        1 LMU      0.135400
     25 C2         -1.7250   -0.0390    2.0970 c3        1 LMU     -0.083400
     26 C3         -1.4900    0.7040    3.3930 c3        1 LMU     -0.078400
     27 C4         -1.0000   -0.2340    4.4760 c3        1 LMU     -0.078400
     28 C5         -0.7620    0.5050    5.7750 c3        1 LMU     -0.079400
     29 C6         -0.2740   -0.4320    6.8580 c3        1 LMU     -0.079400
     30 C7         -0.0360    0.3070    8.1580 c3        1 LMU     -0.079400
     31 C8          0.4530   -0.6300    9.2410 c3        1 LMU     -0.079400
     32 C9          0.6900    0.1090   10.5410 c3        1 LMU     -0.079400
     33 C10         1.1790   -0.8280   11.6240 c3        1 LMU     -0.079400
     34 C11         1.4170   -0.0900   12.9250 c3        1 LMU     -0.080400
     35 C12         1.9040   -1.0190   14.0070 c3        1 LMU     -0.092100
     36 H1B        -0.6490   -1.5230   -5.3560 h2        1 LMU      0.124700
     37 H2B         1.4360   -2.5620   -6.1310 h1        1 LMU      0.099700
     38 H3B         3.0090   -0.9190   -3.9950 h1        1 LMU      0.062700
     39 H4B         2.7840   -0.4620   -7.0790 h1        1 LMU      0.057700
     40 H5B         1.7630    1.1830   -4.6130 h1        1 LMU      0.082700
     41 H6'2        2.6320    2.3540   -6.8880 h1        1 LMU      0.048200
     42 H6'1        1.0210    1.7520   -7.5490 h1        1 LMU      0.048200
     43 H2O1        1.3030   -2.6150   -3.3110 ho        1 LMU      0.421000
     44 H3O1        3.8040   -2.9560   -4.9400 ho        1 LMU      0.424000
     45 H4O1        4.7840    0.0430   -5.9300 ho        1 LMU      0.426000
     46 H6B         0.8450    3.7980   -6.5160 ho        1 LMU      0.403000
     47 H1'        -3.6280    1.6270   -1.0310 h2        1 LMU      0.089700
     48 H2'        -3.7550    0.4710   -3.2040 h1        1 LMU      0.101700
     49 H3'        -1.6580   -1.5990   -2.1740 h1        1 LMU      0.060700
     50 H4'        -1.2430    0.7550   -4.1920 h1        1 LMU      0.091700
     51 H5'        -0.2150    0.2930   -1.2620 h1        1 LMU      0.074700
     52 H6D         1.4900    1.4990   -2.5710 h1        1 LMU      0.068700
     53 H6E         0.2230    2.5970   -3.3330 h1        1 LMU      0.068700
     54 H2O2       -3.8660   -1.4040   -1.0900 ho        1 LMU      0.422000
     55 H3O2       -3.2350   -2.0600   -3.8830 ho        1 LMU      0.421000
     56 H6'        -0.1330    3.3200   -1.1450 ho        1 LMU      0.409000
     57 H12        -3.1950    1.3860    1.3160 h1        1 LMU      0.040700
     58 H11        -1.4640    1.7200    0.8150 h1        1 LMU      0.040700
     59 H22        -0.7760   -0.5260    1.7510 hc        1 LMU      0.053700
     60 H21        -2.4810   -0.8530    2.2480 hc        1 LMU      0.053700
     61 H32        -2.4410    1.1970    3.7250 hc        1 LMU      0.043200
     62 H31        -0.7340    1.5170    3.2300 hc        1 LMU      0.043200
     63 H42        -0.0490   -0.7280    4.1440 hc        1 LMU      0.041700
     64 H41        -1.7560   -1.0480    4.6390 hc        1 LMU      0.041700
     65 H52        -1.7140    1.0000    6.1060 hc        1 LMU      0.040700
     66 H51        -0.0070    1.3190    5.6120 hc        1 LMU      0.040700
     67 H62         0.6780   -0.9260    6.5270 hc        1 LMU      0.040200
     68 H61        -1.0290   -1.2450    7.0210 hc        1 LMU      0.040200
     69 H72        -0.9870    0.8010    8.4890 hc        1 LMU      0.040200
     70 H71         0.7200    1.1210    7.9950 hc        1 LMU      0.040200
     71 H82         1.4040   -1.1240    8.9100 hc        1 LMU      0.039700
     72 H81        -0.3030   -1.4430    9.4040 hc        1 LMU      0.039700
     73 H92        -0.2610    0.6030   10.8720 hc        1 LMU      0.039700
     74 H91         1.4460    0.9230   10.3780 hc        1 LMU      0.039700
     75 H102        2.1310   -1.3220   11.2940 hc        1 LMU      0.039700
     76 H101        0.4240   -1.6410   11.7870 hc        1 LMU      0.039700
     77 H112        0.4650    0.4050   13.2530 hc        1 LMU      0.038700
     78 H111        2.1710    0.7240   12.7590 hc        1 LMU      0.038700
     79 H123        2.0730   -0.4550   14.9560 hc        1 LMU      0.032700
     80 H122        1.1540   -1.8230   14.2030 hc        1 LMU      0.032700
     81 H121        2.8650   -1.5030   13.7080 hc        1 LMU      0.032700
@<TRIPOS>BOND
     1    1    2 1   
     2    1    7 1   
     3    1   11 1   
     4    1   36 1   
     5    2    3 1   
     6    2    8 1   
     7    2   37 1   
     8    3    4 1   
     9    3    9 1   
    10    3   38 1   
    11    4    5 1   
    12    4   10 1   
    13    4   39 1   
    14    5    6 1   
    15    5   11 1   
    16    5   40 1   
    17    6   12 1   
    18    6   41 1   
    19    6   42 1   
    20    7   16 1   
    21    8   43 1   
    22    9   44 1   
    23   10   45 1   
    24   12   46 1   
    25   13   14 1   
    26   13   19 1   
    27   13   22 1   
    28   13   47 1   
    29   14   15 1   
    30   14   20 1   
    31   14   48 1   
    32   15   16 1   
    33   15   21 1   
    34   15   49 1   
    35   16   17 1   
    36   16   50 1   
    37   17   18 1   
    38   17   22 1   
    39   17   51 1   
    40   18   23 1   
    41   18   52 1   
    42   18   53 1   
    43   19   24 1   
    44   20   54 1   
    45   21   55 1   
    46   23   56 1   
    47   24   25 1   
    48   24   57 1   
    49   24   58 1   
    50   25   26 1   
    51   25   59 1   
    52   25   60 1   
    53   26   27 1   
    54   26   61 1   
    55   26   62 1   
    56   27   28 1   
    57   27   63 1   
    58   27   64 1   
    59   28   29 1   
    60   28   65 1   
    61   28   66 1   
    62   29   30 1   
    63   29   67 1   
    64   29   68 1   
    65   30   31 1   
    66   30   69 1   
    67   30   70 1   
    68   31   32 1   
    69   31   71 1   
    70   31   72 1   
    71   32   33 1   
    72   32   73 1   
    73   32   74 1   
    74   33   34 1   
    75   33   75 1   
    76   33   76 1   
    77   34   35 1   
    78   34   77 1   
    79   34   78 1   
    80   35   79 1   
    81   35   80 1   
    82   35   81 1   
@<TRIPOS>SUBSTRUCTURE
     1 LMU         1 TEMP              0 ****  ****    0 ROOT
