@<TRIPOS>MOLECULE
LMZ
   34    31     1     0     0
SMALL
bcc


@<TRIPOS>ATOM
      1 N1          3.1540   -1.2730    0.7270 n2        1 LMZ     -0.801800
      2 C2          4.5130   -1.4020    0.8220 c1        1 LMZ      0.863900
      3 N3          5.2780   -0.3340    1.2020 n2        1 LMZ     -0.829800
      4 C4          4.6990    0.8410    1.4820 c1        1 LMZ      0.603500
      5 C5          3.3360    0.9720    1.3870 c1        1 LMZ     -0.234600
      6 C6          2.5710   -0.0970    1.0060 c1        1 LMZ      0.558400
      7 N7          1.1140    0.0080    1.0150 n3        1 LMZ     -0.319400
      8 C8          0.3480   -0.3680   -0.1680 c3        1 LMZ      0.018300
      9 C9         -1.1460   -0.3870    0.1730 c3        1 LMZ      0.159100
     10 O9         -1.5150   -1.6700    0.5690 oh        1 LMZ     -0.601800
     11 C10        -1.9460    0.0140   -1.0460 c3        1 LMZ      0.102100
     12 O10        -1.4860    1.2490   -1.5210 oh        1 LMZ     -0.605800
     13 C11        -3.4170    0.1310   -0.6730 c3        1 LMZ      0.108100
     14 O11        -3.8540   -1.0760   -0.1220 oh        1 LMZ     -0.619800
     15 C12        -4.2330    0.4450   -1.9220 c3        1 LMZ      0.090400
     16 O12        -5.5850    0.6400   -1.5650 oh        1 LMZ     -0.607800
     17 N5          2.7230    2.1960    1.7140 ne        1 LMZ     -0.007400
     18 O52         3.3620    3.2380    1.6500 o         1 LMZ     -0.199000
     19 O4          5.3790    1.7900    1.8200 o         1 LMZ     -0.547500
     20 O2          5.0380   -2.4620    0.5700 o         1 LMZ     -0.591500
     21 HN1         2.6420   -1.9900    0.4720 hn        1 LMZ      0.512400
     22 HN3         6.1990   -0.4220    1.2670 hn        1 LMZ      0.514400
     23 HN7         0.6830    0.3010    1.7630 hn        1 LMZ      0.323700
     24 H81         0.5100    0.2760   -0.8760 h1        1 LMZ      0.064200
     25 H82         0.6250   -1.2530   -0.4650 h1        1 LMZ      0.064200
     26 H9         -1.3220    0.2360    0.8940 h1        1 LMZ      0.067700
     27 HO9        -1.7930   -1.6510    1.4210 ho        1 LMZ      0.438000
     28 H10        -1.8390   -0.6670   -1.7470 h1        1 LMZ      0.062700
     29 HO10       -1.6480    1.3100   -2.3840 ho        1 LMZ      0.417000
     30 H11        -3.5320    0.8500   -0.0180 h1        1 LMZ      0.069700
     31 HO11       -4.7330   -1.1570   -0.2450 ho        1 LMZ      0.439000
     32 H121       -3.8850    1.2580   -2.3420 h1        1 LMZ      0.036700
     33 H122       -4.1660   -0.3030   -2.5530 h1        1 LMZ      0.036700
     34 HO12       -6.0740    0.7560   -2.3060 ho        1 LMZ      0.417000
@<TRIPOS>BOND
     1    1    6 2   
     2    1   21 1   
     3    2    3 2   
     4    2   20 2   
     5    3   22 1   
     6    4    5 2   
     7    4   19 2   
     8    5   17 2   
     9    6    7 2   
    10    7    8 1   
    11    7   23 1   
    12    8    9 1   
    13    8   24 1   
    14    8   25 1   
    15    9   10 1   
    16    9   11 1   
    17    9   26 1   
    18   10   27 1   
    19   11   12 1   
    20   11   13 1   
    21   11   28 1   
    22   12   29 1   
    23   13   14 1   
    24   13   15 1   
    25   13   30 1   
    26   14   31 1   
    27   15   16 1   
    28   15   32 1   
    29   15   33 1   
    30   16   34 1   
    31   17   18 1   
@<TRIPOS>SUBSTRUCTURE
     1 LMZ         1 TEMP              0 ****  ****    0 ROOT
