@<TRIPOS>MOLECULE
LMZ
   34    34     1     0     0
SMALL
bcc


@<TRIPOS>ATOM
      1 N1          1.4320    0.2040   -2.0720 n         1 LMZ     -0.496100
      2 C2          1.9920    0.3510   -3.3680 c         1 LMZ      0.820500
      3 N3          1.1480    0.2790   -4.4660 n         1 LMZ     -0.585500
      4 C4         -0.2440    0.0640   -4.3460 c         1 LMZ      0.732700
      5 C5         -0.7940   -0.0900   -2.9940 cc        1 LMZ     -0.334600
      6 C6          0.0740   -0.0360   -1.8670 cd        1 LMZ      0.428600
      7 N7         -0.3880   -0.2490   -0.5880 nh        1 LMZ     -0.753000
      8 C8          0.4170   -0.0680    0.5920 c3        1 LMZ      0.163800
      9 C9         -0.3640   -0.3960    1.8850 c3        1 LMZ      0.110100
     10 O9         -1.5260    0.3950    1.9860 oh        1 LMZ     -0.591800
     11 C10         0.5940   -0.2430    3.0830 c3        1 LMZ      0.106100
     12 O10         1.3540   -1.4230    3.2470 oh        1 LMZ     -0.584800
     13 C11        -0.1790    0.1200    4.3630 c3        1 LMZ      0.113100
     14 O11        -0.4900    1.5020    4.2480 oh        1 LMZ     -0.615800
     15 C12         0.6750   -0.1300    5.6090 c3        1 LMZ      0.098400
     16 O12        -0.1160    0.2920    6.7090 oh        1 LMZ     -0.612800
     17 N5         -2.1920   -0.2940   -2.7740 ne        1 LMZ      0.025700
     18 O52        -2.9340   -0.3620   -3.6630 o         1 LMZ     -0.147300
     19 O4         -0.9030    0.0230   -5.3960 o         1 LMZ     -0.586500
     20 O2          3.2230    0.5420   -3.4570 o         1 LMZ     -0.633500
     21 HN1         2.0800    0.2400   -1.3140 hn        1 LMZ      0.352500
     22 HN3         1.5540    0.3880   -5.3710 hn        1 LMZ      0.357500
     23 HN7        -1.3780   -0.2880   -0.4470 hn        1 LMZ      0.486800
     24 H81         0.7830    0.9980    0.6530 h1        1 LMZ      0.058700
     25 H82         1.3110   -0.7550    0.5590 h1        1 LMZ      0.058700
     26 H9         -0.7530   -1.4550    1.8420 h1        1 LMZ      0.086700
     27 HO9        -1.2670    1.2870    2.2620 ho        1 LMZ      0.432000
     28 H10         1.3610    0.5580    2.8800 h1        1 LMZ      0.097700
     29 HO10        0.7460   -2.1330    3.4950 ho        1 LMZ      0.408000
     30 H11        -1.1340   -0.4730    4.4270 h1        1 LMZ      0.065700
     31 HO11       -0.9230    1.7570    5.0750 ho        1 LMZ      0.437000
     32 H121        1.6230    0.4670    5.5550 h1        1 LMZ      0.044200
     33 H122        0.9220   -1.2200    5.7020 h1        1 LMZ      0.044200
     34 HO12        0.4400    0.2290    7.4940 ho        1 LMZ      0.416000
@<TRIPOS>BOND
     1    1    2 1   
     2    1    6 1   
     3    1   21 1   
     4    2    3 1   
     5    2   20 2   
     6    3    4 1   
     7    3   22 1   
     8    4    5 1   
     9    4   19 2   
    10    5    6 2   
    11    5   17 1   
    12    6    7 1   
    13    7    8 1   
    14    7   23 1   
    15    8    9 1   
    16    8   24 1   
    17    8   25 1   
    18    9   10 1   
    19    9   11 1   
    20    9   26 1   
    21   10   27 1   
    22   11   12 1   
    23   11   13 1   
    24   11   28 1   
    25   12   29 1   
    26   13   14 1   
    27   13   15 1   
    28   13   30 1   
    29   14   31 1   
    30   15   16 1   
    31   15   32 1   
    32   15   33 1   
    33   16   34 1   
    34   17   18 2   
@<TRIPOS>SUBSTRUCTURE
     1 LMZ         1 TEMP              0 ****  ****    0 ROOT
