@<TRIPOS>MOLECULE
LMZ
   35    35     1     0     0
SMALL
bcc


@<TRIPOS>ATOM
      1 N1          0.0380    0.3310    0.0320 n         1 LMZ     -0.479100
      2 C2          1.4720    0.3770   -0.0440 c         1 LMZ      0.822500
      3 N3          2.2000    0.1390    1.1170 n         1 LMZ     -0.568500
      4 C4          1.6000   -0.1440    2.3540 c         1 LMZ      0.712700
      5 C5          0.1090   -0.1860    2.3900 cc        1 LMZ     -0.196600
      6 C6         -0.5990    0.0510    1.2220 cd        1 LMZ      0.238600
      7 N7         -2.0860    0.0050    1.2710 n4        1 LMZ     -0.658800
      8 C8         -2.8080    0.2030   -0.0220 c3        1 LMZ      0.095800
      9 C9         -4.3350    0.0690    0.1680 c3        1 LMZ      0.149100
     10 O9         -4.5390   -1.1570    0.8440 oh        1 LMZ     -0.640800
     11 C10        -5.0130    0.0610   -1.2190 c3        1 LMZ      0.112100
     12 O10        -4.2740    0.9570   -2.0320 oh        1 LMZ     -0.618800
     13 C11        -6.4810    0.5100   -1.0970 c3        1 LMZ      0.109100
     14 O11        -6.9790   -0.0420    0.1120 oh        1 LMZ     -0.635800
     15 C12        -7.2990    0.0210   -2.2990 c3        1 LMZ      0.094400
     16 O12        -8.6270    0.4390   -2.0390 oh        1 LMZ     -0.604800
     17 N5         -0.6060   -0.4690    3.6350 ne        1 LMZ      0.008700
     18 O52        -0.0260   -0.6800    4.6020 o         1 LMZ     -0.007300
     19 O4          2.3020   -0.3450    3.3480 o         1 LMZ     -0.511500
     20 O2          1.9720    0.6290   -1.1500 o         1 LMZ     -0.548500
     21 HN1        -0.4490    0.5040   -0.8240 hn        1 LMZ      0.373500
     22 HN3         3.2000    0.1750    1.0510 hn        1 LMZ      0.388500
     23 HN7        -2.3990    0.7240    1.9420 hn        1 LMZ      0.489800
     24 H81        -2.5900    1.2310   -0.4330 hx        1 LMZ      0.126700
     25 H82        -2.4670   -0.5870   -0.7520 hx        1 LMZ      0.126700
     26 H9         -4.7380    0.9230    0.7830 h1        1 LMZ      0.081700
     27 HO9        -5.4960   -1.3030    0.9260 ho        1 LMZ      0.479000
     28 H10        -4.9580   -0.9790   -1.6490 h1        1 LMZ      0.074700
     29 HO10       -4.7780    1.1030   -2.8440 ho        1 LMZ      0.440000
     30 H11        -6.5340    1.6340   -1.0370 h1        1 LMZ      0.076700
     31 HO11       -7.9430    0.0590    0.0990 ho        1 LMZ      0.460000
     32 H121       -6.9170    0.4870   -3.2450 h1        1 LMZ      0.043200
     33 H122       -7.2520   -1.0970   -2.3810 h1        1 LMZ      0.043200
     34 HO12       -9.1770    0.1140   -2.7630 ho        1 LMZ      0.433000
     35 H72        -2.3680   -0.9210    1.6470 hn        1 LMZ      0.489800
@<TRIPOS>BOND
     1    1    2 1   
     2    1    6 1   
     3    1   21 1   
     4    2    3 1   
     5    2   20 2   
     6    3    4 1   
     7    3   22 1   
     8    4    5 1   
     9    4   19 2   
    10    5    6 2   
    11    5   17 1   
    12    6    7 1   
    13    7    8 1   
    14    7   23 1   
    15    7   35 1   
    16    8    9 1   
    17    8   24 1   
    18    8   25 1   
    19    9   10 1   
    20    9   11 1   
    21    9   26 1   
    22   10   27 1   
    23   11   12 1   
    24   11   13 1   
    25   11   28 1   
    26   12   29 1   
    27   13   14 1   
    28   13   15 1   
    29   13   30 1   
    30   14   31 1   
    31   15   16 1   
    32   15   32 1   
    33   15   33 1   
    34   16   34 1   
    35   17   18 2   
@<TRIPOS>SUBSTRUCTURE
     1 LMZ         1 TEMP              0 ****  ****    0 ROOT
