@<TRIPOS>MOLECULE
LMZ
   34    34     1     0     0
SMALL
bcc


@<TRIPOS>ATOM
      1 N1          0.0900    0.3090    0.0200 ns        1 LMZ     -0.494100
      2 C2          1.5020    0.4420    0.0090 c         1 LMZ      0.820500
      3 N3          2.1940    0.2600    1.1990 ns        1 LMZ     -0.586500
      4 C4          1.5480   -0.0520    2.4170 c         1 LMZ      0.732700
      5 C5          0.0860   -0.1770    2.3990 cc        1 LMZ     -0.335600
      6 C6         -0.6270    0.0340    1.1840 cd        1 LMZ      0.426600
      7 N7         -2.0040    0.0210    1.1410 nu        1 LMZ     -0.743000
      8 C8         -2.7550    0.0560   -0.0890 c3        1 LMZ      0.197800
      9 C9         -4.2790    0.0190    0.1520 c3        1 LMZ      0.157100
     10 O9         -4.5530   -1.1730    0.8660 oh        1 LMZ     -0.608800
     11 C10        -5.0240   -0.0070   -1.2000 c3        1 LMZ      0.107100
     12 O10        -4.2930    0.8070   -2.1040 oh        1 LMZ     -0.597800
     13 C11        -6.4550    0.5440   -1.0490 c3        1 LMZ      0.108100
     14 O11        -6.9820    0.0270    0.1620 oh        1 LMZ     -0.618800
     15 C12        -7.3270    0.1150   -2.2350 c3        1 LMZ      0.090400
     16 O12        -8.6120    0.6580   -1.9860 oh        1 LMZ     -0.607800
     17 N5         -0.6500   -0.5100    3.5760 ne        1 LMZ      0.025700
     18 O52        -0.1150   -0.6700    4.5930 o         1 LMZ     -0.151300
     19 O4          2.2680   -0.1990    3.4160 o         1 LMZ     -0.589500
     20 O2          2.0600    0.7130   -1.0750 o         1 LMZ     -0.636500
     21 HN1        -0.3670    0.4690   -0.8530 hn        1 LMZ      0.354500
     22 HN3         3.1870    0.3520    1.1760 hn        1 LMZ      0.356500
     23 HN7        -2.4860   -0.3460    1.9380 hn        1 LMZ      0.482800
     24 H81        -2.5310    1.0140   -0.6430 h1        1 LMZ      0.067200
     25 H82        -2.4820   -0.8180   -0.7480 h1        1 LMZ      0.067200
     26 H9         -4.6100    0.9160    0.7430 h1        1 LMZ      0.066700
     27 HO9        -5.4860   -1.1490    1.1240 ho        1 LMZ      0.439000
     28 H10        -5.0600   -1.0680   -1.5760 h1        1 LMZ      0.062700
     29 HO10       -4.7500    0.7710   -2.9530 ho        1 LMZ      0.411000
     30 H11        -6.4250    1.6690   -0.9930 h1        1 LMZ      0.069700
     31 HO11       -7.9140    0.2850    0.1940 ho        1 LMZ      0.439000
     32 H121       -6.9120    0.5250   -3.1930 h1        1 LMZ      0.036700
     33 H122       -7.3830   -1.0040   -2.2960 h1        1 LMZ      0.036700
     34 HO12       -9.1970    0.3300   -2.6790 ho        1 LMZ      0.417000
@<TRIPOS>BOND
     1    1    2 1   
     2    1    6 1   
     3    1   21 1   
     4    2    3 1   
     5    2   20 2   
     6    3    4 1   
     7    3   22 1   
     8    4    5 1   
     9    4   19 2   
    10    5    6 2   
    11    5   17 1   
    12    6    7 1   
    13    7    8 1   
    14    7   23 1   
    15    8    9 1   
    16    8   24 1   
    17    8   25 1   
    18    9   10 1   
    19    9   11 1   
    20    9   26 1   
    21   10   27 1   
    22   11   12 1   
    23   11   13 1   
    24   11   28 1   
    25   12   29 1   
    26   13   14 1   
    27   13   15 1   
    28   13   30 1   
    29   14   31 1   
    30   15   16 1   
    31   15   32 1   
    32   15   33 1   
    33   16   34 1   
    34   17   18 2   
@<TRIPOS>SUBSTRUCTURE
     1 LMZ         1 TEMP              0 ****  ****    0 ROOT
