@<TRIPOS>MOLECULE
LN0
   60    59     1     0     0
SMALL
bcc


@<TRIPOS>ATOM
      1 C4          0.2520   -0.5560   -0.7560 c3        1 LN0      0.002000
      2 C14         0.1170    2.3750   -7.1630 c3        1 LN0     -0.099000
      3 C5          0.3110    0.0420    3.5840 c1        1 LN0     -1.055000
      4 C6         -1.6650   -0.2680    5.2710 c3        1 LN0     -0.713000
      5 C11         1.1940    1.3710   -5.3170 c3        1 LN0     -0.142000
      6 C7         -0.1050   -0.5970   -2.2700 c3        1 LN0     -0.145000
      7 C8         -1.6240   -0.4870   -2.4500 c2        1 LN0      0.228000
      8 C9         -2.3710   -1.7550   -2.2460 c3        1 LN0     -0.269000
      9 C12         0.4700    2.5820   -4.7760 c1        1 LN0      0.030000
     10 C13        -0.1620    3.2590   -5.9170 c3        1 LN0     -0.216000
     11 N1          0.6450    0.4740   -3.0020 ny        1 LN0     -0.100000
     12 N2          0.7690    1.1390   -6.7030 n3        1 LN0     -0.255000
     13 C3          0.0440    0.8510   -0.1690 c3        1 LN0     -0.051000
     14 C18        -0.0970    6.8650   -7.2430 c3        1 LN0     -0.215000
     15 C16         0.2950    4.7010   -6.0740 c3        1 LN0     -0.128000
     16 C15         1.7910    0.6230   -7.5770 c3        1 LN0     -0.133000
     17 O8         -2.1360    0.5900   -2.7600 o         1 LN0     -0.263000
     18 O5          1.6180   -0.9380   -0.7280 oh        1 LN0     -0.349000
     19 O7          1.1650    1.6540   -0.4900 oh        1 LN0     -0.350000
     20 C2         -0.2910    0.8650    1.3350 c3        1 LN0      0.006000
     21 O6         -0.3030    2.2060    1.7740 oh        1 LN0     -0.295000
     22 C1          0.6450   -0.0140    2.1970 c3        1 LN0      0.160000
     23 O4          1.9840    0.3990    1.8970 oh        1 LN0     -0.404000
     24 S1         -0.0240    0.0890    4.9150 ss        1 LN0      1.314000
     25 H1          0.2420   -1.5990   -2.6750 hx        1 LN0      0.188000
     26 H3          0.7490    2.9330   -7.9080 h1        1 LN0      0.114500
     27 H4          1.9460   -0.8500    0.1800 ho        1 LN0      0.259000
     28 H5         -1.9750   -1.2960    4.9740 h1        1 LN0      0.126333
     29 H6         -2.3880    0.4380    4.8000 h1        1 LN0      0.126333
     30 H7         -1.7940   -0.1870    6.3790 h1        1 LN0      0.126333
     31 H8          2.3100    1.5950   -5.2270 h1        1 LN0      0.168000
     32 H9         -0.3810   -1.3160   -0.2210 h1        1 LN0      0.122000
     33 H10        -1.8970   -2.3880   -1.4570 hc        1 LN0      0.131000
     34 H11        -3.4310   -1.5380   -1.9580 hc        1 LN0      0.131000
     35 H12        -2.3800   -2.3310   -3.2080 hc        1 LN0      0.131000
     36 H13        -1.4310    2.8900   -2.3010 ha        1 LN0      0.003500
     37 H14        -1.2840    2.9610   -2.9610 ha        1 LN0      0.003500
     38 H15        -1.2750    3.2660   -5.6970 hc        1 LN0      0.181000
     39 H16         0.1050    1.3690   -2.9600 hn        1 LN0      0.292500
     40 H18        -0.8160    1.3630   -0.7020 h1        1 LN0      0.139000
     41 H19        -1.6440    5.4790   -6.6470 hc        1 LN0      0.086500
     42 H20        -0.0810    7.4210   -6.2750 hc        1 LN0      0.083667
     43 H21         0.9360    6.8650   -7.6670 hc        1 LN0      0.083667
     44 H22        -0.6190    4.9180   -8.0260 hc        1 LN0      0.086500
     45 H23        -0.7680    7.4090   -7.9510 hc        1 LN0      0.083667
     46 H24         1.3550    4.7200   -6.4410 hc        1 LN0      0.101000
     47 H25         0.2720    5.2030   -5.0700 hc        1 LN0      0.101000
     48 H26         1.3340    0.4580   -8.5880 h1        1 LN0      0.095000
     49 H27         2.1410   -0.3630   -7.1710 h1        1 LN0      0.095000
     50 H28         2.6750    1.3090   -7.6880 h1        1 LN0      0.095000
     51 H29         1.8870    1.4430    0.1200 ho        1 LN0      0.244000
     52 H30        -1.3490    0.5060    1.4780 h1        1 LN0      0.135000
     53 H31         0.6070    2.5320    1.7270 ho        1 LN0      0.216000
     54 H32         0.5690   -1.0870    1.8360 h1        1 LN0      0.089000
     55 H33         2.4530    0.5520    2.7250 ho        1 LN0      0.245000
     56 C10         0.9570    0.1500   -4.4400 c2        1 LN0      0.286000
     57 C17        -0.5930    5.4560   -7.0410 c3        1 LN0     -0.161000
     58 O9          1.0310   -1.0240   -4.7630 o         1 LN0     -0.172000
     59 H121        1.5320    0.6360   -2.4920 hn        1 LN0      0.292500
     60 H2         -0.8430    2.0780   -7.6630 h1        1 LN0      0.114500
@<TRIPOS>BOND
     1    1    6 1   
     2    1   13 1   
     3    1   18 1   
     4    1   32 1   
     5    2   10 1   
     6    2   12 1   
     7    2   26 1   
     8    2   60 1   
     9    3   22 1   
    10    3   24 1   
    11    4   24 1   
    12    4   28 1   
    13    4   29 1   
    14    4   30 1   
    15    5    9 1   
    16    5   12 1   
    17    5   31 1   
    18    5   56 1   
    19    6    7 1   
    20    6   11 1   
    21    6   25 1   
    22    7    8 1   
    23    7   17 1   
    24    8   33 1   
    25    8   34 1   
    26    8   35 1   
    27    9   10 1   
    28   10   15 1   
    29   10   38 1   
    30   11   39 1   
    31   11   56 1   
    32   11   59 1   
    33   12   16 1   
    34   13   19 1   
    35   13   20 1   
    36   13   40 1   
    37   14   42 1   
    38   14   43 1   
    39   14   45 1   
    40   14   57 1   
    41   15   46 1   
    42   15   47 1   
    43   15   57 1   
    44   16   48 1   
    45   16   49 1   
    46   16   50 1   
    47   18   27 1   
    48   19   51 1   
    49   20   21 1   
    50   20   22 1   
    51   20   52 1   
    52   21   53 1   
    53   22   23 1   
    54   22   54 1   
    55   23   55 1   
    56   36   37 1   
    57   41   57 1   
    58   44   57 1   
    59   56   58 1   
@<TRIPOS>SUBSTRUCTURE
     1 LN0         1 TEMP              0 ****  ****    0 ROOT
