@<TRIPOS>MOLECULE
LN0
   59    58     1     0     0
SMALL
bcc


@<TRIPOS>ATOM
      1 C4          0.9870   -1.1070    2.4110 c3        1 LN0      0.019000
      2 C14        -0.6180    2.8540   -3.3370 c3        1 LN0     -0.077000
      3 C5          0.9450   -2.2020    4.6030 c3        1 LN0     -0.087000
      4 C6         -0.4540   -1.2540    6.9610 c3        1 LN0     -0.322000
      5 C11        -0.7640    1.3890   -1.4490 c3        1 LN0     -0.033000
      6 C7          0.5080   -1.2660    1.0080 c3        1 LN0     -0.022000
      7 C8         -0.6670   -2.2390    0.9750 c1        1 LN0      0.226000
      8 C9         -0.5090   -3.6060    0.2990 c2        1 LN0     -0.266000
      9 C10        -0.1440    0.1940   -0.9500 c1        1 LN0      0.287000
     10 C12        -1.7540    1.0450   -2.7170 c3        1 LN0     -0.164000
     11 C13        -1.3710    1.9900   -3.8500 c3        1 LN0     -0.116000
     12 N1          0.0850    0.0300    0.4830 n2        1 LN0     -0.366000
     13 N2          0.1280    2.1610   -2.0830 n3        1 LN0     -0.239000
     14 C3          2.5090   -1.1510    2.4160 c3        1 LN0      0.018000
     15 C18        -3.8040    3.5920   -6.6070 c3        1 LN0     -0.211000
     16 C17        -2.6280    2.7790   -6.0390 c3        1 LN0     -0.160000
     17 C16        -2.7390    2.7170   -4.4790 c3        1 LN0     -0.152000
     18 C15         1.2440    1.3370   -2.5720 c3        1 LN0     -0.134000
     19 O9          0.1190   -0.7000   -1.7020 o         1 LN0     -0.356000
     20 O8         -1.6930   -1.9710    1.5690 o         1 LN0     -0.302000
     21 O5          0.3920   -2.1620    3.2350 os        1 LN0     -0.248000
     22 O7          2.9420   -2.3230    1.7160 oh        1 LN0     -0.317000
     23 C2          3.0640   -1.1810    3.7770 c3        1 LN0     -0.039000
     24 O6          4.4940   -1.4140    3.6910 oh        1 LN0     -0.331000
     25 C1          2.4510   -2.2560    4.6140 c3        1 LN0     -0.021000
     26 O4          2.9130   -2.1100    5.9780 oh        1 LN0     -0.318000
     27 S1          0.4230   -0.7690    5.4690 ss        1 LN0     -0.004000
     28 H1          0.6960   -0.2440    2.7460 h1        1 LN0      0.116000
     29 H2          0.0470    3.1530   -3.9990 h1        1 LN0      0.087500
     30 H3         -1.1510    3.6220   -3.0270 h1        1 LN0      0.087500
     31 H4          0.5950   -2.9980    5.0630 h2        1 LN0      0.145000
     32 H5         -1.0370   -0.5050    7.2620 h1        1 LN0      0.111667
     33 H6          0.1920   -1.4660    7.6650 h1        1 LN0      0.111667
     34 H7         -1.0030   -2.0400    6.7760 h1        1 LN0      0.111667
     35 H8         -1.1810    1.7530   -0.6270 h1        1 LN0      0.107000
     36 H9          1.2370   -1.6190    0.4540 h1        1 LN0      0.173000
     37 H10         0.3950   -3.6830   -0.0740 ha        1 LN0      0.112000
     38 H11        -1.1650   -3.6930   -0.4180 ha        1 LN0      0.112000
     39 H12        -0.6530   -4.3200    0.9640 ha        1 LN0      0.112000
     40 H13        -1.6250    0.1000   -3.0050 hc        1 LN0      0.101000
     41 H14        -2.6890    1.1920   -2.4600 hc        1 LN0      0.101000
     42 H15        -0.8890    1.4940   -4.5610 hc        1 LN0      0.101000
     43 H16         0.0080    0.7550    1.0490 hn        1 LN0      0.232000
     44 H18         2.8520   -0.3560    1.9490 h1        1 LN0      0.105000
     45 H19        -4.6400    3.2600   -6.2320 hc        1 LN0      0.072667
     46 H20        -3.6920    4.5320   -6.3710 hc        1 LN0      0.072667
     47 H21        -3.8240    3.5000   -7.5890 hc        1 LN0      0.072667
     48 H22        -2.6530    1.8730   -6.4030 hc        1 LN0      0.079000
     49 H23        -1.7890    3.2050   -6.2890 hc        1 LN0      0.079000
     50 H24        -2.8200    3.6320   -4.1190 hc        1 LN0      0.083000
     51 H25        -3.5300    2.1960   -4.2280 hc        1 LN0      0.083000
     52 H26         1.8550    1.9030   -3.1250 h1        1 LN0      0.081000
     53 H27         0.8940    0.6010   -3.1210 h1        1 LN0      0.081000
     54 H28         1.7390    0.9710   -1.8140 h1        1 LN0      0.081000
     55 H29         3.7790   -2.1950    1.4040 ho        1 LN0      0.224000
     56 H30         2.9090   -0.3230    4.2000 h1        1 LN0      0.099000
     57 H31         4.9240   -0.7300    4.0360 ho        1 LN0      0.225000
     58 H32         2.7390   -3.1250    4.2730 h1        1 LN0      0.154000
     59 H33         3.4190   -2.8220    6.2020 ho        1 LN0      0.219000
@<TRIPOS>BOND
     1    1    6 1   
     2    1   14 1   
     3    1   21 1   
     4    1   28 1   
     5    2   11 1   
     6    2   13 1   
     7    2   29 1   
     8    2   30 1   
     9    3   21 1   
    10    3   25 1   
    11    3   27 1   
    12    3   31 1   
    13    4   27 1   
    14    4   32 1   
    15    4   33 1   
    16    4   34 1   
    17    5    9 1   
    18    5   10 1   
    19    5   13 1   
    20    5   35 1   
    21    6    7 1   
    22    6   12 1   
    23    6   36 1   
    24    7   20 1   
    25    8   37 1   
    26    8   38 1   
    27    8   39 1   
    28    9   19 1   
    29   10   11 1   
    30   10   40 1   
    31   10   41 1   
    32   11   17 1   
    33   11   42 1   
    34   12   43 1   
    35   13   18 1   
    36   14   22 1   
    37   14   23 1   
    38   14   44 1   
    39   15   16 1   
    40   15   45 1   
    41   15   46 1   
    42   15   47 1   
    43   16   17 1   
    44   16   48 1   
    45   16   49 1   
    46   17   50 1   
    47   17   51 1   
    48   18   52 1   
    49   18   53 1   
    50   18   54 1   
    51   22   55 1   
    52   23   24 1   
    53   23   25 1   
    54   23   56 1   
    55   24   57 1   
    56   25   26 1   
    57   25   58 1   
    58   26   59 1   
@<TRIPOS>SUBSTRUCTURE
     1 LN0         1 TEMP              0 ****  ****    0 ROOT
