@<TRIPOS>MOLECULE
LN0
   59    60     1     0     0
SMALL
bcc


@<TRIPOS>ATOM
      1 C4          1.8160    0.1400    0.0520 c3        1 LN0      0.133100
      2 C14        -5.2750   -0.5390    0.8470 c3        1 LN0      0.164800
      3 C5          4.1520    0.6200   -0.0960 c3        1 LN0      0.207200
      4 C6          4.4460    3.2480   -0.9650 c3        1 LN0     -0.021000
      5 C11        -2.9610   -0.7970    0.3910 c3        1 LN0      0.114500
      6 C7          0.6620    0.2810    1.0830 c3        1 LN0     -0.000300
      7 C8          0.7430    1.6810    1.7110 c         1 LN0      0.565100
      8 C9          1.4050    1.7360    3.0430 c3        1 LN0     -0.198100
      9 C12        -3.3920    0.5200   -0.2870 c3        1 LN0     -0.086400
     10 C13        -4.9180    0.5750   -0.1600 c3        1 LN0     -0.074700
     11 N1         -0.6130    0.0310    0.4560 n         1 LN0     -0.558900
     12 N2         -4.0420   -1.1710    1.3140 n3        1 LN0     -0.715600
     13 C3          2.0140   -1.3220   -0.3770 c3        1 LN0      0.130100
     14 C18        -7.7670    0.4530   -2.7440 c3        1 LN0     -0.093100
     15 C16        -5.6050    0.3920   -1.4980 c3        1 LN0     -0.076400
     16 C15        -4.1450   -2.5840    1.5660 c3        1 LN0      0.153100
     17 O8          0.2820    2.6710    1.1350 o         1 LN0     -0.546100
     18 O5          2.9820    0.6690    0.6980 os        1 LN0     -0.391600
     19 O7          2.1520   -2.1170    0.7870 oh        1 LN0     -0.588800
     20 C2          3.2760   -1.4250   -1.2550 c3        1 LN0      0.072100
     21 O6          3.4770   -2.8030   -1.5160 oh        1 LN0     -0.603800
     22 C1          4.4690   -0.8250   -0.4920 c3        1 LN0      0.090100
     23 O4          5.6630   -0.9650   -1.2270 oh        1 LN0     -0.590800
     24 S1          4.0850    1.6440   -1.5850 ss        1 LN0     -0.371200
     25 H1          1.6140    0.7600   -0.8690 h1        1 LN0      0.075700
     26 H2         -5.7850   -0.1040    1.7490 h1        1 LN0      0.045200
     27 H3         -5.9790   -1.2820    0.3760 h1        1 LN0      0.045200
     28 H4          4.9500    1.0260    0.5840 h2        1 LN0      0.105700
     29 H5          4.4150    3.9310   -1.8450 h1        1 LN0      0.072033
     30 H6          3.6880    3.5770   -0.2190 h1        1 LN0      0.072033
     31 H7          5.4550    3.2910   -0.5000 h1        1 LN0      0.072033
     32 H8         -2.8180   -1.5890   -0.4100 h1        1 LN0      0.051700
     33 H9          0.8290   -0.4960    1.8940 h1        1 LN0      0.135700
     34 H10         2.4310    1.2950    2.9610 hc        1 LN0      0.073033
     35 H11         1.4830    2.7880    3.4080 hc        1 LN0      0.073033
     36 H12         0.8160    1.1350    3.7790 hc        1 LN0      0.073033
     37 H13        -2.9490    1.4070    0.2320 hc        1 LN0      0.056700
     38 H14        -3.0610    0.5320   -1.3530 hc        1 LN0      0.056700
     39 H15        -5.2220    1.5670    0.2670 hc        1 LN0      0.062700
     40 H16        -0.9010    0.7250   -0.1970 hn        1 LN0      0.310500
     41 H18         1.1220   -1.6660   -0.9690 h1        1 LN0      0.066700
     42 H19        -8.8610    0.6640   -2.6620 hc        1 LN0      0.034033
     43 H20        -7.3340    1.1310   -3.5190 hc        1 LN0      0.034033
     44 H21        -7.6370   -0.6010   -3.0900 hc        1 LN0      0.034033
     45 H22        -7.2600    1.7200   -1.0710 hc        1 LN0      0.041200
     46 H23        -7.5560   -0.0090   -0.6440 hc        1 LN0      0.041200
     47 H24        -5.1470    1.0950   -2.2450 hc        1 LN0      0.042200
     48 H25        -5.4330   -0.6500   -1.8750 hc        1 LN0      0.042200
     49 H26        -3.1690   -2.9360    1.9970 h1        1 LN0      0.041367
     50 H27        -4.9590   -2.7490    2.3190 h1        1 LN0      0.041367
     51 H28        -4.3800   -3.1910    0.6470 h1        1 LN0      0.041367
     52 H29         2.3170   -3.0200    0.4820 ho        1 LN0      0.424000
     53 H30         3.1220   -0.8810   -2.2280 h1        1 LN0      0.058700
     54 H31         4.4030   -2.9080   -1.7760 ho        1 LN0      0.426000
     55 H32         4.6390   -1.4300    0.4490 h1        1 LN0      0.115700
     56 H33         5.6400   -0.3230   -1.9540 ho        1 LN0      0.420000
     57 C10        -1.5970   -0.7190    1.0980 c         1 LN0      0.661100
     58 C17        -7.0930    0.6650   -1.4140 c3        1 LN0     -0.081400
     59 O9         -1.3280   -1.3810    2.1150 o         1 LN0     -0.578100
@<TRIPOS>BOND
     1    1    6 1   
     2    1   13 1   
     3    1   18 1   
     4    1   25 1   
     5    2   10 1   
     6    2   12 1   
     7    2   26 1   
     8    2   27 1   
     9    3   18 1   
    10    3   22 1   
    11    3   24 1   
    12    3   28 1   
    13    4   24 1   
    14    4   29 1   
    15    4   30 1   
    16    4   31 1   
    17    5    9 1   
    18    5   12 1   
    19    5   32 1   
    20    5   57 1   
    21    6    7 1   
    22    6   11 1   
    23    6   33 1   
    24    7    8 1   
    25    7   17 2   
    26    8   34 1   
    27    8   35 1   
    28    8   36 1   
    29    9   10 1   
    30    9   37 1   
    31    9   38 1   
    32   10   15 1   
    33   10   39 1   
    34   11   40 1   
    35   11   57 1   
    36   12   16 1   
    37   13   19 1   
    38   13   20 1   
    39   13   41 1   
    40   14   42 1   
    41   14   43 1   
    42   14   44 1   
    43   14   58 1   
    44   15   47 1   
    45   15   48 1   
    46   15   58 1   
    47   16   49 1   
    48   16   50 1   
    49   16   51 1   
    50   19   52 1   
    51   20   21 1   
    52   20   22 1   
    53   20   53 1   
    54   21   54 1   
    55   22   23 1   
    56   22   55 1   
    57   23   56 1   
    58   45   58 1   
    59   46   58 1   
    60   57   59 2   
@<TRIPOS>SUBSTRUCTURE
     1 LN0         1 TEMP              0 ****  ****    0 ROOT
