@<TRIPOS>MOLECULE
LN1
   55    57     1     0     0
SMALL
bcc


@<TRIPOS>ATOM
      1 O8         -5.9060    2.8970   -0.2300 o         1 LN1     -0.583100
      2 C7         -4.9180    2.1600   -0.3620 c         1 LN1      0.588100
      3 C6         -4.9530    0.7380   -0.0690 cc        1 LN1     -0.234200
      4 C9         -6.0370    0.0200    0.5150 cc        1 LN1     -0.157000
      5 CG         -5.6470   -1.3250    0.6240 cd        1 LN1     -0.085300
      6 CD1        -6.3080   -2.4750    1.1530 cd        1 LN1     -0.114000
      7 CE1        -5.6720   -3.6830    1.1440 cc        1 LN1     -0.136000
      8 CZ         -4.3520   -3.7900    0.6090 cc        1 LN1     -0.189000
      9 CE2        -3.7050   -2.6900    0.1010 cd        1 LN1     -0.054300
     10 ND2        -4.3290   -1.4550    0.0880 na        1 LN1      0.018700
     11 C5         -3.8890   -0.1820   -0.3290 cd        1 LN1      0.100900
     12 N4         -2.6680    0.1710   -0.9250 nh        1 LN1     -0.699000
     13 C3         -1.4390   -0.3810   -0.3660 c3        1 LN1      0.052500
     14 C3A        -0.9110   -1.6250   -1.1730 c         1 LN1      0.888600
     15 O3A        -0.3250   -2.5200   -0.5060 o         1 LN1     -0.816300
     16 O3B        -1.1480   -1.6750   -2.4100 o         1 LN1     -0.816300
     17 C2         -0.3470    0.7180   -0.3210 c3        1 LN1     -0.030700
     18 S1         -0.8340    2.1940    0.5640 s4        1 LN1      0.532700
     19 O12        -1.9650    1.6270    1.6950 oh        1 LN1     -0.591800
     20 O13        -1.7480    2.9920   -0.2650 o         1 LN1     -0.531200
     21 CG2         0.0540    1.1390   -1.7190 c3        1 LN1     -0.091100
     22 CG1         0.8310    0.1150    0.4410 c3        1 LN1      0.148400
     23 OAV         1.9360    1.0460    0.3470 os        1 LN1     -0.449900
     24 CAX         3.0610    0.7390    1.0460 c         1 LN1      0.638100
     25 OAD         3.0640   -0.2410    1.7950 o         1 LN1     -0.548000
     26 CAS         4.1690    1.7310    0.8220 c3        1 LN1     -0.083100
     27 CAY         5.3630    1.1300    0.1680 ca        1 LN1     -0.080300
     28 CAQ         5.8020   -0.1510    0.5150 ca        1 LN1     -0.152000
     29 CAM         6.0730    1.8740   -0.7830 ca        1 LN1     -0.119000
     30 CAN         7.2170    1.3580   -1.3870 ca        1 LN1     -0.139000
     31 CAZ         7.6600    0.0740   -1.0460 ca        1 LN1      0.108100
     32 OAH         8.8010   -0.3920   -1.6560 oh        1 LN1     -0.500100
     33 CBA         6.9430   -0.6790   -0.0920 ca        1 LN1      0.042100
     34 OAI         7.4440   -1.9310    0.2040 oh        1 LN1     -0.524100
     35 H7         -3.9360    2.5660   -0.7080 h4        1 LN1      0.053200
     36 H9         -6.9890    0.4480    0.8170 ha        1 LN1      0.157000
     37 HD1        -7.3190   -2.3380    1.5560 ha        1 LN1      0.133000
     38 HE1        -6.1540   -4.5860    1.5430 ha        1 LN1      0.122000
     39 HZ         -3.8430   -4.7630    0.6050 ha        1 LN1      0.146000
     40 HE2        -2.6760   -2.7440   -0.3160 h4        1 LN1      0.220000
     41 HN4        -2.6880    0.0070   -1.9230 hn        1 LN1      0.421800
     42 H3         -1.6170   -0.7150    0.6980 h1        1 LN1      0.066700
     43 HO12       -2.8590    1.5850    1.3430 ho        1 LN1      0.453000
     44 HG2        -0.7580    1.7480   -2.1880 hc        1 LN1      0.057033
     45 HG2A        0.9930    1.7440   -1.6930 hc        1 LN1      0.057033
     46 HG2B        0.2260    0.2360   -2.3590 hc        1 LN1      0.057033
     47 HG1         0.5790   -0.0350    1.5240 h1        1 LN1      0.089700
     48 HG1A        1.1490   -0.8660   -0.0090 h1        1 LN1      0.089700
     49 HAS         3.7770    2.5850    0.2060 hc        1 LN1      0.079200
     50 HASA        4.4620    2.1330    1.8310 hc        1 LN1      0.079200
     51 HAQ         5.2390   -0.7480    1.2540 ha        1 LN1      0.170000
     52 HAM         5.7220    2.8780   -1.0650 ha        1 LN1      0.135000
     53 HAN         7.7750    1.9390   -2.1350 ha        1 LN1      0.148000
     54 HOAH        8.9140   -1.3200   -1.3970 ho        1 LN1      0.435000
     55 HOAI        6.7450   -2.4250    0.6570 ho        1 LN1      0.436000
@<TRIPOS>BOND
     1    1    2 2   
     2    2    3 1   
     3    2   35 1   
     4    3    4 1   
     5    3   11 2   
     6    4    5 2   
     7    4   36 1   
     8    5    6 1   
     9    5   10 1   
    10    6    7 2   
    11    6   37 1   
    12    7    8 1   
    13    7   38 1   
    14    8    9 2   
    15    8   39 1   
    16    9   10 1   
    17    9   40 1   
    18   10   11 1   
    19   11   12 1   
    20   12   13 1   
    21   12   41 1   
    22   13   14 1   
    23   13   17 1   
    24   13   42 1   
    25   14   15 1   
    26   14   16 1   
    27   17   18 1   
    28   17   21 1   
    29   17   22 1   
    30   18   19 1   
    31   18   20 2   
    32   19   43 1   
    33   21   44 1   
    34   21   45 1   
    35   21   46 1   
    36   22   23 1   
    37   22   47 1   
    38   22   48 1   
    39   23   24 1   
    40   24   25 2   
    41   24   26 1   
    42   26   27 1   
    43   26   49 1   
    44   26   50 1   
    45   27   28 ar  
    46   27   29 ar  
    47   28   33 ar  
    48   28   51 1   
    49   29   30 ar  
    50   29   52 1   
    51   30   31 ar  
    52   30   53 1   
    53   31   32 1   
    54   31   33 ar  
    55   32   54 1   
    56   33   34 1   
    57   34   55 1   
@<TRIPOS>SUBSTRUCTURE
     1 LN1         1 TEMP              0 ****  ****    0 ROOT
