@<TRIPOS>MOLECULE
LN1
   55    57     1     0     0
SMALL
bcc


@<TRIPOS>ATOM
      1 O8          0.7660    0.5670    0.3610 o         1 LN1     -0.578100
      2 C7          2.0020    0.5000    0.3050 c         1 LN1      0.582100
      3 C6          2.8080   -0.0440    1.3850 cc        1 LN1     -0.224200
      4 C9          2.3110   -0.5760    2.6120 cc        1 LN1     -0.161000
      5 CG          3.4080   -1.0650    3.3390 cd        1 LN1     -0.081300
      6 CD1         3.5110   -1.7010    4.6130 cd        1 LN1     -0.116000
      7 CE1         4.7310   -2.1120    5.0670 cc        1 LN1     -0.134000
      8 CZ          5.8950   -1.9110    4.2640 cc        1 LN1     -0.192000
      9 CE2         5.8090   -1.2930    3.0410 cd        1 LN1     -0.055300
     10 ND2         4.5890   -0.8460    2.5670 na        1 LN1      0.019700
     11 C5          4.2290   -0.1960    1.3680 cd        1 LN1      0.091900
     12 N4          5.0710    0.2070    0.3150 nu        1 LN1     -0.691000
     13 C3          6.1370    1.1590    0.6330 c3        1 LN1      0.058500
     14 C3A         7.5060    0.4710    0.9580 c         1 LN1      0.890600
     15 O3A         8.3040    1.0930    1.7110 o         1 LN1     -0.827300
     16 O3B         7.7230   -0.6830    0.4900 o         1 LN1     -0.827300
     17 C2          6.3320    2.1420   -0.5470 c3        1 LN1     -0.030700
     18 S1          4.8860    3.1340   -0.9050 s4        1 LN1      0.524700
     19 O12         4.0930    3.2300    0.5910 oh        1 LN1     -0.585800
     20 O13         3.8930    2.3200   -1.6190 o         1 LN1     -0.529200
     21 CG2         6.6870    1.3920   -1.8140 c3        1 LN1     -0.082100
     22 CG1         7.3960    3.1710   -0.1580 c3        1 LN1      0.153400
     23 OAV         8.5710    2.9420   -0.9580 os        1 LN1     -0.423900
     24 CAX         9.6450    3.7450   -0.7070 c         1 LN1      0.642100
     25 OAD         9.4900    4.7590   -0.0240 o         1 LN1     -0.552000
     26 CAS        10.8930    3.2760   -1.4020 c3        1 LN1     -0.074100
     27 CAY        11.7160    2.3800   -0.5440 ca        1 LN1     -0.094300
     28 CAQ        13.1110    2.4650   -0.6240 ca        1 LN1     -0.134000
     29 CAM        11.1130    1.4430    0.3020 ca        1 LN1     -0.092000
     30 CAN        11.8950    0.5820    1.0690 ca        1 LN1     -0.151000
     31 CAZ        13.2880    0.6560    0.9890 ca        1 LN1      0.032100
     32 OAH        14.1350   -0.1640    1.7130 oh        1 LN1     -0.531100
     33 CBA        13.9010    1.6000    0.1410 ca        1 LN1      0.086100
     34 OAI        15.2710    1.7180    0.0210 oh        1 LN1     -0.510100
     35 H7          2.5600    0.8550   -0.5960 h4        1 LN1      0.054200
     36 H9          1.2680   -0.5960    2.9140 ha        1 LN1      0.158000
     37 HD1         2.5860   -1.8370    5.1880 ha        1 LN1      0.134000
     38 HE1         4.8420   -2.6020    6.0440 ha        1 LN1      0.123000
     39 HZ          6.8720   -2.2550    4.6270 ha        1 LN1      0.144000
     40 HE2         6.6920   -1.1330    2.3810 h4        1 LN1      0.225000
     41 HN4         5.4780   -0.5950   -0.1470 hn        1 LN1      0.410800
     42 H3          5.8410    1.7670    1.5380 h1        1 LN1      0.073700
     43 HO12        3.5380    2.4670    0.7730 ho        1 LN1      0.452000
     44 HG2         7.4860    0.6380   -1.5930 hc        1 LN1      0.055367
     45 HG2A        7.0690    2.0950   -2.5940 hc        1 LN1      0.055367
     46 HG2B        5.7910    0.8580   -2.2170 hc        1 LN1      0.055367
     47 HG1         7.6900    3.0790    0.9250 h1        1 LN1      0.070700
     48 HG1A        7.0410    4.2180   -0.3660 h1        1 LN1      0.070700
     49 HAS        10.6000    2.7190   -2.3350 hc        1 LN1      0.074200
     50 HASA       11.4780    4.1870   -1.6990 hc        1 LN1      0.074200
     51 HAQ        13.6010    3.2000   -1.2780 ha        1 LN1      0.139000
     52 HAM        10.0050    1.3740    0.3880 ha        1 LN1      0.214000
     53 HAN        11.4050   -0.1460    1.7320 ha        1 LN1      0.158000
     54 HOAH       13.5790   -0.7370    2.2610 ho        1 LN1      0.428000
     55 HOAI       15.6700    1.0770    0.6270 ho        1 LN1      0.427000
@<TRIPOS>BOND
     1    1    2 2   
     2    2    3 1   
     3    2   35 1   
     4    3    4 1   
     5    3   11 2   
     6    4    5 2   
     7    4   36 1   
     8    5    6 1   
     9    5   10 1   
    10    6    7 2   
    11    6   37 1   
    12    7    8 1   
    13    7   38 1   
    14    8    9 2   
    15    8   39 1   
    16    9   10 1   
    17    9   40 1   
    18   10   11 1   
    19   11   12 1   
    20   12   13 1   
    21   12   41 1   
    22   13   14 1   
    23   13   17 1   
    24   13   42 1   
    25   14   15 1   
    26   14   16 1   
    27   17   18 1   
    28   17   21 1   
    29   17   22 1   
    30   18   19 1   
    31   18   20 2   
    32   19   43 1   
    33   21   44 1   
    34   21   45 1   
    35   21   46 1   
    36   22   23 1   
    37   22   47 1   
    38   22   48 1   
    39   23   24 1   
    40   24   25 2   
    41   24   26 1   
    42   26   27 1   
    43   26   49 1   
    44   26   50 1   
    45   27   28 ar  
    46   27   29 ar  
    47   28   33 ar  
    48   28   51 1   
    49   29   30 ar  
    50   29   52 1   
    51   30   31 ar  
    52   30   53 1   
    53   31   32 1   
    54   31   33 ar  
    55   32   54 1   
    56   33   34 1   
    57   34   55 1   
@<TRIPOS>SUBSTRUCTURE
     1 LN1         1 TEMP              0 ****  ****    0 ROOT
