@<TRIPOS>MOLECULE
LN1
   55    57     1     0     0
SMALL
bcc


@<TRIPOS>ATOM
      1 O8          0.7800    0.5490    0.1530 o         1 LN1     -0.578100
      2 C7          2.0170    0.4760    0.1430 c         1 LN1      0.582100
      3 C6          2.7830   -0.0250    1.2720 cc        1 LN1     -0.224200
      4 C9          2.2410   -0.5040    2.5020 cc        1 LN1     -0.161000
      5 CG          3.3100   -0.9660    3.2860 cd        1 LN1     -0.081300
      6 CD1         3.3640   -1.5490    4.5890 cd        1 LN1     -0.116000
      7 CE1         4.5660   -1.9450    5.1020 cc        1 LN1     -0.134000
      8 CZ          5.7580   -1.7810    4.3320 cc        1 LN1     -0.192000
      9 CE2         5.7190   -1.2140    3.0820 cd        1 LN1     -0.055300
     10 ND2         4.5170   -0.7820    2.5490 na        1 LN1      0.019700
     11 C5          4.2030   -0.1820    1.3110 cd        1 LN1      0.091900
     12 N4          5.0820    0.1750    0.2730 nh        1 LN1     -0.691000
     13 C3          6.1420    1.1350    0.5900 c3        1 LN1      0.058500
     14 C3A         7.4950    0.4560    0.9890 c         1 LN1      0.890600
     15 O3A         8.2710    1.1050    1.7430 o         1 LN1     -0.827300
     16 O3B         7.7230   -0.7170    0.5760 o         1 LN1     -0.827300
     17 C2          6.3830    2.0690   -0.6220 c3        1 LN1     -0.030700
     18 S1          4.9540    3.0500   -1.0710 s4        1 LN1      0.524700
     19 O12         4.1100    3.2090    0.3920 oh        1 LN1     -0.585800
     20 O13         3.9820    2.2110   -1.7840 o         1 LN1     -0.529200
     21 CG2         6.7780    1.2670   -1.8440 c3        1 LN1     -0.082100
     22 CG1         7.4370    3.1090   -0.2370 c3        1 LN1      0.153400
     23 OAV         8.6380    2.8460   -0.9870 os        1 LN1     -0.423900
     24 CAX         9.7060    3.6550   -0.7310 c         1 LN1      0.642100
     25 OAD         9.5310    4.6950   -0.0930 o         1 LN1     -0.552000
     26 CAS        10.9740    3.1560   -1.3640 c3        1 LN1     -0.074100
     27 CAY        11.7640    2.2900   -0.4450 ca        1 LN1     -0.094300
     28 CAQ        13.1600    2.3640   -0.4820 ca        1 LN1     -0.134000
     29 CAM        11.1260    1.3890    0.4160 ca        1 LN1     -0.092000
     30 CAN        11.8770    0.5550    1.2410 ca        1 LN1     -0.151000
     31 CAZ        13.2730    0.6190    1.2050 ca        1 LN1      0.032100
     32 OAH        14.0900   -0.1760    1.9890 oh        1 LN1     -0.531100
     33 CBA        13.9190    1.5270    0.3420 ca        1 LN1      0.086100
     34 OAI        15.2930    1.6330    0.2630 oh        1 LN1     -0.510100
     35 H7          2.6080    0.7920   -0.7510 h4        1 LN1      0.054200
     36 H9          1.1880   -0.5080    2.7680 ha        1 LN1      0.158000
     37 HD1         2.4190   -1.6580    5.1360 ha        1 LN1      0.134000
     38 HE1         4.6410   -2.3940    6.1010 ha        1 LN1      0.123000
     39 HZ          6.7210   -2.1120    4.7440 ha        1 LN1      0.144000
     40 HE2         6.6240   -1.0840    2.4490 h4        1 LN1      0.225000
     41 HN4         5.5020   -0.6470   -0.1420 hn        1 LN1      0.410800
     42 H3          5.8180    1.7800    1.4580 h1        1 LN1      0.072700
     43 HO12        3.5460    2.4560    0.5850 ho        1 LN1      0.452000
     44 HG2         7.1900    1.9370   -2.6380 hc        1 LN1      0.055367
     45 HG2A        7.5650    0.5210   -1.5650 hc        1 LN1      0.055367
     46 HG2B        5.8940    0.7190   -2.2570 hc        1 LN1      0.055367
     47 HG1         7.0930    4.1490   -0.4990 h1        1 LN1      0.070700
     48 HG1A        7.6930    3.0600    0.8580 h1        1 LN1      0.070700
     49 HAS        10.7110    2.5650   -2.2850 hc        1 LN1      0.074200
     50 HASA       11.5740    4.0530   -1.6750 hc        1 LN1      0.074200
     51 HAQ        13.6760    3.0710   -1.1460 ha        1 LN1      0.139000
     52 HAM        10.0160    1.3290    0.4680 ha        1 LN1      0.214000
     53 HAN        11.3610   -0.1450    1.9160 ha        1 LN1      0.158000
     54 HOAH       13.5130   -0.7250    2.5390 ho        1 LN1      0.428000
     55 HOAI       15.6680    1.0140    0.9070 ho        1 LN1      0.427000
@<TRIPOS>BOND
     1    1    2 2   
     2    2    3 1   
     3    2   35 1   
     4    3    4 1   
     5    3   11 2   
     6    4    5 2   
     7    4   36 1   
     8    5    6 1   
     9    5   10 1   
    10    6    7 2   
    11    6   37 1   
    12    7    8 1   
    13    7   38 1   
    14    8    9 2   
    15    8   39 1   
    16    9   10 1   
    17    9   40 1   
    18   10   11 1   
    19   11   12 1   
    20   12   13 1   
    21   12   41 1   
    22   13   14 1   
    23   13   17 1   
    24   13   42 1   
    25   14   15 1   
    26   14   16 1   
    27   17   18 1   
    28   17   21 1   
    29   17   22 1   
    30   18   19 1   
    31   18   20 2   
    32   19   43 1   
    33   21   44 1   
    34   21   45 1   
    35   21   46 1   
    36   22   23 1   
    37   22   47 1   
    38   22   48 1   
    39   23   24 1   
    40   24   25 2   
    41   24   26 1   
    42   26   27 1   
    43   26   49 1   
    44   26   50 1   
    45   27   28 ar  
    46   27   29 ar  
    47   28   33 ar  
    48   28   51 1   
    49   29   30 ar  
    50   29   52 1   
    51   30   31 ar  
    52   30   53 1   
    53   31   32 1   
    54   31   33 ar  
    55   32   54 1   
    56   33   34 1   
    57   34   55 1   
@<TRIPOS>SUBSTRUCTURE
     1 LN1         1 TEMP              0 ****  ****    0 ROOT
