@<TRIPOS>MOLECULE
LN1
   55    48     1     0     0
SMALL
bcc


@<TRIPOS>ATOM
      1 O8         -1.9410   -0.7630    5.0080 o         1 LN1     -0.347000
      2 C7         -0.9860   -0.7340    4.2270 c1        1 LN1      0.233000
      3 C6         -0.8120   -1.8550    3.1820 c2        1 LN1     -0.229000
      4 C9         -1.8420   -2.7530    3.2890 c1        1 LN1     -0.146000
      5 CG         -1.7060   -3.6890    2.2570 c1        1 LN1     -0.063000
      6 CD1        -2.4160   -4.8580    1.9570 c1        1 LN1     -0.100000
      7 CE1        -1.9990   -5.6670    0.9350 c2        1 LN1     -0.142000
      8 CZ         -0.8820   -5.3300    0.2040 c1        1 LN1     -0.187000
      9 CE2        -0.1780   -4.1670    0.5050 c2        1 LN1     -0.028000
     10 ND2        -0.5980   -3.3560    1.5300 n1        1 LN1     -0.032000
     11 C5         -0.0360   -2.2210    2.0960 c1        1 LN1      0.044000
     12 N4          1.2290   -1.7060    1.5860 n2        1 LN1     -0.250000
     13 C3          1.6110   -0.3510    1.8550 c3        1 LN1     -0.056000
     14 C3A         2.3890   -0.2930    3.1560 c2        1 LN1      0.319000
     15 O3A         2.4690    0.7940    3.7950 o         1 LN1     -0.515500
     16 O3B         2.9120   -1.3480    3.6300 o         1 LN1     -0.515500
     17 C2          2.4680    0.1590    0.7350 c3        1 LN1     -0.477000
     18 S1          4.1630    0.1610    1.2400 s4        1 LN1      1.627000
     19 O12         5.2330   -0.4030    0.3120 oh        1 LN1     -0.747000
     20 O13         4.5320    0.7200    2.5000 o         1 LN1     -0.839000
     21 CG2         2.3060   -0.7270   -0.4640 c3        1 LN1     -0.158000
     22 CG1         2.0380    1.5970    0.3760 c3        1 LN1      0.011000
     23 OAV         2.1840    1.8040   -1.0300 os        1 LN1     -0.279000
     24 CAX         1.1290    2.5880   -1.6190 c2        1 LN1      0.302000
     25 OAD         0.8450    3.6810   -1.1480 o         1 LN1     -0.358000
     26 CAS         0.4500    2.1090   -2.9050 c3        1 LN1     -0.117000
     27 CAY        -0.9310    2.7690   -3.0340 c2        1 LN1     -0.076000
     28 CAQ        -1.1930    3.6340   -4.0940 c2        1 LN1     -0.128000
     29 CAM        -1.9170    2.5110   -2.0870 c1        1 LN1     -0.110000
     30 CAN        -3.1630    3.1160   -2.1970 c2        1 LN1     -0.163000
     31 CAZ        -3.4240    3.9770   -3.2520 c1        1 LN1     -0.004000
     32 OAH        -4.7320    4.5010   -3.4310 o         1 LN1     -0.282000
     33 CBA        -2.4320    4.2370   -4.2050 c2        1 LN1      0.049000
     34 OAI        -2.7340    5.0300   -5.3440 oh        1 LN1     -0.260000
     35 H7         -0.3300   -0.0100    4.2810 DU        1 LN1      0.153200
     36 H9         -2.5980   -2.6900    3.9110 DU        1 LN1      0.153200
     37 HD1        -3.2430   -5.0540    2.4190 DU        1 LN1      0.153200
     38 HE1        -2.4570   -6.5080    0.7620 ha        1 LN1      0.127000
     39 HZ         -0.6240   -5.8680   -0.5620 DU        1 LN1      0.153200
     40 HE2         0.5520   -3.8820   -0.0680 h4        1 LN1      0.188000
     41 HN4         1.7690   -2.2430    1.0680 hn        1 LN1      0.195000
     42 H3          0.8140    0.2020    1.9290 h1        1 LN1      0.104000
     43 HO12        6.0230   -0.0880    0.5480 ho        1 LN1      0.199000
     44 HG2         2.3830   -1.6660   -0.1900 hc        1 LN1      0.071667
     45 HG2A        3.0090   -0.5190   -1.1230 hc        1 LN1      0.071667
     46 HG2B        1.4270   -0.5750   -0.8660 hc        1 LN1      0.071667
     47 HG1         2.6060    2.2420    0.8630 h1        1 LN1      0.110500
     48 HG1A        1.0970    1.7310    0.6310 h1        1 LN1      0.110500
     49 HAS         0.9960    2.3530   -3.6680 hc        1 LN1      0.116000
     50 HASA        0.3450    1.1300   -2.8760 hc        1 LN1      0.116000
     51 HAQ        -0.5070    3.8130   -4.7520 ha        1 LN1      0.146000
     52 HAM        -1.7320    1.9020   -1.3410 DU        1 LN1      0.153200
     53 HAN        -3.8730    2.8720   -1.5880 ha        1 LN1      0.167000
     54 HOAH       -4.8520    5.1960   -2.8830 ho        1 LN1      0.234000
     55 HOAI       -2.8390    4.4970   -6.0610 ho        1 LN1      0.229000
@<TRIPOS>BOND
     1    1    2 1   
     2    2    3 1   
     3    3    4 1   
     4    3   11 1   
     5    4    5 1   
     6    5    6 1   
     7    6    7 1   
     8    7    8 1   
     9    7   38 1   
    10    8    9 1   
    11    9   10 1   
    12    9   40 1   
    13   12   13 1   
    14   12   41 1   
    15   13   14 1   
    16   13   17 1   
    17   13   42 1   
    18   14   15 1   
    19   14   16 1   
    20   17   18 1   
    21   17   21 1   
    22   17   22 1   
    23   18   19 1   
    24   18   20 1   
    25   19   43 1   
    26   21   44 1   
    27   21   45 1   
    28   21   46 1   
    29   22   23 1   
    30   22   47 1   
    31   22   48 1   
    32   23   24 1   
    33   24   25 1   
    34   24   26 1   
    35   26   27 1   
    36   26   49 1   
    37   26   50 1   
    38   27   28 1   
    39   27   29 1   
    40   28   33 1   
    41   28   51 1   
    42   29   30 1   
    43   30   31 1   
    44   30   53 1   
    45   31   33 1   
    46   32   54 1   
    47   33   34 1   
    48   34   55 1   
@<TRIPOS>SUBSTRUCTURE
     1 LN1         1 TEMP              0 ****  ****    0 ROOT
