@<TRIPOS>MOLECULE
LN1
   56    58     1     0     0
SMALL
bcc


@<TRIPOS>ATOM
      1 O8          2.0160    1.8950   -0.5660 o         1 LN1     -0.513100
      2 C7          2.5210    0.7960   -0.3300 c         1 LN1      0.587100
      3 C6          2.6510    0.2600    1.0260 cc        1 LN1     -0.153200
      4 C9          1.6440    0.2240    2.0150 cc        1 LN1     -0.158000
      5 CG          2.1910   -0.4130    3.1620 cd        1 LN1     -0.026300
      6 CD1         1.6380   -0.7330    4.4340 cd        1 LN1     -0.112000
      7 CE1         2.4180   -1.3630    5.3690 cc        1 LN1     -0.106000
      8 CZ          3.7680   -1.6940    5.0660 cc        1 LN1     -0.140000
      9 CE2         4.3150   -1.3900    3.8380 cd        1 LN1     -0.092300
     10 ND2         3.5400   -0.7540    2.8860 na        1 LN1      0.085700
     11 C5          3.8230   -0.3550    1.5690 cd        1 LN1     -0.126100
     12 N4          5.1010   -0.4900    0.9140 n4        1 LN1     -0.604800
     13 C3          6.1040    0.5630    1.3240 c3        1 LN1     -0.022500
     14 C3A         7.0190   -0.0700    2.4750 c         1 LN1      0.921600
     15 O3A         7.5050    0.7250    3.2960 o         1 LN1     -0.765800
     16 O3B         7.1180   -1.3310    2.4450 o         1 LN1     -0.765800
     17 C2          6.9720    1.0420    0.1520 c3        1 LN1     -0.051700
     18 S1          6.1270    1.8360   -1.2210 s4        1 LN1      0.579700
     19 O12         5.1970    2.9900   -0.4030 oh        1 LN1     -0.574800
     20 O13         5.0070    0.9190   -1.5420 o         1 LN1     -0.590200
     21 CG2         7.7380   -0.1140   -0.4620 c3        1 LN1     -0.112100
     22 CG1         7.9290    2.1000    0.7200 c3        1 LN1      0.146400
     23 OAV         8.8380    2.4540   -0.3400 os        1 LN1     -0.479900
     24 CAX         9.6980    3.4960   -0.0930 c         1 LN1      0.640100
     25 OAD         9.5630    4.1330    0.9480 o         1 LN1     -0.503000
     26 CAS        10.6760    3.7100   -1.2120 c3        1 LN1     -0.075100
     27 CAY        11.9160    2.9060   -1.0310 ca        1 LN1     -0.087300
     28 CAQ        13.1620    3.5310   -1.1400 ca        1 LN1     -0.120000
     29 CAM        11.8370    1.5320   -0.7800 ca        1 LN1     -0.121000
     30 CAN        12.9930    0.7700   -0.6350 ca        1 LN1     -0.164000
     31 CAZ        14.2420    1.3860   -0.7480 ca        1 LN1      0.047100
     32 OAH        15.4390    0.7110   -0.6310 oh        1 LN1     -0.515100
     33 CBA        14.3300    2.7720   -1.0020 ca        1 LN1      0.113100
     34 OAI        15.5290    3.4310   -1.1340 oh        1 LN1     -0.493100
     35 H7          2.9150    0.1450   -1.1450 h4        1 LN1      0.038200
     36 H9          0.6330    0.6130    1.9260 ha        1 LN1      0.180000
     37 HD1         0.5920   -0.4540    4.6220 ha        1 LN1      0.161000
     38 HE1         2.0170   -1.6190    6.3610 ha        1 LN1      0.152000
     39 HZ          4.3950   -2.1910    5.8210 ha        1 LN1      0.169000
     40 HE2         5.3740   -1.6130    3.5770 h4        1 LN1      0.232000
     41 HN4         5.5390   -1.4060    1.1660 hn        1 LN1      0.476300
     42 H3          5.5490    1.4430    1.7560 hx        1 LN1      0.117700
     43 HO12        4.2530    2.7980   -0.4390 ho        1 LN1      0.466000
     44 HG2         7.0700   -0.7300   -1.1130 hc        1 LN1      0.065367
     45 HG2A        8.1540   -0.7730    0.3450 hc        1 LN1      0.065367
     46 HG2B        8.5930    0.2620   -1.0770 hc        1 LN1      0.065367
     47 HG1         7.3580    3.0120    1.0450 h1        1 LN1      0.102700
     48 HG1A        8.5250    1.7020    1.5850 h1        1 LN1      0.102700
     49 HAS        10.9150    4.8090   -1.2430 hc        1 LN1      0.083700
     50 HASA       10.1890    3.4260   -2.1850 hc        1 LN1      0.083700
     51 HAQ        13.2460    4.6120   -1.3290 ha        1 LN1      0.156000
     52 HAM        10.8480    1.0540   -0.6870 ha        1 LN1      0.147000
     53 HAN        12.9260   -0.3080   -0.4280 ha        1 LN1      0.141000
     54 HOAH       15.2430   -0.1900   -0.3370 ho        1 LN1      0.432000
     55 HOAI       16.2400    2.7970   -0.9530 ho        1 LN1      0.439000
     56 H42         4.9230   -0.4680   -0.1010 hn        1 LN1      0.476300
@<TRIPOS>BOND
     1    1    2 2   
     2    2    3 1   
     3    2   35 1   
     4    3    4 1   
     5    3   11 2   
     6    4    5 2   
     7    4   36 1   
     8    5    6 1   
     9    5   10 1   
    10    6    7 2   
    11    6   37 1   
    12    7    8 1   
    13    7   38 1   
    14    8    9 2   
    15    8   39 1   
    16    9   10 1   
    17    9   40 1   
    18   10   11 1   
    19   11   12 1   
    20   12   13 1   
    21   12   41 1   
    22   12   56 1   
    23   13   14 1   
    24   13   17 1   
    25   13   42 1   
    26   14   15 1   
    27   14   16 1   
    28   17   18 1   
    29   17   21 1   
    30   17   22 1   
    31   18   19 1   
    32   18   20 2   
    33   19   43 1   
    34   21   44 1   
    35   21   45 1   
    36   21   46 1   
    37   22   23 1   
    38   22   47 1   
    39   22   48 1   
    40   23   24 1   
    41   24   25 2   
    42   24   26 1   
    43   26   27 1   
    44   26   49 1   
    45   26   50 1   
    46   27   28 ar  
    47   27   29 ar  
    48   28   33 ar  
    49   28   51 1   
    50   29   30 ar  
    51   29   52 1   
    52   30   31 ar  
    53   30   53 1   
    54   31   32 1   
    55   31   33 ar  
    56   32   54 1   
    57   33   34 1   
    58   34   55 1   
@<TRIPOS>SUBSTRUCTURE
     1 LN1         1 TEMP              0 ****  ****    0 ROOT
