@<TRIPOS>MOLECULE
LN5
   31    30     1     0     0
SMALL
bcc


@<TRIPOS>ATOM
      1 CT1         0.6080    1.7220    1.1010 c3        1 LN5     -0.112100
      2 CH1         2.0470    1.3150    1.2880 c3        1 LN5     -0.173700
      3 CZ          2.1810    0.0660    2.1380 c2        1 LN5      0.531200
      4 NH2         1.2770   -0.6970    2.6310 n2        1 LN5     -0.739100
      5 NE          3.6150   -0.2550    2.4310 ny        1 LN5     -0.766000
      6 CD          3.9060   -1.6840    2.7410 c3        1 LN5      0.121800
      7 CG          5.3910   -2.0390    2.6980 c3        1 LN5     -0.108400
      8 CB          6.1920   -1.5610    3.8960 c3        1 LN5     -0.093400
      9 CA          7.1430   -0.4230    3.5060 c3        1 LN5     -0.042500
     10 C           6.2560    0.7070    2.8690 c         1 LN5      0.895600
     11 OA2         5.6180    1.4220    3.6920 o         1 LN5     -0.779800
     12 OA1         6.1440    0.7120    1.6230 o         1 LN5     -0.779800
     13 N           7.8620    0.1450    4.6870 nz        1 LN5     -0.824600
     14 H1H2        0.3260   -0.4580    2.4390 hn        1 LN5      0.467400
     15 H1T1        0.5710    2.6570    0.4880 hc        1 LN5      0.062367
     16 H2T1        0.0270    0.9350    0.5620 hc        1 LN5      0.062367
     17 H3T1        0.1140    1.9330    2.0810 hc        1 LN5      0.062367
     18 H1H1        2.5160    1.1220    0.2830 hc        1 LN5      0.095200
     19 H2H1        2.6150    2.1580    1.7720 hc        1 LN5      0.095200
     20 HNE         4.1840    0.0450    1.6120 hn        1 LN5      0.492300
     21 H1D         3.4750   -1.9170    3.7570 hx        1 LN5      0.107200
     22 H2D         3.3690   -2.3180    1.9760 hx        1 LN5      0.107200
     23 H1G         5.8540   -1.6640    1.7420 hc        1 LN5      0.099200
     24 H2G         5.4330   -3.1630    2.6630 hc        1 LN5      0.099200
     25 H1B         5.5000   -1.2100    4.7080 hc        1 LN5      0.064200
     26 H2B         6.7850   -2.4220    4.3050 hc        1 LN5      0.064200
     27 HA          7.9070   -0.7830    2.7600 hx        1 LN5      0.120700
     28 H1N         8.6830    0.6630    4.3650 hn        1 LN5      0.459467
     29 H2N         8.1450   -0.5840    5.3400 hn        1 LN5      0.459467
     30 HE3         3.9100    0.3470    3.2260 hn        1 LN5      0.492300
     31 HN3         7.2150    0.8070    5.1520 hn        1 LN5      0.459467
@<TRIPOS>BOND
     1    1    2 1   
     2    1   15 1   
     3    1   16 1   
     4    1   17 1   
     5    2    3 1   
     6    2   18 1   
     7    2   19 1   
     8    3    4 2   
     9    3    5 1   
    10    4   14 1   
    11    5    6 1   
    12    5   20 1   
    13    5   30 1   
    14    6    7 1   
    15    6   21 1   
    16    6   22 1   
    17    7    8 1   
    18    7   23 1   
    19    7   24 1   
    20    8    9 1   
    21    8   25 1   
    22    8   26 1   
    23    9   10 1   
    24    9   13 1   
    25    9   27 1   
    26   10   11 1   
    27   10   12 1   
    28   13   28 1   
    29   13   29 1   
    30   13   31 1   
@<TRIPOS>SUBSTRUCTURE
     1 LN5         1 TEMP              0 ****  ****    0 ROOT
