@<TRIPOS>MOLECULE
LN5
   31    30     1     0     0
SMALL
bcc


@<TRIPOS>ATOM
      1 CT1         0.6390    1.8230    1.1520 c3        1 LN5     -0.112100
      2 CH1         2.0700    1.3850    1.3250 c3        1 LN5     -0.173700
      3 CZ          2.1830    0.1170    2.1490 c2        1 LN5      0.531200
      4 NH2         1.2670   -0.6400    2.6280 n2        1 LN5     -0.739100
      5 NE          3.6120   -0.2360    2.4310 n4        1 LN5     -0.766000
      6 CD          3.8770   -1.6760    2.7130 c3        1 LN5      0.121800
      7 CG          5.3550   -2.0580    2.6580 c3        1 LN5     -0.108400
      8 CB          6.1690   -1.6170    3.8620 c3        1 LN5     -0.093400
      9 CA          7.1390   -0.4900    3.4910 c3        1 LN5     -0.042500
     10 C           6.2710    0.6680    2.8790 c         1 LN5      0.895600
     11 OA2         5.6500    1.3790    3.7170 o         1 LN5     -0.779800
     12 OA1         6.1560    0.6980    1.6330 o         1 LN5     -0.779800
     13 N           7.8730    0.0430    4.6800 n4        1 LN5     -0.824600
     14 H1H2        0.3200   -0.3790    2.4450 hn        1 LN5      0.467400
     15 H1T1        0.6170    2.7720    0.5590 hc        1 LN5      0.062367
     16 H2T1        0.1510    2.0220    2.1380 hc        1 LN5      0.062367
     17 H3T1        0.0410    1.0580    0.5990 hc        1 LN5      0.062367
     18 H1H1        2.6550    2.2070    1.8250 hc        1 LN5      0.095200
     19 H2H1        2.5330    1.2060    0.3160 hc        1 LN5      0.095200
     20 HNE         3.9200    0.3450    3.2360 hn        1 LN5      0.492300
     21 H1D         3.4450   -1.9210    3.7250 hx        1 LN5      0.107200
     22 H2D         3.3270   -2.2860    1.9370 hx        1 LN5      0.107200
     23 H1G         5.3760   -3.1820    2.6010 hc        1 LN5      0.099200
     24 H2G         5.8230   -1.6730    1.7080 hc        1 LN5      0.099200
     25 H1B         5.4850   -1.2690    4.6830 hc        1 LN5      0.064200
     26 H2B         6.7470   -2.4970    4.2530 hc        1 LN5      0.064200
     27 HA          7.8940   -0.8500    2.7360 hx        1 LN5      0.120700
     28 H1N         7.2390    0.7070    5.1600 hn        1 LN5      0.459467
     29 H2N         8.7020    0.5510    4.3660 hn        1 LN5      0.459467
     30 HE3         4.1840    0.0680    1.6160 hn        1 LN5      0.492300
     31 HN3         8.1440   -0.7040    5.3180 hn        1 LN5      0.459467
@<TRIPOS>BOND
     1    1    2 1   
     2    1   15 1   
     3    1   16 1   
     4    1   17 1   
     5    2    3 1   
     6    2   18 1   
     7    2   19 1   
     8    3    4 2   
     9    3    5 1   
    10    4   14 1   
    11    5    6 1   
    12    5   20 1   
    13    5   30 1   
    14    6    7 1   
    15    6   21 1   
    16    6   22 1   
    17    7    8 1   
    18    7   23 1   
    19    7   24 1   
    20    8    9 1   
    21    8   25 1   
    22    8   26 1   
    23    9   10 1   
    24    9   13 1   
    25    9   27 1   
    26   10   11 1   
    27   10   12 1   
    28   13   28 1   
    29   13   29 1   
    30   13   31 1   
@<TRIPOS>SUBSTRUCTURE
     1 LN5         1 TEMP              0 ****  ****    0 ROOT
