@<TRIPOS>MOLECULE
LN5
   29    27     1     0     0
SMALL
bcc


@<TRIPOS>ATOM
      1 CT1        -3.2710   -1.5180   -3.3850 c3        1 LN5     -0.093100
      2 CH1        -1.9090   -1.9630   -2.8880 c3        1 LN5     -0.097200
      3 CZ         -1.7340   -1.5370   -1.4250 c2        1 LN5      0.157800
      4 NH2        -2.5260   -2.0330   -0.4960 n1        1 LN5     -0.310000
      5 NE         -0.7000   -0.5880   -1.0650 nh        1 LN5     -0.731000
      6 CD         -0.2960   -0.4470    0.3180 c3        1 LN5      0.183800
      7 CG          0.8360    0.5990    0.4210 c3        1 LN5     -0.086400
      8 CB          1.2580    0.7520    1.8870 c3        1 LN5     -0.063400
      9 CA          2.4000    1.7490    1.9820 c3        1 LN5      0.017500
     10 C           2.0230    2.8600    2.9400 c         1 LN5      0.888600
     11 OA2         2.0140    2.6440    4.1860 o         1 LN5     -0.843300
     12 OA1         1.7830    4.0170    2.4990 o         1 LN5     -0.843300
     13 N           3.5600    1.0930    2.4560 n3        1 LN5     -0.893800
     14 H1H2       -3.1870   -2.6390   -0.7250 DU        1 LN5      0.127000
     15 H1T1       -3.5080   -0.6660   -2.9660 hc        1 LN5      0.037033
     16 H2T1       -3.9410   -2.1940   -3.1520 hc        1 LN5      0.037033
     17 H3T1       -3.2430   -1.4060   -4.3590 hc        1 LN5      0.037033
     18 H1H1       -1.8400   -2.9360   -2.9550 hc        1 LN5      0.052200
     19 H2H1       -1.2130   -1.5500   -3.4310 hc        1 LN5      0.052200
     20 HNE        -0.3300   -0.0510   -1.7040 hn        1 LN5      0.392800
     21 H1D        -1.0620   -0.1530    0.8530 h1        1 LN5      0.049200
     22 H2D         0.0250   -1.3100    0.6540 h1        1 LN5      0.049200
     23 H1G         0.5160    1.4620    0.0810 hc        1 LN5      0.039700
     24 H2G         1.6070    0.3010   -0.1130 hc        1 LN5      0.039700
     25 H1B         0.5020    1.0740    2.4110 hc        1 LN5      0.050700
     26 H2B         1.5520   -0.1140    2.2350 hc        1 LN5      0.050700
     27 HA          2.5770    2.1270    1.0990 h1        1 LN5      0.038700
     28 H1N         4.0890    1.6900    2.8910 hn        1 LN5      0.330800
     29 H2N         4.0190    0.7380    1.7490 hn        1 LN5      0.330800
@<TRIPOS>BOND
     1    1    2 1   
     2    1   15 1   
     3    1   16 1   
     4    1   17 1   
     5    2    3 1   
     6    2   18 1   
     7    2   19 1   
     8    3    4 2   
     9    3    5 1   
    10    5    6 1   
    11    5   20 1   
    12    6    7 1   
    13    6   21 1   
    14    6   22 1   
    15    7    8 1   
    16    7   23 1   
    17    7   24 1   
    18    8    9 1   
    19    8   25 1   
    20    8   26 1   
    21    9   10 1   
    22    9   13 1   
    23    9   27 1   
    24   10   11 1   
    25   10   12 1   
    26   13   28 1   
    27   13   29 1   
@<TRIPOS>SUBSTRUCTURE
     1 LN5         1 TEMP              0 ****  ****    0 ROOT
