@<TRIPOS>MOLECULE
LN5
   29    28     1     0     0
SMALL
bcc


@<TRIPOS>ATOM
      1 CT1        -6.0230    0.2360   -0.3770 c3        1 LN5     -0.077100
      2 CH1        -4.7010   -0.4710   -0.5120 c3        1 LN5     -0.118700
      3 CZ         -3.5370    0.2210    0.2020 c2        1 LN5      0.605200
      4 NH2        -3.7450    1.3280    0.8470 n2        1 LN5     -0.856100
      5 NE         -2.3310   -0.5150    0.1310 nh        1 LN5     -0.864200
      6 CD         -1.0760    0.1480    0.4020 c3        1 LN5      0.178800
      7 CG          0.1410   -0.6350   -0.0910 c3        1 LN5     -0.083400
      8 CB          1.4110    0.1220    0.2320 c3        1 LN5     -0.064400
      9 CA          2.6500   -0.5560   -0.3550 c3        1 LN5      0.017500
     10 C           3.8440    0.4540   -0.2660 c         1 LN5      0.888600
     11 OA2         4.9270    0.0490    0.2430 o         1 LN5     -0.842300
     12 OA1         3.6600    1.6130   -0.7310 o         1 LN5     -0.842300
     13 N           2.9220   -1.8650    0.2260 n3        1 LN5     -0.893800
     14 H1H2       -2.9510    1.7410    1.2880 hn        1 LN5      0.386400
     15 H1T1       -6.8100   -0.3380   -0.9270 hc        1 LN5      0.037033
     16 H2T1       -6.3260    0.3160    0.6950 hc        1 LN5      0.037033
     17 H3T1       -5.9730    1.2670   -0.8030 hc        1 LN5      0.037033
     18 H1H1       -4.7940   -1.5120   -0.1000 hc        1 LN5      0.047200
     19 H2H1       -4.4360   -0.5540   -1.6010 hc        1 LN5      0.047200
     20 HNE        -2.2910   -1.1770   -0.6130 hn        1 LN5      0.398800
     21 H1D        -1.0510    1.1770   -0.0660 h1        1 LN5      0.035700
     22 H2D        -0.9950    0.2850    1.5180 h1        1 LN5      0.035700
     23 H1G         0.1670   -1.6480    0.3900 hc        1 LN5      0.043200
     24 H2G         0.0720   -0.7920   -1.2000 hc        1 LN5      0.043200
     25 H1B         1.3670    1.1570   -0.2010 hc        1 LN5      0.049700
     26 H2B         1.5170    0.2260    1.3430 hc        1 LN5      0.049700
     27 HA          2.4680   -0.7290   -1.4560 h1        1 LN5      0.039700
     28 H1N         3.8580   -2.1200   -0.0450 hn        1 LN5      0.331800
     29 H2N         2.9380   -1.7710    1.2270 hn        1 LN5      0.331800
@<TRIPOS>BOND
     1    1    2 1   
     2    1   15 1   
     3    1   16 1   
     4    1   17 1   
     5    2    3 1   
     6    2   18 1   
     7    2   19 1   
     8    3    4 2   
     9    3    5 1   
    10    4   14 1   
    11    5    6 1   
    12    5   20 1   
    13    6    7 1   
    14    6   21 1   
    15    6   22 1   
    16    7    8 1   
    17    7   23 1   
    18    7   24 1   
    19    8    9 1   
    20    8   25 1   
    21    8   26 1   
    22    9   10 1   
    23    9   13 1   
    24    9   27 1   
    25   10   11 1   
    26   10   12 1   
    27   13   28 1   
    28   13   29 1   
@<TRIPOS>SUBSTRUCTURE
     1 LN5         1 TEMP              0 ****  ****    0 ROOT
