@<TRIPOS>MOLECULE
LN5
   31    30     1     0     0
SMALL
bcc


@<TRIPOS>ATOM
      1 CT1         0.5770    1.5910    1.0300 c3        1 LN5     -0.112100
      2 CH1         2.0240    1.2240    1.2360 c3        1 LN5     -0.173700
      3 CZ          2.1810   -0.0010    2.1170 c2        1 LN5      0.531200
      4 NH2         1.2930   -0.7740    2.6210 n2        1 LN5     -0.739100
      5 NE          3.6200   -0.2790    2.4280 n4        1 LN5     -0.766000
      6 CD          3.9440   -1.6930    2.7730 c3        1 LN5      0.121800
      7 CG          5.4370   -2.0120    2.7480 c3        1 LN5     -0.108400
      8 CB          6.2170   -1.4880    3.9420 c3        1 LN5     -0.093400
      9 CA          7.1420   -0.3370    3.5340 c3        1 LN5     -0.042500
     10 C           6.2330    0.7570    2.8660 c         1 LN5      0.895600
     11 OA2         5.5720    1.4740    3.6680 o         1 LN5     -0.779800
     12 OA1         6.1310    0.7320    1.6190 o         1 LN5     -0.779800
     13 N           7.8380    0.2760    4.7070 n4        1 LN5     -0.824600
     14 H1H2        0.3370   -0.5620    2.4170 hn        1 LN5      0.467400
     15 H1T1        0.0700    1.8130    2.0000 hc        1 LN5      0.062367
     16 H2T1        0.0190    0.7770    0.5050 hc        1 LN5      0.062367
     17 H3T1        0.5220    2.5100    0.3940 hc        1 LN5      0.062367
     18 H1H1        2.5670    2.0920    1.7050 hc        1 LN5      0.095200
     19 H2H1        2.5060    1.0200    0.2400 hc        1 LN5      0.095200
     20 HNE         4.1880    0.0160    1.6070 hn        1 LN5      0.492300
     21 H1D         3.5110   -1.9150    3.7900 hx        1 LN5      0.107200
     22 H2D         3.4290   -2.3570    2.0180 hx        1 LN5      0.107200
     23 H1G         5.5070   -3.1360    2.7380 hc        1 LN5      0.099200
     24 H2G         5.8990   -1.6470    1.7880 hc        1 LN5      0.099200
     25 H1B         5.5090   -1.1370    4.7400 hc        1 LN5      0.064200
     26 H2B         6.8280   -2.3260    4.3750 hc        1 LN5      0.064200
     27 HA          7.9210   -0.6930    2.8030 hx        1 LN5      0.120700
     28 H1N         8.6480    0.8070    4.3810 hn        1 LN5      0.459467
     29 H2N         7.1710    0.9310    5.1530 hn        1 LN5      0.459467
     30 HE3         3.8940    0.3480    3.2120 hn        1 LN5      0.492300
     31 HN3         8.1330   -0.4320    5.3790 hn        1 LN5      0.459467
@<TRIPOS>BOND
     1    1    2 1   
     2    1   15 1   
     3    1   16 1   
     4    1   17 1   
     5    2    3 1   
     6    2   18 1   
     7    2   19 1   
     8    3    4 2   
     9    3    5 1   
    10    4   14 1   
    11    5    6 1   
    12    5   20 1   
    13    5   30 1   
    14    6    7 1   
    15    6   21 1   
    16    6   22 1   
    17    7    8 1   
    18    7   23 1   
    19    7   24 1   
    20    8    9 1   
    21    8   25 1   
    22    8   26 1   
    23    9   10 1   
    24    9   13 1   
    25    9   27 1   
    26   10   11 1   
    27   10   12 1   
    28   13   28 1   
    29   13   29 1   
    30   13   31 1   
@<TRIPOS>SUBSTRUCTURE
     1 LN5         1 TEMP              0 ****  ****    0 ROOT
