@<TRIPOS>MOLECULE
LN6
   37    36     1     0     0
SMALL
bcc


@<TRIPOS>ATOM
      1 C           2.6390   -0.7400    1.4090 c         1 LN6      0.903600
      2 N           0.7070    0.7460    0.9180 nz        1 LN6     -0.826600
      3 CA          2.0840    0.3800    0.4600 c3        1 LN6     -0.035500
      4 CB          3.0420    1.5750    0.4870 c3        1 LN6     -0.085400
      5 CD          5.0380    0.8430    1.8640 c3        1 LN6      0.103800
      6 NE          5.6610   -0.5000    2.0150 ny        1 LN6     -0.820000
      7 CG          4.4950    1.1280    0.4600 c3        1 LN6     -0.098400
      8 CZ          5.7800   -0.8960    3.4930 c2        1 LN6      0.549200
      9 OA1         2.4110   -0.5940    2.6390 o         1 LN6     -0.784300
     10 OA2         3.3230   -1.6460    0.8750 o         1 LN6     -0.784300
     11 CH1         7.1960   -0.6880    3.9970 c3        1 LN6     -0.122700
     12 NH2         4.8190   -1.3540    4.1770 n2        1 LN6     -0.688100
     13 CI1         8.7650   -0.7060    5.9250 c3        1 LN6     -0.081400
     14 CK1         8.9260   -0.9690    7.4010 c3        1 LN6     -0.096100
     15 CT1         7.3370   -0.9540    5.4820 c3        1 LN6     -0.075400
     16 HN          0.4390    1.6740    0.5920 hn        1 LN6      0.460133
     17 HNA         0.0400    0.0500    0.5770 hn        1 LN6      0.460133
     18 HA          2.0100   -0.0300   -0.5880 hx        1 LN6      0.119700
     19 HB          2.8620    2.2050    1.3990 hc        1 LN6      0.067200
     20 HBA         2.8500    2.2190   -0.4130 hc        1 LN6      0.067200
     21 HD          4.1970    0.9070    2.6190 hx        1 LN6      0.105700
     22 HDA         5.8150    1.6120    2.1390 hx        1 LN6      0.105700
     23 HNE         5.0840   -1.2110    1.5190 hn        1 LN6      0.463300
     24 HG          4.5880    0.2320   -0.2140 hc        1 LN6      0.087200
     25 HGA         5.1090    1.9520    0.0050 hc        1 LN6      0.087200
     26 HH1         7.8790   -1.3790    3.4310 hc        1 LN6      0.069200
     27 HH1A        7.5050    0.3710    3.7800 hc        1 LN6      0.069200
     28 HNH2        3.8880   -1.4820    3.8200 hn        1 LN6      0.501400
     29 HI1         9.4600   -1.3700    5.3470 hc        1 LN6      0.041700
     30 HI1A        9.0520    0.3550    5.6980 hc        1 LN6      0.041700
     31 HK1         9.9830   -0.7810    7.7100 hc        1 LN6      0.044700
     32 HK1A        8.6690   -2.0280    7.6440 hc        1 LN6      0.044700
     33 HK1B        8.2590   -0.3000    7.9970 hc        1 LN6      0.044700
     34 HT1         7.0510   -2.0150    5.7120 hc        1 LN6      0.068700
     35 HT1A        6.6420   -0.2890    6.0590 hc        1 LN6      0.068700
     36 HN3         0.7090    0.7200    1.9530 hn        1 LN6      0.460133
     37 HE3         6.5910   -0.4970    1.5920 hn        1 LN6      0.463300
@<TRIPOS>BOND
     1    1    3 1   
     2    1    9 1   
     3    1   10 1   
     4    2    3 1   
     5    2   16 1   
     6    2   17 1   
     7    2   36 1   
     8    3    4 1   
     9    3   18 1   
    10    4    7 1   
    11    4   19 1   
    12    4   20 1   
    13    5    6 1   
    14    5    7 1   
    15    5   21 1   
    16    5   22 1   
    17    6    8 1   
    18    6   23 1   
    19    6   37 1   
    20    7   24 1   
    21    7   25 1   
    22    8   11 1   
    23    8   12 2   
    24   11   15 1   
    25   11   26 1   
    26   11   27 1   
    27   12   28 1   
    28   13   14 1   
    29   13   15 1   
    30   13   29 1   
    31   13   30 1   
    32   14   31 1   
    33   14   32 1   
    34   14   33 1   
    35   15   34 1   
    36   15   35 1   
@<TRIPOS>SUBSTRUCTURE
     1 LN6         1 TEMP              0 ****  ****    0 ROOT
