@<TRIPOS>MOLECULE
LN6
   35    34     1     0     0
SMALL
bcc


@<TRIPOS>ATOM
      1 C           5.0280   -0.1570   -0.0020 c         1 LN6      0.888600
      2 N           3.7060    1.9900   -0.3220 n3        1 LN6     -0.893800
      3 CA          3.7250    0.6630    0.2840 c3        1 LN6      0.016500
      4 CB          2.5220   -0.1970   -0.1080 c3        1 LN6     -0.061400
      5 CD          0.0510   -0.5270    0.0200 c3        1 LN6      0.184800
      6 NE         -1.2240   -0.0160    0.4840 nh        1 LN6     -0.806200
      7 CG          1.2240    0.3640    0.4300 c3        1 LN6     -0.088400
      8 CZ         -2.4250   -0.5320   -0.0460 c2        1 LN6      0.597200
      9 OA1         5.9310    0.3880   -0.7000 o         1 LN6     -0.843300
     10 OA2         5.1120   -1.3110    0.5010 o         1 LN6     -0.843300
     11 CH1        -3.6410    0.3260    0.3180 c3        1 LN6     -0.176700
     12 NH2        -2.4590   -1.6540   -0.7050 n2        1 LN6     -0.845100
     13 CI1        -6.1100    0.6470    0.2770 c3        1 LN6     -0.079400
     14 CK1        -7.4370    0.0820   -0.1590 c3        1 LN6     -0.092100
     15 CT1        -4.9630   -0.2570   -0.1260 c3        1 LN6     -0.082400
     16 HN          4.6210    2.3890   -0.1860 hn        1 LN6      0.330300
     17 HNA         3.5950    1.8820   -1.3150 hn        1 LN6      0.330300
     18 HA          3.6920    0.8230    1.4010 h1        1 LN6      0.040700
     19 HB          2.4620   -0.2910   -1.2230 hc        1 LN6      0.050200
     20 HBA         2.7010   -1.2250    0.3080 hc        1 LN6      0.050200
     21 HD          0.1840   -1.5550    0.4620 h1        1 LN6      0.049200
     22 HDA         0.0600   -0.6420   -1.1030 h1        1 LN6      0.049200
     23 HNE        -1.2420    0.9780    0.5800 hn        1 LN6      0.390800
     24 HG          1.2820    0.4320    1.5480 hc        1 LN6      0.040200
     25 HGA         1.0710    1.4040    0.0400 hc        1 LN6      0.040200
     26 HH1        -3.6600    0.4670    1.4320 hc        1 LN6      0.057200
     27 HH1A       -3.5140    1.3390   -0.1490 hc        1 LN6      0.057200
     28 HNH2       -3.3780   -1.9610   -0.9390 hn        1 LN6      0.375400
     29 HI1        -5.9650    1.6620   -0.1790 hc        1 LN6      0.039200
     30 HI1A       -6.1060    0.7830    1.3910 hc        1 LN6      0.039200
     31 HK1        -8.2680    0.7620    0.1470 hc        1 LN6      0.031367
     32 HK1A       -7.4690   -0.0380   -1.2690 hc        1 LN6      0.031367
     33 HK1B       -7.6110   -0.9190    0.3050 hc        1 LN6      0.031367
     34 HT1        -4.9740   -0.3890   -1.2400 hc        1 LN6      0.045700
     35 HT1A       -5.1130   -1.2690    0.3360 hc        1 LN6      0.045700
@<TRIPOS>BOND
     1    1    3 1   
     2    1    9 1   
     3    1   10 1   
     4    2    3 1   
     5    2   16 1   
     6    2   17 1   
     7    3    4 1   
     8    3   18 1   
     9    4    7 1   
    10    4   19 1   
    11    4   20 1   
    12    5    6 1   
    13    5    7 1   
    14    5   21 1   
    15    5   22 1   
    16    6    8 1   
    17    6   23 1   
    18    7   24 1   
    19    7   25 1   
    20    8   11 1   
    21    8   12 2   
    22   11   15 1   
    23   11   26 1   
    24   11   27 1   
    25   12   28 1   
    26   13   14 1   
    27   13   15 1   
    28   13   29 1   
    29   13   30 1   
    30   14   31 1   
    31   14   32 1   
    32   14   33 1   
    33   15   34 1   
    34   15   35 1   
@<TRIPOS>SUBSTRUCTURE
     1 LN6         1 TEMP              0 ****  ****    0 ROOT
