@<TRIPOS>MOLECULE
LN6
   37    36     1     0     0
SMALL
bcc


@<TRIPOS>ATOM
      1 C           2.5560   -0.7500    1.5580 c         1 LN6      0.903600
      2 N           0.7300    0.7990    0.8890 n4        1 LN6     -0.826600
      3 CA          2.0620    0.2650    0.4670 c3        1 LN6     -0.035500
      4 CB          3.1090    1.3720    0.3080 c3        1 LN6     -0.085400
      5 CD          5.0800    0.6870    1.7440 c3        1 LN6      0.103800
      6 NE          5.6040   -0.6660    2.0750 n4        1 LN6     -0.820000
      7 CG          4.5220    0.8130    0.3220 c3        1 LN6     -0.098400
      8 CZ          5.7310   -0.8590    3.5920 c2        1 LN6      0.549200
      9 OA1         2.3720   -0.4140    2.7580 o         1 LN6     -0.784300
     10 OA2         3.1540   -1.7730    1.1490 o         1 LN6     -0.784300
     11 CH1         7.1720   -0.6950    4.0390 c3        1 LN6     -0.122700
     12 NH2         4.7570   -1.1390    4.3490 n2        1 LN6     -0.688100
     13 CI1         8.7860   -0.5710    5.9250 c3        1 LN6     -0.081400
     14 CK1         8.9670   -0.6400    7.4200 c3        1 LN6     -0.096100
     15 CT1         7.3320   -0.7640    5.5450 c3        1 LN6     -0.075400
     16 HN          0.5240    1.6900    0.4380 hn        1 LN6      0.460133
     17 HNA         0.7570    0.9200    1.9170 hn        1 LN6      0.460133
     18 HA          1.9290   -0.2830   -0.5100 hx        1 LN6      0.119700
     19 HB          3.0020    2.1370    1.1230 hc        1 LN6      0.067200
     20 HBA         2.9420    1.8960   -0.6710 hc        1 LN6      0.067200
     21 HD          5.9200    1.4230    1.8930 hx        1 LN6      0.105700
     22 HDA         4.2670    0.9220    2.4950 hx        1 LN6      0.105700
     23 HNE         4.9610   -1.3930    1.6940 hn        1 LN6      0.463300
     24 HG          5.1850    1.5120   -0.2560 hc        1 LN6      0.087200
     25 HGA         4.5290   -0.1740   -0.2190 hc        1 LN6      0.087200
     26 HH1         7.5530    0.2970    3.6710 hc        1 LN6      0.069200
     27 HH1A        7.7860   -1.5080    3.5640 hc        1 LN6      0.069200
     28 HNH2        3.8090   -1.2420    4.0290 hn        1 LN6      0.501400
     29 HI1         9.4130   -1.3610    5.4340 hc        1 LN6      0.041700
     30 HI1A        9.1470    0.4220    5.5480 hc        1 LN6      0.041700
     31 HK1        10.0430   -0.4960    7.6840 hc        1 LN6      0.044700
     32 HK1A        8.6370   -1.6320    7.8130 hc        1 LN6      0.044700
     33 HK1B        8.3690    0.1560    7.9280 hc        1 LN6      0.044700
     34 HT1         6.9720   -1.7570    5.9240 hc        1 LN6      0.068700
     35 HT1A        6.7050    0.0270    6.0350 hc        1 LN6      0.068700
     36 HN3         0.0040    0.1170    0.6620 hn        1 LN6      0.460133
     37 HE3         6.5190   -0.7960    1.6410 hn        1 LN6      0.463300
@<TRIPOS>BOND
     1    1    3 1   
     2    1    9 1   
     3    1   10 1   
     4    2    3 1   
     5    2   16 1   
     6    2   17 1   
     7    2   36 1   
     8    3    4 1   
     9    3   18 1   
    10    4    7 1   
    11    4   19 1   
    12    4   20 1   
    13    5    6 1   
    14    5    7 1   
    15    5   21 1   
    16    5   22 1   
    17    6    8 1   
    18    6   23 1   
    19    6   37 1   
    20    7   24 1   
    21    7   25 1   
    22    8   11 1   
    23    8   12 2   
    24   11   15 1   
    25   11   26 1   
    26   11   27 1   
    27   12   28 1   
    28   13   14 1   
    29   13   15 1   
    30   13   29 1   
    31   13   30 1   
    32   14   31 1   
    33   14   32 1   
    34   14   33 1   
    35   15   34 1   
    36   15   35 1   
@<TRIPOS>SUBSTRUCTURE
     1 LN6         1 TEMP              0 ****  ****    0 ROOT
