@<TRIPOS>MOLECULE
LN6
   37    36     1     0     0
SMALL
bcc


@<TRIPOS>ATOM
      1 C           2.5990   -0.8210    1.5140 c         1 LN6      0.903600
      2 N           0.6790    0.6520    0.9430 n4        1 LN6     -0.826600
      3 CA          2.0410    0.2290    0.4890 c3        1 LN6     -0.035500
      4 CB          3.0160    1.4060    0.4030 c3        1 LN6     -0.085400
      5 CD          5.0290    0.7550    1.7960 c3        1 LN6      0.103800
      6 NE          5.6360   -0.5820    2.0410 n4        1 LN6     -0.820000
      7 CG          4.4620    0.9360    0.3840 c3        1 LN6     -0.098400
      8 CZ          5.7790   -0.8620    3.5430 c2        1 LN6      0.549200
      9 OA1         2.3980   -0.5740    2.7330 o         1 LN6     -0.784300
     10 OA2         3.2580   -1.7770    1.0410 o         1 LN6     -0.784300
     11 CH1         7.2080   -0.6370    4.0020 c3        1 LN6     -0.122700
     12 NH2         4.8250   -1.2490    4.2800 n2        1 LN6     -0.688100
     13 CI1         8.8150   -0.5290    5.8950 c3        1 LN6     -0.081400
     14 CK1         9.0030   -0.6770    7.3830 c3        1 LN6     -0.096100
     15 CT1         7.3740   -0.7880    5.5010 c3        1 LN6     -0.075400
     16 HN         -0.0050   -0.0580    0.6710 hn        1 LN6      0.460133
     17 HNA         0.7010    0.7090    1.9760 hn        1 LN6      0.460133
     18 HA          1.9400   -0.2620   -0.5210 hx        1 LN6      0.119700
     19 HB          2.8160    1.9800   -0.5420 hc        1 LN6      0.067200
     20 HBA         2.8640    2.1110    1.2650 hc        1 LN6      0.067200
     21 HD          5.8220    1.5310    1.9930 hx        1 LN6      0.105700
     22 HDA         4.2050    0.8910    2.5590 hx        1 LN6      0.105700
     23 HNE         5.0380   -1.3210    1.6140 hn        1 LN6      0.463300
     24 HG          4.5290   -0.0120   -0.2190 hc        1 LN6      0.087200
     25 HGA         5.0790    1.7110   -0.1470 hc        1 LN6      0.087200
     26 HH1         7.5270    0.3970    3.6960 hc        1 LN6      0.069200
     27 HH1A        7.8690   -1.3810    3.4800 hc        1 LN6      0.069200
     28 HNH2        3.8850   -1.3900    3.9520 hn        1 LN6      0.501400
     29 HI1         9.1130    0.5060    5.5800 hc        1 LN6      0.041700
     30 HI1A        9.4890   -1.2480    5.3570 hc        1 LN6      0.041700
     31 HK1         8.7360   -1.7100    7.7140 hc        1 LN6      0.044700
     32 HK1A       10.0680   -0.4830    7.6570 hc        1 LN6      0.044700
     33 HK1B        8.3580    0.0470    7.9380 hc        1 LN6      0.044700
     34 HT1         6.7010   -0.0690    6.0370 hc        1 LN6      0.068700
     35 HT1A        7.0780   -1.8230    5.8180 hc        1 LN6      0.068700
     36 HN3         0.4170    1.5560    0.5490 hn        1 LN6      0.460133
     37 HE3         6.5560   -0.6270    1.6020 hn        1 LN6      0.463300
@<TRIPOS>BOND
     1    1    3 1   
     2    1    9 1   
     3    1   10 1   
     4    2    3 1   
     5    2   16 1   
     6    2   17 1   
     7    2   36 1   
     8    3    4 1   
     9    3   18 1   
    10    4    7 1   
    11    4   19 1   
    12    4   20 1   
    13    5    6 1   
    14    5    7 1   
    15    5   21 1   
    16    5   22 1   
    17    6    8 1   
    18    6   23 1   
    19    6   37 1   
    20    7   24 1   
    21    7   25 1   
    22    8   11 1   
    23    8   12 2   
    24   11   15 1   
    25   11   26 1   
    26   11   27 1   
    27   12   28 1   
    28   13   14 1   
    29   13   15 1   
    30   13   29 1   
    31   13   30 1   
    32   14   31 1   
    33   14   32 1   
    34   14   33 1   
    35   15   34 1   
    36   15   35 1   
@<TRIPOS>SUBSTRUCTURE
     1 LN6         1 TEMP              0 ****  ****    0 ROOT
