@<TRIPOS>MOLECULE
LN7
   40    39     1     0     0
SMALL
bcc


@<TRIPOS>ATOM
      1 C           2.0510    0.3560    2.3030 c         1 LN7      0.891600
      2 N           0.6470    0.8440    0.3290 n4        1 LN7     -0.825600
      3 CA          1.9580    0.2460    0.7370 c3        1 LN7     -0.019500
      4 CB          3.1340    0.9890    0.0790 c3        1 LN7     -0.101400
      5 CD          4.6470   -0.0170    1.7460 c3        1 LN7      0.041800
      6 NE          5.9860   -0.2770    2.3410 n4        1 LN7     -0.781000
      7 CG          4.5030    0.3420    0.2770 c3        1 LN7     -0.081400
      8 CZ          5.8400   -0.9500    3.7100 c3        1 LN7      0.335700
      9 OA1         2.3650   -0.7020    2.9370 o         1 LN7     -0.773300
     10 OA2         1.8950    1.4820    2.8150 o         1 LN7     -0.773300
     11 CH1         7.1770   -0.8530    4.4810 c3        1 LN7     -0.137400
     12 NH2         4.6930   -0.4430    4.5470 n4        1 LN7     -0.897600
     13 CI1         8.5470   -1.8680    6.2970 c3        1 LN7     -0.076400
     14 CK1         8.5220   -2.6570    7.5810 c3        1 LN7     -0.105100
     15 CT1         7.1420   -1.6970    5.7420 c3        1 LN7     -0.099400
     16 HN          0.5310    1.7440    0.8230 hn        1 LN7      0.471133
     17 HNA         0.6040    0.9980   -0.6810 hn        1 LN7      0.471133
     18 HA          1.9560   -0.8390    0.4330 hx        1 LN7      0.118700
     19 HB          3.1650    2.0360    0.4920 hc        1 LN7      0.091200
     20 HBA         2.9700    1.0610   -1.0320 hc        1 LN7      0.091200
     21 HD          4.2240    0.8550    2.3370 hx        1 LN7      0.137200
     22 HDA         4.0530   -0.9800    1.8880 hx        1 LN7      0.137200
     23 HNE         6.5320   -0.9190    1.7480 hn        1 LN7      0.473800
     24 HG          4.5980   -0.5770   -0.3600 hc        1 LN7      0.091200
     25 HGA         5.2870    1.0730   -0.0580 hc        1 LN7      0.091200
     26 HZ          5.5970   -2.0460    3.4890 hx        1 LN7      0.162700
     27 HH1         8.0010   -1.2380    3.8160 hc        1 LN7      0.103200
     28 HH1A        7.4160    0.2130    4.7400 hc        1 LN7      0.103200
     29 HNH2        4.8430    0.5250    4.8440 hn        1 LN7      0.500133
     30 HNHA        4.6530   -1.0380    5.3890 hn        1 LN7      0.500133
     31 HI1         9.0030   -0.8590    6.4810 hc        1 LN7      0.060200
     32 HI1A        9.1880   -2.3970    5.5420 hc        1 LN7      0.060200
     33 HK1         7.9190   -2.1320    8.3620 hc        1 LN7      0.059033
     34 HK1A        8.0870   -3.6730    7.4180 hc        1 LN7      0.059033
     35 HK1B        9.5640   -2.7800    7.9680 hc        1 LN7      0.059033
     36 HT1         6.5080   -1.2060    6.5270 hc        1 LN7      0.058700
     37 HT1A        6.7090   -2.7090    5.5240 hc        1 LN7      0.058700
     38 HN3        -0.1130    0.2170    0.6150 hn        1 LN7      0.471133
     39 HE3         6.5210    0.5970    2.4320 hn        1 LN7      0.473800
     40 HH23        3.7400   -0.5100    4.0540 hn        1 LN7      0.500133
@<TRIPOS>BOND
     1    1    3 1   
     2    1    9 1   
     3    1   10 1   
     4    2    3 1   
     5    2   16 1   
     6    2   17 1   
     7    2   38 1   
     8    3    4 1   
     9    3   18 1   
    10    4    7 1   
    11    4   19 1   
    12    4   20 1   
    13    5    6 1   
    14    5    7 1   
    15    5   21 1   
    16    5   22 1   
    17    6    8 1   
    18    6   23 1   
    19    6   39 1   
    20    7   24 1   
    21    7   25 1   
    22    8   11 1   
    23    8   12 1   
    24    8   26 1   
    25   11   15 1   
    26   11   27 1   
    27   11   28 1   
    28   12   29 1   
    29   12   30 1   
    30   12   40 1   
    31   13   14 1   
    32   13   15 1   
    33   13   31 1   
    34   13   32 1   
    35   14   33 1   
    36   14   34 1   
    37   14   35 1   
    38   15   36 1   
    39   15   37 1   
@<TRIPOS>SUBSTRUCTURE
     1 LN7         1 TEMP              0 ****  ****    0 ROOT
