@<TRIPOS>MOLECULE
LN7
   40    39     1     0     0
SMALL
bcc


@<TRIPOS>ATOM
      1 C           2.0620    0.3310    2.2450 c         1 LN7      0.891600
      2 N           0.7020    0.8440    0.2470 nz        1 LN7     -0.825600
      3 CA          2.0130    0.2580    0.6750 c3        1 LN7     -0.019500
      4 CB          3.1920    1.0340    0.0660 c3        1 LN7     -0.101400
      5 CD          4.6780    0.0120    1.7480 c3        1 LN7      0.041800
      6 NE          6.0050   -0.2400    2.3720 ny        1 LN7     -0.781000
      7 CG          4.5670    0.4050    0.2850 c3        1 LN7     -0.081400
      8 CZ          5.8350   -0.9490    3.7210 c3        1 LN7      0.335700
      9 OA1         1.8750    1.4410    2.7790 o         1 LN7     -0.773300
     10 OA2         2.3770   -0.7380    2.8620 o         1 LN7     -0.773300
     11 CH1         7.1490   -0.8490    4.5290 c3        1 LN7     -0.137400
     12 NH2         4.6570   -0.4810    4.5380 nz        1 LN7     -0.897600
     13 CI1         8.4870   -1.8860    6.3560 c3        1 LN7     -0.076400
     14 CK1         8.4410   -2.7050    7.6210 c3        1 LN7     -0.105100
     15 CT1         7.0950   -1.7230    5.7680 c3        1 LN7     -0.099400
     16 HN          0.6840    1.0210   -0.7600 hn        1 LN7      0.471133
     17 HNA        -0.0540    0.1980    0.4970 hn        1 LN7      0.471133
     18 HA          2.0360   -0.8210    0.3450 hx        1 LN7      0.118700
     19 HB          3.0560    1.1310   -1.0470 hc        1 LN7      0.091200
     20 HBA         3.1950    2.0710    0.5050 hc        1 LN7      0.091200
     21 HD          4.2260    0.8620    2.3480 hx        1 LN7      0.137200
     22 HDA         4.0970   -0.9630    1.8510 hx        1 LN7      0.137200
     23 HNE         6.5230    0.6390    2.4980 hn        1 LN7      0.473800
     24 HG          4.6930   -0.4970   -0.3710 hc        1 LN7      0.091200
     25 HGA         5.3460    1.1560   -0.0120 hc        1 LN7      0.091200
     26 HZ          5.6160   -2.0420    3.4670 hx        1 LN7      0.162700
     27 HH1         7.9960   -1.2060    3.8770 hc        1 LN7      0.103200
     28 HH1A        7.3630    0.2140    4.8190 hc        1 LN7      0.103200
     29 HNH2        3.7200   -0.5510    4.0190 hn        1 LN7      0.500133
     30 HNHA        4.7830    0.4820    4.8620 hn        1 LN7      0.500133
     31 HI1         8.9230   -0.8760    6.5750 hc        1 LN7      0.060200
     32 HI1A        9.1550   -2.3880    5.6060 hc        1 LN7      0.060200
     33 HK1         8.0260   -3.7230    7.4230 hc        1 LN7      0.059033
     34 HK1A        9.4750   -2.8220    8.0320 hc        1 LN7      0.059033
     35 HK1B        7.8110   -2.2080    8.3970 hc        1 LN7      0.059033
     36 HT1         6.6830   -2.7360    5.5160 hc        1 LN7      0.058700
     37 HT1A        6.4330   -1.2610    6.5480 hc        1 LN7      0.058700
     38 HN3         0.5590    1.7300    0.7580 hn        1 LN7      0.471133
     39 HE3         6.5760   -0.8600    1.7790 hn        1 LN7      0.473800
     40 HH23        4.6060   -1.0970    5.3640 hn        1 LN7      0.500133
@<TRIPOS>BOND
     1    1    3 1   
     2    1    9 1   
     3    1   10 1   
     4    2    3 1   
     5    2   16 1   
     6    2   17 1   
     7    2   38 1   
     8    3    4 1   
     9    3   18 1   
    10    4    7 1   
    11    4   19 1   
    12    4   20 1   
    13    5    6 1   
    14    5    7 1   
    15    5   21 1   
    16    5   22 1   
    17    6    8 1   
    18    6   23 1   
    19    6   39 1   
    20    7   24 1   
    21    7   25 1   
    22    8   11 1   
    23    8   12 1   
    24    8   26 1   
    25   11   15 1   
    26   11   27 1   
    27   11   28 1   
    28   12   29 1   
    29   12   30 1   
    30   12   40 1   
    31   13   14 1   
    32   13   15 1   
    33   13   31 1   
    34   13   32 1   
    35   14   33 1   
    36   14   34 1   
    37   14   35 1   
    38   15   36 1   
    39   15   37 1   
@<TRIPOS>SUBSTRUCTURE
     1 LN7         1 TEMP              0 ****  ****    0 ROOT
