@<TRIPOS>MOLECULE
LN7
   37    36     1     0     0
SMALL
bcc


@<TRIPOS>ATOM
      1 C          -4.8070   -0.4970    0.5100 c         1 LN7      0.887600
      2 N          -4.0610    0.8930   -1.4850 n3        1 LN7     -0.892800
      3 CA         -3.6700   -0.0990   -0.4910 c3        1 LN7      0.018500
      4 CB         -2.4430    0.3100    0.3240 c3        1 LN7     -0.064400
      5 CD          0.0230    0.6760    0.3570 c3        1 LN7      0.152800
      6 NE          1.2670    0.8110   -0.3750 n3        1 LN7     -0.869200
      7 CG         -1.1950    0.4110   -0.5260 c3        1 LN7     -0.082400
      8 CZ          2.4590    0.4170    0.4050 c3        1 LN7      0.395700
      9 OA1        -4.5260   -1.3450    1.4020 o         1 LN7     -0.843800
     10 OA2        -5.9450    0.0330    0.3580 o         1 LN7     -0.843800
     11 CH1         3.6610    0.1770   -0.5480 c3        1 LN7     -0.073400
     12 NH2         2.8180    1.3610    1.4650 n3        1 LN7     -0.901800
     13 CI1         5.9440   -0.8020   -0.7750 c3        1 LN7     -0.082400
     14 CK1         7.1290   -1.3880   -0.0510 c3        1 LN7     -0.090100
     15 CT1         4.8370   -0.4250    0.1880 c3        1 LN7     -0.075400
     16 HN         -4.9940    0.6600   -1.7840 hn        1 LN7      0.330800
     17 HNA        -4.1290    1.7880   -1.0320 hn        1 LN7      0.330800
     18 HA         -3.4140   -1.0380   -1.0650 h1        1 LN7      0.039700
     19 HB         -2.6300    1.2880    0.8390 hc        1 LN7      0.047700
     20 HBA        -2.3060   -0.4690    1.1220 hc        1 LN7      0.047700
     21 HD          0.0800   -0.1460    1.1330 h1        1 LN7      0.027700
     22 HDA        -0.1370    1.6420    0.9160 h1        1 LN7      0.027700
     23 HNE         1.2360    0.2980   -1.2340 hn        1 LN7      0.364800
     24 HG         -1.0530   -0.5440   -1.0960 hc        1 LN7      0.041700
     25 HGA        -1.3100    1.2350   -1.2770 hc        1 LN7      0.041700
     26 HZ          2.2650   -0.5700    0.9450 h2        1 LN7      0.034700
     27 HH1         3.3410   -0.5250   -1.3630 hc        1 LN7      0.041200
     28 HH1A        3.9660    1.1400   -1.0330 hc        1 LN7      0.041200
     29 HNH2        3.0730    2.2490    1.0760 hn        1 LN7      0.346800
     30 HNHA        2.0380    1.4990    2.0800 hn        1 LN7      0.346800
     31 HI1         6.2650    0.1060   -1.3490 hc        1 LN7      0.034700
     32 HI1A        5.5560   -1.5440   -1.5230 hc        1 LN7      0.034700
     33 HK1         7.5460   -0.6540    0.6790 hc        1 LN7      0.029033
     34 HK1A        6.8330   -2.3080    0.5090 hc        1 LN7      0.029033
     35 HK1B        7.9330   -1.6600   -0.7770 hc        1 LN7      0.029033
     36 HT1         5.2320    0.3020    0.9440 hc        1 LN7      0.048700
     37 HT1A        4.5030   -1.3370    0.7510 hc        1 LN7      0.048700
@<TRIPOS>BOND
     1    1    3 1   
     2    1    9 1   
     3    1   10 1   
     4    2    3 1   
     5    2   16 1   
     6    2   17 1   
     7    3    4 1   
     8    3   18 1   
     9    4    7 1   
    10    4   19 1   
    11    4   20 1   
    12    5    6 1   
    13    5    7 1   
    14    5   21 1   
    15    5   22 1   
    16    6    8 1   
    17    6   23 1   
    18    7   24 1   
    19    7   25 1   
    20    8   11 1   
    21    8   12 1   
    22    8   26 1   
    23   11   15 1   
    24   11   27 1   
    25   11   28 1   
    26   12   29 1   
    27   12   30 1   
    28   13   14 1   
    29   13   15 1   
    30   13   31 1   
    31   13   32 1   
    32   14   33 1   
    33   14   34 1   
    34   14   35 1   
    35   15   36 1   
    36   15   37 1   
@<TRIPOS>SUBSTRUCTURE
     1 LN7         1 TEMP              0 ****  ****    0 ROOT
