@<TRIPOS>MOLECULE
LN7
   40    39     1     0     0
SMALL
bcc


@<TRIPOS>ATOM
      1 C           2.0220    0.1490    2.2320 c         1 LN7      0.891600
      2 N           0.6650    0.7130    0.2450 n4        1 LN7     -0.825600
      3 CA          2.0130    0.2080    0.6610 c3        1 LN7     -0.019500
      4 CB          3.1310    1.1350    0.1540 c3        1 LN7     -0.101400
      5 CD          4.6660    0.1060    1.7870 c3        1 LN7      0.041800
      6 NE          5.9960   -0.0820    2.4260 n4        1 LN7     -0.781000
      7 CG          4.5510    0.6130    0.3600 c3        1 LN7     -0.081400
      8 CZ          5.8610   -0.9170    3.7040 c3        1 LN7      0.335700
      9 OA1         2.4180   -0.9370    2.7650 o         1 LN7     -0.773300
     10 OA2         1.7240    1.1890    2.8520 o         1 LN7     -0.773300
     11 CH1         7.1440   -0.7730    4.5560 c3        1 LN7     -0.137400
     12 NH2         4.6290   -0.6270    4.5240 n4        1 LN7     -0.897600
     13 CI1         8.5290   -1.8430    6.3270 c3        1 LN7     -0.076400
     14 CK1         8.5300   -2.7690    7.5170 c3        1 LN7     -0.105100
     15 CT1         7.1410   -1.7520    5.7150 c3        1 LN7     -0.099400
     16 HN          0.6520    0.9740   -0.7430 hn        1 LN7      0.471133
     17 HNA        -0.0360   -0.0170    0.4180 hn        1 LN7      0.471133
     18 HA          2.1410   -0.8310    0.2420 hx        1 LN7      0.118700
     19 HB          3.0110    1.3160   -0.9500 hc        1 LN7      0.091200
     20 HBA         3.0310    2.1270    0.6790 hc        1 LN7      0.091200
     21 HD          4.1720   -0.9220    1.7900 hx        1 LN7      0.137200
     22 HDA         4.1260    0.8580    2.4430 hx        1 LN7      0.137200
     23 HNE         6.4300    0.8250    2.6410 hn        1 LN7      0.473800
     24 HG          5.2660    1.4520    0.1500 hc        1 LN7      0.091200
     25 HGA         4.7730   -0.2140   -0.3660 hc        1 LN7      0.091200
     26 HZ          5.7470   -2.0000    3.3530 hx        1 LN7      0.162700
     27 HH1         8.0330   -0.9960    3.9010 hc        1 LN7      0.103200
     28 HH1A        7.2550    0.2760    4.9410 hc        1 LN7      0.103200
     29 HNH2        3.7130   -0.7340    3.9730 hn        1 LN7      0.500133
     30 HNHA        4.6610    0.3120    4.9310 hn        1 LN7      0.500133
     31 HI1         8.8680   -0.8210    6.6440 hc        1 LN7      0.060200
     32 HI1A        9.2560   -2.2170    5.5580 hc        1 LN7      0.060200
     33 HK1         7.8410   -2.3980    8.3140 hc        1 LN7      0.059033
     34 HK1A        8.2130   -3.7990    7.2220 hc        1 LN7      0.059033
     35 HK1B        9.5610   -2.8300    7.9470 hc        1 LN7      0.059033
     36 HT1         6.4230   -1.4190    6.5110 hc        1 LN7      0.058700
     37 HT1A        6.8280   -2.7720    5.3660 hc        1 LN7      0.058700
     38 HN3         0.4320    1.5350    0.8260 hn        1 LN7      0.471133
     39 HE3         6.6340   -0.5960    1.8000 hn        1 LN7      0.473800
     40 HH23        4.6150   -1.3140    5.2930 hn        1 LN7      0.500133
@<TRIPOS>BOND
     1    1    3 1   
     2    1    9 1   
     3    1   10 1   
     4    2    3 1   
     5    2   16 1   
     6    2   17 1   
     7    2   38 1   
     8    3    4 1   
     9    3   18 1   
    10    4    7 1   
    11    4   19 1   
    12    4   20 1   
    13    5    6 1   
    14    5    7 1   
    15    5   21 1   
    16    5   22 1   
    17    6    8 1   
    18    6   23 1   
    19    6   39 1   
    20    7   24 1   
    21    7   25 1   
    22    8   11 1   
    23    8   12 1   
    24    8   26 1   
    25   11   15 1   
    26   11   27 1   
    27   11   28 1   
    28   12   29 1   
    29   12   30 1   
    30   12   40 1   
    31   13   14 1   
    32   13   15 1   
    33   13   31 1   
    34   13   32 1   
    35   14   33 1   
    36   14   34 1   
    37   14   35 1   
    38   15   36 1   
    39   15   37 1   
@<TRIPOS>SUBSTRUCTURE
     1 LN7         1 TEMP              0 ****  ****    0 ROOT
