@<TRIPOS>MOLECULE
LNA
   53    52     1     0     0
SMALL
bcc


@<TRIPOS>ATOM
      1 O20        -0.1560    1.0650   -0.7130 o         1 LNA     -0.851800
      2 C1          1.0250    0.8770   -0.3010 c         1 LNA      0.908600
      3 O19         1.4730    1.3360    0.7900 o         1 LNA     -0.851800
      4 C2          1.9580    0.0180   -1.1730 c3        1 LNA     -0.195400
      5 C3          3.3260    0.6450   -1.2930 c3        1 LNA     -0.065400
      6 C4          4.3130   -0.2830   -1.9700 c3        1 LNA     -0.078400
      7 C5          5.6770    0.3610   -2.1010 c3        1 LNA     -0.079400
      8 C6          6.6680   -0.5780   -2.7550 c3        1 LNA     -0.079400
      9 C7          8.0310    0.0660   -2.8920 c3        1 LNA     -0.081400
     10 C8          9.0160   -0.8900   -3.5350 c3        1 LNA     -0.070200
     11 C9         10.3610   -0.2930   -3.6880 c2        1 LNA     -0.047200
     12 C10        11.3430   -0.8900   -4.3990 c2        1 LNA     -0.205300
     13 N21        12.6780   -0.2370   -4.4970 no        1 LNA      0.286100
     14 O22        12.8090    0.8910   -4.0980 o         1 LNA     -0.220500
     15 O23        13.6010   -0.8480   -4.9670 o         1 LNA     -0.220500
     16 C11        11.1840   -2.1970   -5.1060 c3        1 LNA     -0.006000
     17 C12        10.4910   -2.0510   -6.4120 c2        1 LNA     -0.179200
     18 C13        10.3660   -3.0510   -7.2910 c2        1 LNA     -0.160200
     19 C14        10.9120   -4.4120   -7.0780 c3        1 LNA     -0.053200
     20 C15        10.4920   -5.3760   -8.1680 c3        1 LNA     -0.077400
     21 C16        11.0600   -6.7570   -7.9240 c3        1 LNA     -0.080400
     22 C17        10.6440   -7.7230   -9.0120 c3        1 LNA     -0.080400
     23 C18        11.2070   -9.1010   -8.7740 c3        1 LNA     -0.092100
     24 H2          2.0400   -0.9910   -0.6940 hc        1 LNA      0.019200
     25 H2A         1.5000   -0.1180   -2.1850 hc        1 LNA      0.019200
     26 H3          3.6890    0.9130   -0.2650 hc        1 LNA      0.045200
     27 H3A         3.2490    1.5990   -1.8760 hc        1 LNA      0.045200
     28 H4          3.9320   -0.5640   -2.9860 hc        1 LNA      0.026700
     29 H4A         4.4030   -1.2310   -1.3770 hc        1 LNA      0.026700
     30 H5          5.5910    1.3010   -2.7080 hc        1 LNA      0.039200
     31 H5A         6.0510    0.6570   -1.0860 hc        1 LNA      0.039200
     32 H6          6.7550   -1.5150   -2.1440 hc        1 LNA      0.036700
     33 H6A         6.2900   -0.8770   -3.7680 hc        1 LNA      0.036700
     34 H7          7.9480    0.9970   -3.5120 hc        1 LNA      0.046700
     35 H7A         8.4070    0.3730   -1.8800 hc        1 LNA      0.046700
     36 H8          8.6290   -1.2130   -4.5420 hc        1 LNA      0.068700
     37 H8A         9.1000   -1.8210   -2.9070 hc        1 LNA      0.068700
     38 H9         10.5300    0.6770   -3.1820 ha        1 LNA      0.165000
     39 H11        12.1840   -2.6940   -5.2660 hc        1 LNA      0.078200
     40 H11A       10.5840   -2.8820   -4.4410 hc        1 LNA      0.078200
     41 H12        10.0670   -1.0570   -6.6290 ha        1 LNA      0.130000
     42 H13         9.8350   -2.8860   -8.2430 ha        1 LNA      0.126000
     43 H14        12.0360   -4.3570   -7.0360 hc        1 LNA      0.050700
     44 H14A       10.5710   -4.8020   -6.0800 hc        1 LNA      0.050700
     45 H15         9.3730   -5.4310   -8.2100 hc        1 LNA      0.042200
     46 H15A       10.8440   -4.9950   -9.1630 hc        1 LNA      0.042200
     47 H16        10.7090   -7.1380   -6.9290 hc        1 LNA      0.040200
     48 H16A       12.1800   -6.7010   -7.8790 hc        1 LNA      0.040200
     49 H17        10.9960   -7.3400  -10.0070 hc        1 LNA      0.038700
     50 H17A        9.5240   -7.7760   -9.0560 hc        1 LNA      0.038700
     51 H18        10.8890   -9.7970   -9.5870 hc        1 LNA      0.031700
     52 H18A       12.3230   -9.0720   -8.7500 hc        1 LNA      0.031700
     53 H18B       10.8470   -9.5100   -7.7980 hc        1 LNA      0.031700
@<TRIPOS>BOND
     1    1    2 1   
     2    2    3 1   
     3    2    4 1   
     4    4    5 1   
     5    4   24 1   
     6    4   25 1   
     7    5    6 1   
     8    5   26 1   
     9    5   27 1   
    10    6    7 1   
    11    6   28 1   
    12    6   29 1   
    13    7    8 1   
    14    7   30 1   
    15    7   31 1   
    16    8    9 1   
    17    8   32 1   
    18    8   33 1   
    19    9   10 1   
    20    9   34 1   
    21    9   35 1   
    22   10   11 1   
    23   10   36 1   
    24   10   37 1   
    25   11   12 2   
    26   11   38 1   
    27   12   13 1   
    28   12   16 1   
    29   13   14 1   
    30   13   15 1   
    31   16   17 1   
    32   16   39 1   
    33   16   40 1   
    34   17   18 2   
    35   17   41 1   
    36   18   19 1   
    37   18   42 1   
    38   19   20 1   
    39   19   43 1   
    40   19   44 1   
    41   20   21 1   
    42   20   45 1   
    43   20   46 1   
    44   21   22 1   
    45   21   47 1   
    46   21   48 1   
    47   22   23 1   
    48   22   49 1   
    49   22   50 1   
    50   23   51 1   
    51   23   52 1   
    52   23   53 1   
@<TRIPOS>SUBSTRUCTURE
     1 LNA         1 TEMP              0 ****  ****    0 ROOT
