@<TRIPOS>MOLECULE
LNA
   53    52     1     0     0
SMALL
bcc


@<TRIPOS>ATOM
      1 O20         9.4260    1.4170   -0.1060 o         1 LNA     -0.851800
      2 C1          8.4740    0.9260   -0.7790 c         1 LNA      0.908600
      3 O19         8.6360    0.2010   -1.8030 o         1 LNA     -0.851800
      4 C2          7.0380    1.2530   -0.3300 c3        1 LNA     -0.195400
      5 C3          6.1660    0.0220   -0.3460 c3        1 LNA     -0.065400
      6 C4          4.7100    0.3600   -0.1050 c3        1 LNA     -0.078400
      7 C5          3.8450   -0.8830   -0.1030 c3        1 LNA     -0.079400
      8 C6          2.3890   -0.5390    0.1210 c3        1 LNA     -0.079400
      9 C7          1.5240   -1.7820    0.1330 c3        1 LNA     -0.080400
     10 C8          0.0690   -1.4230    0.3570 c3        1 LNA     -0.070200
     11 C9         -0.8070   -2.6150    0.3880 c2        1 LNA     -0.047200
     12 C10        -2.1550   -2.5250    0.3910 c2        1 LNA     -0.205300
     13 N21        -2.9730   -3.7690    0.4390 no        1 LNA      0.286100
     14 O22        -2.4280   -4.8340    0.3000 o         1 LNA     -0.221000
     15 O23        -4.1590   -3.6900    0.6240 o         1 LNA     -0.221000
     16 C11        -2.9050   -1.2320    0.3530 c3        1 LNA     -0.006000
     17 C12        -2.9840   -0.6650   -1.0170 c2        1 LNA     -0.179200
     18 C13        -3.7250    0.4040   -1.3260 c2        1 LNA     -0.160200
     19 C14        -4.5610    1.1390   -0.3480 c3        1 LNA     -0.053200
     20 C15        -5.1700    2.3930   -0.9430 c3        1 LNA     -0.077400
     21 C16        -6.0150    3.1260    0.0770 c3        1 LNA     -0.079400
     22 C17        -6.6260    4.3790   -0.5140 c3        1 LNA     -0.080400
     23 C18        -7.4680    5.1130    0.4970 c3        1 LNA     -0.092100
     24 H2          7.0630    1.7020    0.6940 hc        1 LNA      0.019200
     25 H2A         6.6280    2.0220   -1.0330 hc        1 LNA      0.019200
     26 H3          6.2860   -0.4900   -1.3380 hc        1 LNA      0.044700
     27 H3A         6.5190   -0.6960    0.4400 hc        1 LNA      0.044700
     28 H4          4.6040    0.8920    0.8760 hc        1 LNA      0.026700
     29 H4A         4.3520    1.0640   -0.9020 hc        1 LNA      0.026700
     30 H5          3.9600   -1.4200   -1.0810 hc        1 LNA      0.039200
     31 H5A         4.1960   -1.5820    0.7010 hc        1 LNA      0.039200
     32 H6          2.2770    0.0050    1.0960 hc        1 LNA      0.036700
     33 H6A         2.0380    0.1550   -0.6870 hc        1 LNA      0.036700
     34 H7          1.6330   -2.3260   -0.8420 hc        1 LNA      0.047200
     35 H7A         1.8720   -2.4760    0.9420 hc        1 LNA      0.047200
     36 H8         -0.0360   -0.8690    1.3330 hc        1 LNA      0.068700
     37 H8A        -0.2780   -0.7200   -0.4520 hc        1 LNA      0.068700
     38 H9         -0.2990   -3.5990    0.4150 ha        1 LNA      0.165000
     39 H11        -3.9460   -1.3570    0.7680 hc        1 LNA      0.077700
     40 H11A       -2.3730   -0.5020    1.0280 hc        1 LNA      0.077700
     41 H12        -2.3860   -1.1750   -1.7900 ha        1 LNA      0.131000
     42 H13        -3.7410    0.7850   -2.3600 ha        1 LNA      0.127000
     43 H14        -5.3810    0.4620    0.0210 hc        1 LNA      0.049700
     44 H14A       -3.9410    1.4130    0.5490 hc        1 LNA      0.049700
     45 H15        -4.3530    3.0690   -1.3110 hc        1 LNA      0.042200
     46 H15A       -5.8010    2.1210   -1.8300 hc        1 LNA      0.042200
     47 H16        -6.8300    2.4490    0.4470 hc        1 LNA      0.040200
     48 H16A       -5.3840    3.3980    0.9630 hc        1 LNA      0.040200
     49 H17        -5.8090    5.0530   -0.8850 hc        1 LNA      0.038700
     50 H17A       -7.2550    4.1050   -1.4010 hc        1 LNA      0.038700
     51 H18        -8.3020    4.4650    0.8610 hc        1 LNA      0.031700
     52 H18A       -6.8510    5.4160    1.3780 hc        1 LNA      0.031700
     53 H18B       -7.9090    6.0320    0.0420 hc        1 LNA      0.031700
@<TRIPOS>BOND
     1    1    2 1   
     2    2    3 1   
     3    2    4 1   
     4    4    5 1   
     5    4   24 1   
     6    4   25 1   
     7    5    6 1   
     8    5   26 1   
     9    5   27 1   
    10    6    7 1   
    11    6   28 1   
    12    6   29 1   
    13    7    8 1   
    14    7   30 1   
    15    7   31 1   
    16    8    9 1   
    17    8   32 1   
    18    8   33 1   
    19    9   10 1   
    20    9   34 1   
    21    9   35 1   
    22   10   11 1   
    23   10   36 1   
    24   10   37 1   
    25   11   12 2   
    26   11   38 1   
    27   12   13 1   
    28   12   16 1   
    29   13   14 1   
    30   13   15 1   
    31   16   17 1   
    32   16   39 1   
    33   16   40 1   
    34   17   18 2   
    35   17   41 1   
    36   18   19 1   
    37   18   42 1   
    38   19   20 1   
    39   19   43 1   
    40   19   44 1   
    41   20   21 1   
    42   20   45 1   
    43   20   46 1   
    44   21   22 1   
    45   21   47 1   
    46   21   48 1   
    47   22   23 1   
    48   22   49 1   
    49   22   50 1   
    50   23   51 1   
    51   23   52 1   
    52   23   53 1   
@<TRIPOS>SUBSTRUCTURE
     1 LNA         1 TEMP              0 ****  ****    0 ROOT
