@<TRIPOS>MOLECULE
LNB
   53    52     1     0     0
SMALL
bcc


@<TRIPOS>ATOM
      1 O20        -4.6890   -5.0210   -0.1340 o         1 LNB     -0.852800
      2 C1         -3.6050   -4.3720   -0.1490 c         1 LNB      0.909600
      3 O19        -2.4710   -4.8940    0.0690 o         1 LNB     -0.852800
      4 C2         -3.6720   -2.8700   -0.4740 c3        1 LNB     -0.195400
      5 C3         -2.7120   -2.0810    0.3810 c3        1 LNB     -0.067400
      6 C4         -2.5750   -0.6470   -0.0880 c3        1 LNB     -0.079400
      7 C5         -1.5920    0.1160    0.7740 c3        1 LNB     -0.079400
      8 C6         -1.2950    1.4880    0.2090 c3        1 LNB     -0.081400
      9 C7         -0.2570    2.2050    1.0450 c3        1 LNB     -0.075400
     10 C8          0.2890    3.4310    0.3370 c3        1 LNB     -0.054200
     11 C9          1.4780    3.9700    1.0410 c2        1 LNB     -0.156200
     12 C10         2.7460    3.5990    0.8490 c2        1 LNB     -0.177200
     13 C11         3.2140    2.5940   -0.1390 c3        1 LNB      0.001000
     14 C12         4.1420    1.5810    0.4520 c2        1 LNB     -0.196300
     15 N21         5.4440    2.1080    0.9560 no        1 LNB      0.282100
     16 O22         5.7490    3.2480    0.7240 o         1 LNB     -0.225500
     17 O23         6.1740    1.3800    1.5790 o         1 LNB     -0.225500
     18 C13         3.9040    0.2540    0.5330 c2        1 LNB     -0.050200
     19 C14         2.6790   -0.4080    0.0310 c3        1 LNB     -0.071200
     20 C15         2.7840   -1.9190    0.1040 c3        1 LNB     -0.080400
     21 C16         1.5690   -2.5810   -0.5120 c3        1 LNB     -0.083400
     22 C17         1.6930   -4.0900   -0.4800 c3        1 LNB     -0.068400
     23 C18         0.5240   -4.7540   -1.1600 c3        1 LNB     -0.120100
     24 H2         -3.4140   -2.7440   -1.5570 hc        1 LNB      0.021200
     25 H2A        -4.7190   -2.5060   -0.3270 hc        1 LNB      0.021200
     26 H3         -3.0610   -2.0950    1.4460 hc        1 LNB      0.043700
     27 H3A        -1.7100   -2.5910    0.3560 hc        1 LNB      0.043700
     28 H4         -2.2290   -0.6350   -1.1550 hc        1 LNB      0.028200
     29 H4A        -3.5750   -0.1400   -0.0600 hc        1 LNB      0.028200
     30 H5         -2.0000    0.2150    1.8140 hc        1 LNB      0.035700
     31 H5A        -0.6360   -0.4700    0.8500 hc        1 LNB      0.035700
     32 H6         -0.9260    1.3820   -0.8460 hc        1 LNB      0.036200
     33 H6A        -2.2360    2.0960    0.1680 hc        1 LNB      0.036200
     34 H7         -0.7030    2.5050    2.0290 hc        1 LNB      0.040200
     35 H7A         0.5920    1.5040    1.2710 hc        1 LNB      0.040200
     36 H8          0.5460    3.1710   -0.7250 hc        1 LNB      0.043200
     37 H8A        -0.5100    4.2200    0.2900 hc        1 LNB      0.043200
     38 H9          1.2520    4.7440    1.7960 ha        1 LNB      0.118000
     39 H10         3.5530    4.0840    1.4260 ha        1 LNB      0.135000
     40 H11         2.3450    2.0450   -0.5950 hc        1 LNB      0.073200
     41 H11A        3.7480    3.1390   -0.9700 hc        1 LNB      0.073200
     42 H13         4.6560   -0.4200    0.9910 ha        1 LNB      0.161000
     43 H14         1.7900   -0.0670    0.6320 hc        1 LNB      0.073200
     44 H14A        2.4900   -0.1000   -1.0350 hc        1 LNB      0.073200
     45 H15         3.7090   -2.2580   -0.4330 hc        1 LNB      0.041200
     46 H15A        2.8840   -2.2390    1.1740 hc        1 LNB      0.041200
     47 H16         0.6410   -2.2720    0.0390 hc        1 LNB      0.049200
     48 H16A        1.4520   -2.2380   -1.5740 hc        1 LNB      0.049200
     49 H17         2.6510   -4.3940   -0.9790 hc        1 LNB      0.023700
     50 H17A        1.7520   -4.4350    0.5860 hc        1 LNB      0.023700
     51 H18         0.6620   -5.8620   -1.1610 hc        1 LNB      0.055700
     52 H18A       -0.4430   -4.5290   -0.6320 hc        1 LNB      0.055700
     53 H18B        0.4370   -4.4090   -2.2180 hc        1 LNB      0.055700
@<TRIPOS>BOND
     1    1    2 1   
     2    2    3 1   
     3    2    4 1   
     4    4    5 1   
     5    4   24 1   
     6    4   25 1   
     7    5    6 1   
     8    5   26 1   
     9    5   27 1   
    10    6    7 1   
    11    6   28 1   
    12    6   29 1   
    13    7    8 1   
    14    7   30 1   
    15    7   31 1   
    16    8    9 1   
    17    8   32 1   
    18    8   33 1   
    19    9   10 1   
    20    9   34 1   
    21    9   35 1   
    22   10   11 1   
    23   10   36 1   
    24   10   37 1   
    25   11   12 2   
    26   11   38 1   
    27   12   13 1   
    28   12   39 1   
    29   13   14 1   
    30   13   40 1   
    31   13   41 1   
    32   14   15 1   
    33   14   18 2   
    34   15   16 1   
    35   15   17 1   
    36   18   19 1   
    37   18   42 1   
    38   19   20 1   
    39   19   43 1   
    40   19   44 1   
    41   20   21 1   
    42   20   45 1   
    43   20   46 1   
    44   21   22 1   
    45   21   47 1   
    46   21   48 1   
    47   22   23 1   
    48   22   49 1   
    49   22   50 1   
    50   23   51 1   
    51   23   52 1   
    52   23   53 1   
@<TRIPOS>SUBSTRUCTURE
     1 LNB         1 TEMP              0 ****  ****    0 ROOT
