@<TRIPOS>MOLECULE
LNB
   53    52     1     0     0
SMALL
bcc


@<TRIPOS>ATOM
      1 O20         4.6370   -4.2930    0.7280 o         1 LNB     -0.852800
      2 C1          5.5300   -4.1170   -0.1470 c         1 LNB      0.909600
      3 O19         6.6240   -4.7570   -0.1730 o         1 LNB     -0.852800
      4 C2          5.2570   -3.0830   -1.2540 c3        1 LNB     -0.195400
      5 C3          6.4990   -2.2950   -1.5860 c3        1 LNB     -0.067400
      6 C4          6.3250   -1.4540   -2.8330 c3        1 LNB     -0.079400
      7 C5          7.5910   -0.6890   -3.1550 c3        1 LNB     -0.079400
      8 C6          7.5050    0.0040   -4.4980 c3        1 LNB     -0.081400
      9 C7          8.8060    0.7020   -4.8320 c3        1 LNB     -0.075400
     10 C8          8.8590    1.1270   -6.2870 c3        1 LNB     -0.054200
     11 C9         10.2240    1.5690   -6.6650 c2        1 LNB     -0.156200
     12 C10        11.2110    0.7890   -7.1140 c2        1 LNB     -0.177200
     13 C11        11.1180   -0.6730   -7.3540 c3        1 LNB      0.001000
     14 C12        12.2490   -1.4390   -6.7440 c2        1 LNB     -0.196300
     15 N21        13.6040   -1.1490   -7.2960 no        1 LNB      0.282100
     16 O22        13.7070   -0.4640   -8.2800 o         1 LNB     -0.225500
     17 O23        14.5740   -1.6130   -6.7530 o         1 LNB     -0.225500
     18 C13        12.1290   -2.3720   -5.7750 c2        1 LNB     -0.050200
     19 C14        10.8440   -2.7920   -5.1730 c3        1 LNB     -0.071200
     20 C15        11.0170   -3.9780   -4.2430 c3        1 LNB     -0.080400
     21 C16         9.6800   -4.4620   -3.7210 c3        1 LNB     -0.083400
     22 C17         9.8480   -5.6740   -2.8290 c3        1 LNB     -0.068400
     23 C18         8.5180   -6.2080   -2.3670 c3        1 LNB     -0.120100
     24 H2          4.4350   -2.4000   -0.9260 hc        1 LNB      0.021200
     25 H2A         4.9020   -3.6390   -2.1580 hc        1 LNB      0.021200
     26 H3          6.7650   -1.6330   -0.7210 hc        1 LNB      0.043700
     27 H3A         7.3530   -3.0140   -1.7240 hc        1 LNB      0.043700
     28 H4          6.0570   -2.1180   -3.6970 hc        1 LNB      0.028200
     29 H4A         5.4760   -0.7360   -2.6930 hc        1 LNB      0.028200
     30 H5          8.4610   -1.4010   -3.1590 hc        1 LNB      0.035700
     31 H5A         7.7900    0.0670   -2.3510 hc        1 LNB      0.035700
     32 H6          7.2660   -0.7540   -5.2900 hc        1 LNB      0.036200
     33 H6A         6.6660    0.7470   -4.4900 hc        1 LNB      0.036200
     34 H7          9.6660    0.0120   -4.6200 hc        1 LNB      0.040200
     35 H7A         8.9360    1.5980   -4.1710 hc        1 LNB      0.040200
     36 H8          8.1330    1.9670   -6.4560 hc        1 LNB      0.043200
     37 H8A         8.5260    0.2770   -6.9420 hc        1 LNB      0.043200
     38 H9         10.4070    2.6510   -6.5420 ha        1 LNB      0.118000
     39 H10        12.1870    1.2360   -7.3780 ha        1 LNB      0.135000
     40 H11        11.1180   -0.8470   -8.4690 hc        1 LNB      0.073200
     41 H11A       10.1570   -1.0870   -6.9440 hc        1 LNB      0.073200
     42 H13        13.0300   -2.8880   -5.3830 ha        1 LNB      0.161000
     43 H14        10.1130   -3.0600   -5.9850 hc        1 LNB      0.073200
     44 H14A       10.3950   -1.9330   -4.5990 hc        1 LNB      0.073200
     45 H15        11.6760   -3.6900   -3.3820 hc        1 LNB      0.041200
     46 H15A       11.5300   -4.8130   -4.7910 hc        1 LNB      0.041200
     47 H16         9.0110   -4.7220   -4.5830 hc        1 LNB      0.049200
     48 H16A        9.1730   -3.6430   -3.1440 hc        1 LNB      0.049200
     49 H17        10.4700   -5.3960   -1.9370 hc        1 LNB      0.023700
     50 H17A       10.4090   -6.4710   -3.3870 hc        1 LNB      0.023700
     51 H18         8.6670   -7.1250   -1.7490 hc        1 LNB      0.055700
     52 H18A        7.8760   -6.4730   -3.2410 hc        1 LNB      0.055700
     53 H18B        7.9670   -5.4560   -1.7370 hc        1 LNB      0.055700
@<TRIPOS>BOND
     1    1    2 1   
     2    2    3 1   
     3    2    4 1   
     4    4    5 1   
     5    4   24 1   
     6    4   25 1   
     7    5    6 1   
     8    5   26 1   
     9    5   27 1   
    10    6    7 1   
    11    6   28 1   
    12    6   29 1   
    13    7    8 1   
    14    7   30 1   
    15    7   31 1   
    16    8    9 1   
    17    8   32 1   
    18    8   33 1   
    19    9   10 1   
    20    9   34 1   
    21    9   35 1   
    22   10   11 1   
    23   10   36 1   
    24   10   37 1   
    25   11   12 2   
    26   11   38 1   
    27   12   13 1   
    28   12   39 1   
    29   13   14 1   
    30   13   40 1   
    31   13   41 1   
    32   14   15 1   
    33   14   18 2   
    34   15   16 1   
    35   15   17 1   
    36   18   19 1   
    37   18   42 1   
    38   19   20 1   
    39   19   43 1   
    40   19   44 1   
    41   20   21 1   
    42   20   45 1   
    43   20   46 1   
    44   21   22 1   
    45   21   47 1   
    46   21   48 1   
    47   22   23 1   
    48   22   49 1   
    49   22   50 1   
    50   23   51 1   
    51   23   52 1   
    52   23   53 1   
@<TRIPOS>SUBSTRUCTURE
     1 LNB         1 TEMP              0 ****  ****    0 ROOT
