@<TRIPOS>MOLECULE
LNB
   53    50     1     0     0
SMALL
bcc


@<TRIPOS>ATOM
      1 O20        -0.7580   -3.5590    9.0320 o         1 LNB     -0.587000
      2 C1         -1.0330   -2.3570    9.2870 c2        1 LNB      0.328000
      3 O19        -1.6830   -2.0660   10.3240 o         1 LNB     -0.587000
      4 C2         -0.5770   -1.2620    8.3480 c3        1 LNB     -0.223000
      5 C3         -1.5790   -1.1110    7.2240 c3        1 LNB     -0.145000
      6 C4         -1.0100   -0.1980    6.1610 c3        1 LNB     -0.157000
      7 C5         -1.9330   -0.1850    4.9610 c3        1 LNB     -0.158000
      8 C6         -1.2480    0.5110    3.8060 c3        1 LNB     -0.158000
      9 C7         -2.1710    0.5250    2.6070 c3        1 LNB     -0.157000
     10 C8         -1.3920    0.9320    1.3760 c3        1 LNB     -0.138000
     11 C9         -2.3160    0.9480    0.1780 c2        1 LNB     -0.138000
     12 C10        -1.8080    1.0920   -1.0620 c1        1 LNB     -0.194000
     13 C11        -0.3150    1.2370   -1.2560 c2        1 LNB     -0.088000
     14 C12        -0.0100    1.3870   -2.7300 c2        1 LNB     -0.160000
     15 N21        -0.5310    2.4920   -3.4530 no        1 LNB      0.558000
     16 O22        -1.5790    2.3770   -4.0720 o         1 LNB     -0.373500
     17 O23         0.1420    3.6800   -3.4630 o         1 LNB     -0.373500
     18 C13         0.7680    0.4810   -3.3540 c1        1 LNB     -0.045000
     19 C14         1.0730    0.6320   -4.8280 c2        1 LNB     -0.155000
     20 C15         2.0670   -0.4290   -5.2490 c3        1 LNB     -0.160000
     21 C16         2.4280   -0.2320   -6.7050 c3        1 LNB     -0.157000
     22 C17         3.4430   -1.2750   -7.1180 c3        1 LNB     -0.160000
     23 C18         3.7830   -1.0960   -8.5810 c3        1 LNB     -0.210000
     24 H2         -0.5080   -0.4190    8.8390 hc        1 LNB      0.058000
     25 H2A         0.2970   -1.4940    7.9760 hc        1 LNB      0.058000
     26 H3         -1.7660   -1.9880    6.8350 hc        1 LNB      0.084000
     27 H3A        -2.4070   -0.7270    7.5760 hc        1 LNB      0.084000
     28 H4         -0.1280   -0.5220    5.8900 hc        1 LNB      0.065500
     29 H4A        -0.9290    0.7090    6.5190 hc        1 LNB      0.065500
     30 H5         -2.1490   -1.1040    4.7070 hc        1 LNB      0.077500
     31 H5A        -2.7560    0.2920    5.1880 hc        1 LNB      0.077500
     32 H6         -0.4260    0.0330    3.5780 hc        1 LNB      0.073000
     33 H6A        -1.0310    1.4300    4.0610 hc        1 LNB      0.073000
     34 H7         -2.8950    1.1640    2.7610 hc        1 LNB      0.082000
     35 H7A        -2.5470   -0.3680    2.4750 hc        1 LNB      0.082000
     36 H8         -0.6690    0.2920    1.2210 hc        1 LNB      0.083500
     37 H8A        -1.0150    1.8250    1.5090 hc        1 LNB      0.083500
     38 H9         -3.2790    0.8550    0.3030 ha        1 LNB      0.128000
     39 H10        -2.4040    1.1020   -1.8360 ha        1 LNB      0.133000
     40 H11         0.0010    2.0270   -0.7750 ha        1 LNB      0.112000
     41 H11A        0.1380    0.4420   -0.9100 ha        1 LNB      0.112000
     42 H13         1.1410   -0.2690   -2.8530 ha        1 LNB      0.155000
     43 H14         0.2480    0.5280   -5.3440 ha        1 LNB      0.121500
     44 H14A        1.4520    1.5180   -4.9940 ha        1 LNB      0.121500
     45 H15         2.8730   -0.3560   -4.7000 hc        1 LNB      0.085000
     46 H15A        1.6690   -1.3140   -5.1280 hc        1 LNB      0.085000
     47 H16         2.8090    0.6600   -6.8290 hc        1 LNB      0.081000
     48 H16A        1.6240   -0.3230   -7.2550 hc        1 LNB      0.081000
     49 H17         4.2530   -1.1730   -6.5790 hc        1 LNB      0.082000
     50 H17A        3.0690   -2.1680   -6.9770 hc        1 LNB      0.082000
     51 H18         4.4040   -1.8010   -8.8600 hc        1 LNB      0.071667
     52 H18A        4.2020   -0.2200   -8.7140 hc        1 LNB      0.071667
     53 H18B        2.9640   -1.1510   -9.1160 hc        1 LNB      0.071667
@<TRIPOS>BOND
     1    1    2 1   
     2    2    3 1   
     3    2    4 1   
     4    4    5 1   
     5    4   24 1   
     6    4   25 1   
     7    5    6 1   
     8    5   26 1   
     9    5   27 1   
    10    6    7 1   
    11    6   28 1   
    12    6   29 1   
    13    7    8 1   
    14    7   30 1   
    15    7   31 1   
    16    8    9 1   
    17    8   32 1   
    18    8   33 1   
    19    9   10 1   
    20    9   34 1   
    21    9   35 1   
    22   10   11 1   
    23   10   36 1   
    24   10   37 1   
    25   11   12 1   
    26   11   38 1   
    27   12   39 1   
    28   13   14 1   
    29   13   40 1   
    30   13   41 1   
    31   14   15 1   
    32   14   18 1   
    33   15   16 1   
    34   15   17 1   
    35   18   42 1   
    36   19   20 1   
    37   19   43 1   
    38   19   44 1   
    39   20   21 1   
    40   20   45 1   
    41   20   46 1   
    42   21   22 1   
    43   21   47 1   
    44   21   48 1   
    45   22   23 1   
    46   22   49 1   
    47   22   50 1   
    48   23   51 1   
    49   23   52 1   
    50   23   53 1   
@<TRIPOS>SUBSTRUCTURE
     1 LNB         1 TEMP              0 ****  ****    0 ROOT
