@<TRIPOS>MOLECULE
LNE
   29    28     1     0     0
SMALL
bcc


@<TRIPOS>ATOM
      1 N9         -0.7260    1.7790    0.8620 n3        1 LNE     -0.901800
      2 C10        -0.3970    0.4380    0.4260 c3        1 LNE      0.105500
      3 C11         0.9990    0.4580   -0.2430 c         1 LNE      0.663100
      4 N12         2.0290   -0.1640    0.4200 n         1 LNE     -0.565900
      5 C13         3.3730   -0.2030   -0.0880 c3        1 LNE      0.087000
      6 C14         4.0110   -1.5830   -0.0360 c3        1 LNE     -0.113100
      7 C15        -1.3480   -0.2200   -0.5850 c3        1 LNE     -0.115400
      8 C16        -2.7890   -0.3060   -0.1110 c3        1 LNE     -0.067700
      9 C17        -3.6330   -0.9660   -1.1860 c3        1 LNE     -0.093100
     10 C18        -2.9150   -1.0670    1.1920 c3        1 LNE     -0.093100
     11 O25         1.1600    1.0190   -1.3460 o         1 LNE     -0.618100
     12 HN9        -0.6150    2.4330    0.1100 hn        1 LNE      0.360300
     13 H10        -0.3830   -0.2050    1.3560 h1        1 LNE      0.062700
     14 HN12        1.8700   -0.5430    1.3210 hn        1 LNE      0.311500
     15 H13         3.3640    0.1650   -1.1550 h1        1 LNE      0.057700
     16 H13A        4.0090    0.5110    0.5150 h1        1 LNE      0.057700
     17 H14         5.0540   -1.5080   -0.4270 hc        1 LNE      0.040700
     18 H14A        4.0520   -1.9720    1.0090 hc        1 LNE      0.040700
     19 H14B        3.4470   -2.3120   -0.6640 hc        1 LNE      0.040700
     20 H15        -1.3090    0.3550   -1.5500 hc        1 LNE      0.060700
     21 H15A       -0.9670   -1.2530   -0.7970 hc        1 LNE      0.060700
     22 H16        -3.1870    0.7370    0.0450 hc        1 LNE      0.041700
     23 H17        -3.2960   -2.0160   -1.3580 hc        1 LNE      0.035867
     24 H17A       -4.7050   -0.9840   -0.8780 hc        1 LNE      0.035867
     25 H17B       -3.5480   -0.4040   -2.1470 hc        1 LNE      0.035867
     26 H18        -3.9920   -1.2330    1.4390 hc        1 LNE      0.035867
     27 H18A       -2.4130   -2.0610    1.1170 hc        1 LNE      0.035867
     28 H18B       -2.4480   -0.4940    2.0300 hc        1 LNE      0.035867
     29 H2         -1.6720    1.8090    1.1890 hn        1 LNE      0.360300
@<TRIPOS>BOND
     1    1    2 1   
     2    1   12 1   
     3    1   29 1   
     4    2    3 1   
     5    2    7 1   
     6    2   13 1   
     7    3    4 1   
     8    3   11 2   
     9    4    5 1   
    10    4   14 1   
    11    5    6 1   
    12    5   15 1   
    13    5   16 1   
    14    6   17 1   
    15    6   18 1   
    16    6   19 1   
    17    7    8 1   
    18    7   20 1   
    19    7   21 1   
    20    8    9 1   
    21    8   10 1   
    22    8   22 1   
    23    9   23 1   
    24    9   24 1   
    25    9   25 1   
    26   10   26 1   
    27   10   27 1   
    28   10   28 1   
@<TRIPOS>SUBSTRUCTURE
     1 LNE         1 TEMP              0 ****  ****    0 ROOT
