@<TRIPOS>MOLECULE
LNG
   41    40     1     0     0
SMALL
bcc


@<TRIPOS>ATOM
      1 O11         0.4000    0.5430   -1.1660 o         1 LNG     -0.848300
      2 O1          2.1780   -0.7590   -1.5230 o         1 LNG     -0.848300
      3 C1          1.4950    0.0250   -0.8040 c         1 LNG      0.911600
      4 C2          1.9960    0.3690    0.6140 c3        1 LNG     -0.187200
      5 C3          3.4510    0.1860    0.7770 c2        1 LNG     -0.087200
      6 C4          4.1770    0.6730    1.7910 c2        1 LNG     -0.271200
      7 C5          3.6090    1.4810    2.8960 c3        1 LNG     -0.029200
      8 C6          4.5630    1.5980    4.0680 c3        1 LNG     -0.074400
      9 C7          3.9590    2.4170    5.1880 c3        1 LNG     -0.080400
     10 C8          4.9110    2.5380    6.3590 c3        1 LNG     -0.078400
     11 C9          4.3060    3.3560    7.4800 c3        1 LNG     -0.079400
     12 C10         5.2580    3.4780    8.6500 c3        1 LNG     -0.078400
     13 C11         4.6490    4.2940    9.7690 c3        1 LNG     -0.075400
     14 C12         5.5950    4.4590   10.9500 c3        1 LNG     -0.068700
     15 C13         5.1380    5.6050   11.8290 c3        1 LNG     -0.089100
     16 C14         5.6930    3.1860   11.7630 c3        1 LNG     -0.089100
     17 H2C1        1.4540   -0.3050    1.3300 hc        1 LNG      0.037200
     18 H2C2        1.6980    1.4220    0.8560 hc        1 LNG      0.037200
     19 H3C1        3.9250   -0.4060   -0.0300 ha        1 LNG      0.149000
     20 H4C1        5.2620    0.4950    1.8380 ha        1 LNG      0.096000
     21 H5C1        3.3570    2.5090    2.5160 hc        1 LNG      0.037700
     22 H5C2        2.6430    1.0220    3.2440 hc        1 LNG      0.037700
     23 H6C1        4.8200    0.5740    4.4460 hc        1 LNG      0.032700
     24 H6C2        5.5200    2.0750    3.7280 hc        1 LNG      0.032700
     25 H7C1        3.6990    3.4400    4.8080 hc        1 LNG      0.038200
     26 H7C2        3.0030    1.9390    5.5290 hc        1 LNG      0.038200
     27 H8C1        5.1710    1.5150    6.7390 hc        1 LNG      0.035700
     28 H8C2        5.8670    3.0170    6.0180 hc        1 LNG      0.035700
     29 H9C1        3.3500    2.8770    7.8210 hc        1 LNG      0.038700
     30 H9C2        4.0440    4.3780    7.0990 hc        1 LNG      0.038700
     31 H101        5.5210    2.4540    9.0250 hc        1 LNG      0.037700
     32 H102        6.2120    3.9590    8.3080 hc        1 LNG      0.037700
     33 H111        4.3750    5.3090    9.3740 hc        1 LNG      0.039700
     34 H112        3.7000    3.8080   10.1170 hc        1 LNG      0.039700
     35 H12         6.6210    4.7060   10.5520 hc        1 LNG      0.045700
     36 H131        4.1060    5.4170   12.2100 hc        1 LNG      0.031033
     37 H132        5.1330    6.5620   11.2540 hc        1 LNG      0.031033
     38 H133        5.8230    5.7210   12.7040 hc        1 LNG      0.031033
     39 H141        6.4010    3.3240   12.6150 hc        1 LNG      0.031033
     40 H142        4.6940    2.9070   12.1770 hc        1 LNG      0.031033
     41 H143        6.0600    2.3430   11.1300 hc        1 LNG      0.031033
@<TRIPOS>BOND
     1    1    3 1   
     2    2    3 1   
     3    3    4 1   
     4    4    5 1   
     5    4   17 1   
     6    4   18 1   
     7    5    6 2   
     8    5   19 1   
     9    6    7 1   
    10    6   20 1   
    11    7    8 1   
    12    7   21 1   
    13    7   22 1   
    14    8    9 1   
    15    8   23 1   
    16    8   24 1   
    17    9   10 1   
    18    9   25 1   
    19    9   26 1   
    20   10   11 1   
    21   10   27 1   
    22   10   28 1   
    23   11   12 1   
    24   11   29 1   
    25   11   30 1   
    26   12   13 1   
    27   12   31 1   
    28   12   32 1   
    29   13   14 1   
    30   13   33 1   
    31   13   34 1   
    32   14   15 1   
    33   14   16 1   
    34   14   35 1   
    35   15   36 1   
    36   15   37 1   
    37   15   38 1   
    38   16   39 1   
    39   16   40 1   
    40   16   41 1   
@<TRIPOS>SUBSTRUCTURE
     1 LNG         1 TEMP              0 ****  ****    0 ROOT
