@<TRIPOS>MOLECULE
LNG
   41    39     1     0     0
SMALL
bcc


@<TRIPOS>ATOM
      1 O11        -6.1980   -0.6750   -5.6070 o         1 LNG     -0.583000
      2 O1         -4.7080   -0.1340   -7.1050 o         1 LNG     -0.583000
      3 C1         -5.0150   -0.3660   -5.9060 c2        1 LNG      0.331000
      4 C2         -3.9600   -0.2810   -4.8250 c3        1 LNG     -0.220000
      5 C3         -3.2020   -1.5890   -4.7560 c2        1 LNG     -0.083000
      6 C4         -2.2450   -1.7640   -3.8240 c1        1 LNG     -0.267000
      7 C5         -1.9280   -0.6540   -2.8460 c2        1 LNG     -0.112000
      8 C6         -0.8290   -1.1050   -1.9100 c3        1 LNG     -0.153000
      9 C7         -0.5830   -0.0350   -0.8690 c3        1 LNG     -0.159000
     10 C8          0.5260   -0.4800    0.0590 c3        1 LNG     -0.157000
     11 C9          0.7400    0.5690    1.1280 c3        1 LNG     -0.158000
     12 C10         1.8190    0.1050    2.0820 c3        1 LNG     -0.157000
     13 C11         2.0240    1.1480    3.1580 c3        1 LNG     -0.154000
     14 C12         3.0740    0.6650    4.1350 c3        1 LNG     -0.108000
     15 C13         2.4490    0.4900    5.5010 c3        1 LNG     -0.206500
     16 C14         4.1910    1.6820    4.2170 c3        1 LNG     -0.206500
     17 H2C1       -3.3380    0.4450   -5.0330 hc        1 LNG      0.076500
     18 H2C2       -4.3890   -0.1070   -3.9640 hc        1 LNG      0.076500
     19 H3C1       -3.4070   -2.3060   -5.3860 ha        1 LNG      0.149000
     20 H4C1       -1.7560   -2.6080   -3.7790 ha        1 LNG      0.096000
     21 H5C1       -1.6330    0.1390   -3.3380 ha        1 LNG      0.077000
     22 H5C2       -2.7290   -0.4370   -2.3290 ha        1 LNG      0.077000
     23 H6C1       -0.0090   -1.2580   -2.4200 hc        1 LNG      0.072000
     24 H6C2       -1.0980   -1.9340   -1.4670 hc        1 LNG      0.072000
     25 H7C1       -1.4000    0.1130   -0.3530 hc        1 LNG      0.077500
     26 H7C2       -0.3220    0.7970   -1.3130 hc        1 LNG      0.077500
     27 H8C1        1.3520   -0.5980   -0.4520 hc        1 LNG      0.075500
     28 H8C2        0.2780   -1.3280    0.4790 hc        1 LNG      0.075500
     29 H9C1        1.0140    1.4100    0.7100 hc        1 LNG      0.078000
     30 H9C2       -0.0930    0.7070    1.6210 hc        1 LNG      0.078000
     31 H101        1.5490   -0.7400    2.4930 hc        1 LNG      0.077000
     32 H102        2.6550   -0.0250    1.5900 hc        1 LNG      0.077000
     33 H111        2.3200    1.9850    2.7490 hc        1 LNG      0.078500
     34 H112        1.1810    1.2960    3.6330 hc        1 LNG      0.078500
     35 H12         3.4340   -0.1890    3.8290 hc        1 LNG      0.085000
     36 H131        2.0510    1.3380    5.7900 hc        1 LNG      0.070333
     37 H132        1.7530   -0.1990    5.4570 hc        1 LNG      0.070333
     38 H133        3.1380    0.2170    6.1430 hc        1 LNG      0.070333
     39 H141        4.8170    1.4220    4.9250 hc        1 LNG      0.070333
     40 H142        3.8150    2.5640    4.4210 hc        1 LNG      0.070333
     41 H143        4.6630    1.7190    3.3600 hc        1 LNG      0.070333
@<TRIPOS>BOND
     1    1    3 1   
     2    2    3 1   
     3    3    4 1   
     4    4    5 1   
     5    4   17 1   
     6    4   18 1   
     7    5    6 1   
     8    5   19 1   
     9    6   20 1   
    10    7    8 1   
    11    7   21 1   
    12    7   22 1   
    13    8    9 1   
    14    8   23 1   
    15    8   24 1   
    16    9   10 1   
    17    9   25 1   
    18    9   26 1   
    19   10   11 1   
    20   10   27 1   
    21   10   28 1   
    22   11   12 1   
    23   11   29 1   
    24   11   30 1   
    25   12   13 1   
    26   12   31 1   
    27   12   32 1   
    28   13   14 1   
    29   13   33 1   
    30   13   34 1   
    31   14   15 1   
    32   14   16 1   
    33   14   35 1   
    34   15   36 1   
    35   15   37 1   
    36   15   38 1   
    37   16   39 1   
    38   16   40 1   
    39   16   41 1   
@<TRIPOS>SUBSTRUCTURE
     1 LNG         1 TEMP              0 ****  ****    0 ROOT
