@<TRIPOS>MOLECULE
LNG
   41    40     1     0     0
SMALL
bcc


@<TRIPOS>ATOM
      1 O11         0.3440    0.4740   -1.1190 o         1 LNG     -0.848300
      2 O1          2.1590   -0.7660   -1.5120 o         1 LNG     -0.848300
      3 C1          1.4630   -0.0070   -0.7790 c         1 LNG      0.911600
      4 C2          1.9780    0.3510    0.6300 c3        1 LNG     -0.187200
      5 C3          3.4400    0.2130    0.7680 c2        1 LNG     -0.087200
      6 C4          4.1680    0.7170    1.7720 c2        1 LNG     -0.271200
      7 C5          3.5960    1.5020    2.8900 c3        1 LNG     -0.029200
      8 C6          4.5610    1.6310    4.0520 c3        1 LNG     -0.074400
      9 C7          3.9520    2.4260    5.1870 c3        1 LNG     -0.080400
     10 C8          4.9140    2.5570    6.3480 c3        1 LNG     -0.078400
     11 C9          4.3040    3.3520    7.4830 c3        1 LNG     -0.079400
     12 C10         5.2670    3.4820    8.6440 c3        1 LNG     -0.078400
     13 C11         4.6540    4.2770    9.7770 c3        1 LNG     -0.075400
     14 C12         5.6090    4.4490   10.9500 c3        1 LNG     -0.068700
     15 C13         5.1400    5.5790   11.8440 c3        1 LNG     -0.089100
     16 C14         5.7360    3.1700   11.7510 c3        1 LNG     -0.089100
     17 H2C1        1.4700   -0.3390    1.3550 hc        1 LNG      0.037200
     18 H2C2        1.6530    1.3940    0.8800 hc        1 LNG      0.037200
     19 H3C1        3.9180   -0.3610   -0.0490 ha        1 LNG      0.149000
     20 H4C1        5.2590    0.5720    1.8000 ha        1 LNG      0.096000
     21 H5C1        3.3180    2.5280    2.5220 hc        1 LNG      0.037700
     22 H5C2        2.6440    1.0200    3.2450 hc        1 LNG      0.037700
     23 H6C1        4.8440    0.6090    4.4190 hc        1 LNG      0.032700
     24 H6C2        5.5030    2.1310    3.7060 hc        1 LNG      0.032700
     25 H7C1        3.6660    3.4470    4.8190 hc        1 LNG      0.038200
     26 H7C2        3.0100    1.9250    5.5330 hc        1 LNG      0.038200
     27 H8C1        5.1990    1.5360    6.7160 hc        1 LNG      0.036200
     28 H8C2        5.8560    3.0580    6.0020 hc        1 LNG      0.036200
     29 H9C1        3.3620    2.8510    7.8290 hc        1 LNG      0.038700
     30 H9C2        4.0190    4.3730    7.1150 hc        1 LNG      0.038700
     31 H101        5.5530    2.4600    9.0080 hc        1 LNG      0.037700
     32 H102        6.2080    3.9850    8.2970 hc        1 LNG      0.037700
     33 H111        4.3570    5.2900    9.3940 hc        1 LNG      0.039700
     34 H112        3.7170    3.7700   10.1300 hc        1 LNG      0.039700
     35 H12         6.6260    4.7160   10.5430 hc        1 LNG      0.045700
     36 H131        4.1150    5.3700   12.2330 hc        1 LNG      0.031033
     37 H132        5.1140    6.5400   11.2760 hc        1 LNG      0.031033
     38 H133        5.8310    5.6990   12.7120 hc        1 LNG      0.031033
     39 H141        6.4510    3.3130   12.5970 hc        1 LNG      0.031033
     40 H142        4.7460    2.8710   12.1720 hc        1 LNG      0.031033
     41 H143        6.1120    2.3400   11.1060 hc        1 LNG      0.031033
@<TRIPOS>BOND
     1    1    3 1   
     2    2    3 1   
     3    3    4 1   
     4    4    5 1   
     5    4   17 1   
     6    4   18 1   
     7    5    6 2   
     8    5   19 1   
     9    6    7 1   
    10    6   20 1   
    11    7    8 1   
    12    7   21 1   
    13    7   22 1   
    14    8    9 1   
    15    8   23 1   
    16    8   24 1   
    17    9   10 1   
    18    9   25 1   
    19    9   26 1   
    20   10   11 1   
    21   10   27 1   
    22   10   28 1   
    23   11   12 1   
    24   11   29 1   
    25   11   30 1   
    26   12   13 1   
    27   12   31 1   
    28   12   32 1   
    29   13   14 1   
    30   13   33 1   
    31   13   34 1   
    32   14   15 1   
    33   14   16 1   
    34   14   35 1   
    35   15   36 1   
    36   15   37 1   
    37   15   38 1   
    38   16   39 1   
    39   16   40 1   
    40   16   41 1   
@<TRIPOS>SUBSTRUCTURE
     1 LNG         1 TEMP              0 ****  ****    0 ROOT
