@<TRIPOS>MOLECULE
LNG
   41    40     1     0     0
SMALL
bcc


@<TRIPOS>ATOM
      1 O11         7.0150    1.4380    0.8630 o         1 LNG     -0.848300
      2 O1          7.2950   -0.4340   -0.3210 o         1 LNG     -0.848300
      3 C1          6.5680    0.4610    0.1970 c         1 LNG      0.911600
      4 C2          5.0400    0.3920   -0.0010 c3        1 LNG     -0.187200
      5 C3          4.5530   -0.9680   -0.3030 c2        1 LNG     -0.087200
      6 C4          3.2740   -1.3580   -0.2380 c2        1 LNG     -0.271200
      7 C5          2.1610   -0.4650    0.1610 c3        1 LNG     -0.029200
      8 C6          0.8060   -1.0490   -0.1860 c3        1 LNG     -0.074400
      9 C7         -0.3150   -0.1160    0.2190 c3        1 LNG     -0.080400
     10 C8         -1.6690   -0.6980   -0.1240 c3        1 LNG     -0.078400
     11 C9         -2.7890    0.2360    0.2810 c3        1 LNG     -0.079400
     12 C10        -4.1440   -0.3470   -0.0610 c3        1 LNG     -0.078400
     13 C11        -5.2610    0.5910    0.3430 c3        1 LNG     -0.075400
     14 C12        -6.6380    0.0190    0.0380 c3        1 LNG     -0.068700
     15 C13        -7.6990    0.7610    0.8270 c3        1 LNG     -0.089100
     16 C14        -6.9490    0.0860   -1.4430 c3        1 LNG     -0.089100
     17 H2C1        4.5380    0.7990    0.9140 hc        1 LNG      0.037200
     18 H2C2        4.7840    1.0750   -0.8550 hc        1 LNG      0.037200
     19 H3C1        5.3500   -1.6770   -0.5990 ha        1 LNG      0.149000
     20 H4C1        2.9930   -2.3950   -0.4760 ha        1 LNG      0.096000
     21 H5C1        2.2130   -0.2760    1.2680 hc        1 LNG      0.037700
     22 H5C2        2.2780    0.5340   -0.3410 hc        1 LNG      0.037700
     23 H6C1        0.7530   -1.2440   -1.2900 hc        1 LNG      0.032700
     24 H6C2        0.6780   -2.0370    0.3300 hc        1 LNG      0.032700
     25 H7C1       -0.2580    0.0810    1.3220 hc        1 LNG      0.038200
     26 H7C2       -0.1870    0.8710   -0.2980 hc        1 LNG      0.038200
     27 H8C1       -1.7250   -0.8950   -1.2270 hc        1 LNG      0.035700
     28 H8C2       -1.7970   -1.6850    0.3950 hc        1 LNG      0.035700
     29 H9C1       -2.7330    0.4340    1.3840 hc        1 LNG      0.038700
     30 H9C2       -2.6620    1.2220   -0.2380 hc        1 LNG      0.038700
     31 H101       -4.1960   -0.5480   -1.1640 hc        1 LNG      0.037700
     32 H102       -4.2710   -1.3320    0.4600 hc        1 LNG      0.037700
     33 H111       -5.1850    0.7960    1.4440 hc        1 LNG      0.039700
     34 H112       -5.1400    1.5730   -0.1860 hc        1 LNG      0.039700
     35 H12        -6.6530   -1.0620    0.3550 hc        1 LNG      0.045700
     36 H131       -7.6870    1.8480    0.5700 hc        1 LNG      0.031033
     37 H132       -8.7120    0.3530    0.5950 hc        1 LNG      0.031033
     38 H133       -7.5160    0.6550    1.9230 hc        1 LNG      0.031033
     39 H141       -6.9450    1.1450   -1.7980 hc        1 LNG      0.031033
     40 H142       -6.1910   -0.4860   -2.0290 hc        1 LNG      0.031033
     41 H143       -7.9570   -0.3500   -1.6470 hc        1 LNG      0.031033
@<TRIPOS>BOND
     1    1    3 1   
     2    2    3 1   
     3    3    4 1   
     4    4    5 1   
     5    4   17 1   
     6    4   18 1   
     7    5    6 2   
     8    5   19 1   
     9    6    7 1   
    10    6   20 1   
    11    7    8 1   
    12    7   21 1   
    13    7   22 1   
    14    8    9 1   
    15    8   23 1   
    16    8   24 1   
    17    9   10 1   
    18    9   25 1   
    19    9   26 1   
    20   10   11 1   
    21   10   27 1   
    22   10   28 1   
    23   11   12 1   
    24   11   29 1   
    25   11   30 1   
    26   12   13 1   
    27   12   31 1   
    28   12   32 1   
    29   13   14 1   
    30   13   33 1   
    31   13   34 1   
    32   14   15 1   
    33   14   16 1   
    34   14   35 1   
    35   15   36 1   
    36   15   37 1   
    37   15   38 1   
    38   16   39 1   
    39   16   40 1   
    40   16   41 1   
@<TRIPOS>SUBSTRUCTURE
     1 LNG         1 TEMP              0 ****  ****    0 ROOT
