@<TRIPOS>MOLECULE
LNH
   53    57     1     0     0
SMALL
bcc


@<TRIPOS>ATOM
      1 C1         -0.2090   -0.9040   -0.0630 c3        1 LNH     -0.177100
      2 C2          1.2590   -0.5850    0.1300 c         1 LNH      0.657100
      3 O3          1.7540   -0.5220    1.2690 o         1 LNH     -0.581100
      4 N4          1.9880   -0.3600   -1.0270 ns        1 LNH     -0.477100
      5 C5          3.3640   -0.0500   -1.0910 ca        1 LNH      0.023600
      6 C6          4.1090   -0.5360   -2.2020 ca        1 LNH     -0.176000
      7 C7          5.4530   -0.2470   -2.3550 ca        1 LNH     -0.113000
      8 C8          6.0790    0.5470   -1.3870 ca        1 LNH     -0.087200
      9 C9          5.3320    1.0580   -0.2550 ca        1 LNH     -0.017800
     10 C10         3.9820    0.7470   -0.1140 ca        1 LNH     -0.088000
     11 C11         6.2700    1.8310    0.5290 cc        1 LNH     -0.309000
     12 C12         7.5150    1.7640   -0.1390 cd        1 LNH     -0.011100
     13 N13         7.4060    1.0010   -1.2830 na        1 LNH     -0.039400
     14 C14         8.4860    0.6730   -2.1830 c3        1 LNH      0.052300
     15 C15         9.6200    1.6910   -2.2250 c3        1 LNH     -0.222400
     16 C16        10.5770    1.5310   -1.0280 c         1 LNH      0.909600
     17 O17        10.4890    2.3740   -0.0820 o         1 LNH     -0.841300
     18 O18        11.3990    0.5780   -1.0480 o         1 LNH     -0.841300
     19 C19         6.0790    2.5730    1.7490 cc        1 LNH      0.627100
     20 C20         7.2640    2.8620    2.5080 cc        1 LNH     -0.371300
     21 C21         7.2160    3.6420    3.6700 cd        1 LNH      0.270300
     22 N22         5.9510    4.1220    4.0530 na        1 LNH     -0.003800
     23 C23         4.7960    3.7480    3.2610 cd        1 LNH      0.481500
     24 N24         4.8550    2.9950    2.1290 nd        1 LNH     -0.699000
     25 C25         3.6980    4.3770    3.9330 cc        1 LNH     -0.255300
     26 C26         4.2800    5.0630    5.0580 cc        1 LNH      0.425500
     27 N27         5.6230    4.8970    5.1110 nd        1 LNH     -0.600100
     28 C28         2.3520    4.3460    3.5770 cg        1 LNH      0.275500
     29 N29         1.2230    4.3340    3.2890 n1        1 LNH     -0.430800
     30 N30         8.3440    3.8770    4.4670 nu        1 LNH     -0.698600
     31 C31         9.6210    3.5920    3.8890 cx        1 LNH      0.113500
     32 C32        10.7610    4.5920    3.9160 cx        1 LNH     -0.139400
     33 C33        10.1400    4.2160    2.6050 cx        1 LNH     -0.139400
     34 H1         -0.7320   -0.0450   -0.5480 hc        1 LNH      0.060367
     35 H1A        -0.3380   -1.8160   -0.6920 hc        1 LNH      0.060367
     36 H1B        -0.6660   -1.0850    0.9400 hc        1 LNH      0.060367
     37 HN4         1.5440   -0.5370   -1.8970 hn        1 LNH      0.304500
     38 H6          3.6130   -1.1600   -2.9620 ha        1 LNH      0.115000
     39 H7          6.0150   -0.6370   -3.2150 ha        1 LNH      0.129000
     40 H10         3.4190    1.1110    0.7620 ha        1 LNH      0.181000
     41 H12         8.4850    2.2320    0.1280 h4        1 LNH      0.248000
     42 H14         8.9170   -0.3250   -1.8730 h1        1 LNH      0.050200
     43 H14A        8.0370    0.5630   -3.2120 h1        1 LNH      0.050200
     44 H15         9.2280    2.7370   -2.2560 hc        1 LNH      0.046700
     45 H15A       10.2020    1.5000   -3.1620 hc        1 LNH      0.046700
     46 H20         8.2330    2.4630    2.1660 ha        1 LNH      0.194000
     47 H26         3.7500    5.6570    5.8040 h4        1 LNH      0.045800
     48 HN30        8.3150    4.6860    5.0530 hn        1 LNH      0.424800
     49 H31         9.8720    2.5190    4.0640 h1        1 LNH      0.106700
     50 H32        10.5870    5.6050    4.3200 hc        1 LNH      0.090950
     51 H32A       11.7670    4.2140    4.1680 hc        1 LNH      0.090950
     52 H33         9.5210    4.9660    2.0800 hc        1 LNH      0.090950
     53 H33A       10.6750    3.5600    1.8830 hc        1 LNH      0.090950
@<TRIPOS>BOND
     1    1    2 1   
     2    1   34 1   
     3    1   35 1   
     4    1   36 1   
     5    2    3 2   
     6    2    4 1   
     7    4    5 1   
     8    4   37 1   
     9    5    6 ar  
    10    5   10 ar  
    11    6    7 ar  
    12    6   38 1   
    13    7    8 ar  
    14    7   39 1   
    15    8    9 ar  
    16    8   13 1   
    17    9   10 ar  
    18    9   11 1   
    19   10   40 1   
    20   11   12 2   
    21   11   19 1   
    22   12   13 1   
    23   12   41 1   
    24   13   14 1   
    25   14   15 1   
    26   14   42 1   
    27   14   43 1   
    28   15   16 1   
    29   15   44 1   
    30   15   45 1   
    31   16   17 1   
    32   16   18 1   
    33   19   20 1   
    34   19   24 2   
    35   20   21 2   
    36   20   46 1   
    37   21   22 1   
    38   21   30 1   
    39   22   23 1   
    40   22   27 1   
    41   23   24 1   
    42   23   25 2   
    43   25   26 1   
    44   25   28 1   
    45   26   27 2   
    46   26   47 1   
    47   28   29 3   
    48   30   31 1   
    49   30   48 1   
    50   31   32 1   
    51   31   33 1   
    52   31   49 1   
    53   32   33 1   
    54   32   50 1   
    55   32   51 1   
    56   33   52 1   
    57   33   53 1   
@<TRIPOS>SUBSTRUCTURE
     1 LNH         1 TEMP              0 ****  ****    0 ROOT
