@<TRIPOS>MOLECULE
LNH
   55    59     1     0     0
SMALL
bcc


@<TRIPOS>ATOM
      1 C1          1.0670   -1.2740    0.0970 c3        1 LNH     -0.184100
      2 C2          1.0560   -0.6510   -1.2540 c         1 LNH      0.561100
      3 O3          0.5590   -1.0630   -2.2890 o         1 LNH     -0.410100
      4 N4          1.7440    0.7040   -1.3730 n4        1 LNH     -0.544200
      5 C5          3.2020    0.5770   -1.2970 ca        1 LNH     -0.092400
      6 C6          3.9270    0.2920   -2.4780 ca        1 LNH     -0.103000
      7 C7          5.3090    0.1710   -2.4460 ca        1 LNH     -0.093000
      8 C8          5.9700    0.3310   -1.2220 ca        1 LNH     -0.017200
      9 C9          5.2170    0.6360   -0.0150 ca        1 LNH     -0.043800
     10 C10         3.8380    0.7550   -0.0570 ca        1 LNH     -0.064000
     11 C11         6.1940    0.7640    1.0490 cc        1 LNH     -0.273000
     12 C12         7.4330    0.3930    0.5000 cd        1 LNH      0.017900
     13 N13         7.3290    0.1850   -0.8820 na        1 LNH     -0.040400
     14 C14         8.4450    0.6120   -1.7140 c3        1 LNH      0.036300
     15 C15         8.7400    2.1160   -1.6740 c3        1 LNH     -0.199400
     16 C16         9.0380    2.6580   -0.2860 c         1 LNH      0.910600
     17 O17         8.5790    3.8020    0.0540 o         1 LNH     -0.853800
     18 O18         9.7130    1.9850    0.5510 o         1 LNH     -0.853800
     19 C19         6.0990    1.6490    2.1930 cc        1 LNH      0.578100
     20 C20         7.3440    2.3690    2.4270 cc        1 LNH     -0.230300
     21 C21         7.3050    3.6320    2.9750 cd        1 LNH      0.120300
     22 N22         6.1320    4.0400    3.6190 na        1 LNH      0.020200
     23 C23         4.9710    3.1700    3.5020 cd        1 LNH      0.425500
     24 N24         4.9480    2.0150    2.7540 nd        1 LNH     -0.645000
     25 C25         3.9490    3.8660    4.2070 cc        1 LNH     -0.166300
     26 C26         4.5590    5.0920    4.6650 cc        1 LNH      0.446500
     27 N27         5.8590    5.1760    4.2820 nd        1 LNH     -0.565100
     28 C28         2.6290    3.4430    4.3810 cg        1 LNH      0.237500
     29 N29         1.5290    3.0830    4.5050 n1        1 LNH     -0.355800
     30 N30         8.4500    4.5250    2.7530 n4        1 LNH     -0.645400
     31 C31         9.5370    4.3070    3.7200 cx        1 LNH      0.000500
     32 C32        10.9360    4.7900    3.3860 cx        1 LNH     -0.106400
     33 C33        10.6460    3.3220    3.4030 cx        1 LNH     -0.106400
     34 H1          2.0720   -1.1870    0.5840 hc        1 LNH      0.115700
     35 H1A         0.2970   -0.7820    0.7470 hc        1 LNH      0.115700
     36 H1B         0.8050   -2.3610   -0.0090 hc        1 LNH      0.115700
     37 HN4         1.4220    1.3130   -0.6130 hn        1 LNH      0.461300
     38 H6          3.4050    0.1610   -3.4400 ha        1 LNH      0.157000
     39 H7          5.8680   -0.0520   -3.3690 ha        1 LNH      0.172000
     40 H10         3.2790    0.9860    0.8650 ha        1 LNH      0.170000
     41 H12         8.4200    0.2770    0.9810 h4        1 LNH      0.234000
     42 H14         8.2200    0.3010   -2.7720 h1        1 LNH      0.083200
     43 H14A        9.3550    0.0560   -1.3430 h1        1 LNH      0.083200
     44 H15         7.8900    2.6970   -2.1150 hc        1 LNH      0.078200
     45 H15A        9.6490    2.2920   -2.3080 hc        1 LNH      0.078200
     46 H20         8.3070    1.9780    2.0360 ha        1 LNH      0.234000
     47 H26         4.0820    5.8860    5.2500 h4        1 LNH      0.082800
     48 HN30        8.7970    4.2920    1.7400 hn        1 LNH      0.504800
     49 H31         9.1650    4.3980    4.7640 hx        1 LNH      0.130700
     50 H32        11.5190    5.2510    4.2050 hc        1 LNH      0.114200
     51 H32A       11.1330    5.2800    2.4130 hc        1 LNH      0.114200
     52 H33        10.6260    2.7690    2.4350 hc        1 LNH      0.114200
     53 H33A       11.0220    2.6950    4.2330 hc        1 LNH      0.114200
     54 H42         1.4960    1.1320   -2.2750 hn        1 LNH      0.461300
     55 H302        8.1580    5.5070    2.7900 hn        1 LNH      0.504800
@<TRIPOS>BOND
     1    1    2 1   
     2    1   34 1   
     3    1   35 1   
     4    1   36 1   
     5    2    3 2   
     6    2    4 1   
     7    4    5 1   
     8    4   37 1   
     9    4   54 1   
    10    5    6 ar  
    11    5   10 ar  
    12    6    7 ar  
    13    6   38 1   
    14    7    8 ar  
    15    7   39 1   
    16    8    9 ar  
    17    8   13 1   
    18    9   10 ar  
    19    9   11 1   
    20   10   40 1   
    21   11   12 2   
    22   11   19 1   
    23   12   13 1   
    24   12   41 1   
    25   13   14 1   
    26   14   15 1   
    27   14   42 1   
    28   14   43 1   
    29   15   16 1   
    30   15   44 1   
    31   15   45 1   
    32   16   17 1   
    33   16   18 1   
    34   19   20 1   
    35   19   24 2   
    36   20   21 2   
    37   20   46 1   
    38   21   22 1   
    39   21   30 1   
    40   22   23 1   
    41   22   27 1   
    42   23   24 1   
    43   23   25 2   
    44   25   26 1   
    45   25   28 1   
    46   26   27 2   
    47   26   47 1   
    48   28   29 3   
    49   30   31 1   
    50   30   48 1   
    51   30   55 1   
    52   31   32 1   
    53   31   33 1   
    54   31   49 1   
    55   32   33 1   
    56   32   50 1   
    57   32   51 1   
    58   33   52 1   
    59   33   53 1   
@<TRIPOS>SUBSTRUCTURE
     1 LNH         1 TEMP              0 ****  ****    0 ROOT
