@<TRIPOS>MOLECULE
LNH
   53    57     1     0     0
SMALL
bcc


@<TRIPOS>ATOM
      1 C1         -0.2300   -0.8430   -0.1040 c3        1 LNH     -0.177100
      2 C2          1.2400   -0.5380    0.0940 c         1 LNH      0.657100
      3 O3          1.7330   -0.4920    1.2350 o         1 LNH     -0.581100
      4 N4          1.9720   -0.3070   -1.0580 n         1 LNH     -0.477100
      5 C5          3.3510   -0.0060   -1.1170 ca        1 LNH      0.023600
      6 C6          4.0930   -0.4860   -2.2320 ca        1 LNH     -0.176000
      7 C7          5.4410   -0.2060   -2.3800 ca        1 LNH     -0.113000
      8 C8          6.0710    0.5720   -1.4020 ca        1 LNH     -0.087200
      9 C9          5.3260    1.0770   -0.2650 ca        1 LNH     -0.017800
     10 C10         3.9740    0.7740   -0.1300 ca        1 LNH     -0.088000
     11 C11         6.2700    1.8330    0.5280 cc        1 LNH     -0.309000
     12 C12         7.5150    1.7630   -0.1380 cd        1 LNH     -0.011100
     13 N13         7.4020    1.0140   -1.2900 na        1 LNH     -0.039400
     14 C14         8.4800    0.6880   -2.1920 c3        1 LNH      0.052300
     15 C15         9.6220    1.6970   -2.2230 c3        1 LNH     -0.222400
     16 C16        10.5760    1.5180   -1.0260 c         1 LNH      0.909600
     17 O17        10.4930    2.3520   -0.0710 o         1 LNH     -0.841300
     18 O18        11.3910    0.5590   -1.0550 o         1 LNH     -0.841300
     19 C19         6.0820    2.5630    1.7560 cc        1 LNH      0.627100
     20 C20         7.2680    2.8360    2.5200 cc        1 LNH     -0.371300
     21 C21         7.2240    3.6040    3.6890 cd        1 LNH      0.270300
     22 N22         5.9620    4.0890    4.0760 na        1 LNH     -0.003800
     23 C23         4.8060    3.7320    3.2780 cd        1 LNH      0.481500
     24 N24         4.8610    2.9910    2.1390 nd        1 LNH     -0.699000
     25 C25         3.7110    4.3620    3.9560 cc        1 LNH     -0.255300
     26 C26         4.2970    5.0320    5.0880 cc        1 LNH      0.425500
     27 N27         5.6390    4.8560    5.1410 nd        1 LNH     -0.600100
     28 C28         2.3650    4.3450    3.5980 cg        1 LNH      0.275500
     29 N29         1.2360    4.3430    3.3080 n1        1 LNH     -0.430800
     30 N30         8.3530    3.8220    4.4910 nh        1 LNH     -0.698600
     31 C31         9.6290    3.5340    3.9110 cx        1 LNH      0.113500
     32 C32        10.7750    4.5250    3.9490 cx        1 LNH     -0.139400
     33 C33        10.1530    4.1680    2.6350 cx        1 LNH     -0.139400
     34 H1         -0.6900   -1.0320    0.8960 hc        1 LNH      0.060367
     35 H1A        -0.7450    0.0250   -0.5810 hc        1 LNH      0.060367
     36 H1B        -0.3660   -1.7470   -0.7440 hc        1 LNH      0.060367
     37 HN4         1.5290   -0.4700   -1.9310 hn        1 LNH      0.304500
     38 H6          3.5950   -1.0970   -3.0000 ha        1 LNH      0.115000
     39 H7          6.0010   -0.5910   -3.2430 ha        1 LNH      0.129000
     40 H10         3.4120    1.1330    0.7480 ha        1 LNH      0.181000
     41 H12         8.4880    2.2200    0.1360 h4        1 LNH      0.248000
     42 H14         8.0320    0.5920   -3.2230 h1        1 LNH      0.050200
     43 H14A        8.9030   -0.3170   -1.8930 h1        1 LNH      0.050200
     44 H15        10.2040    1.5130   -3.1610 hc        1 LNH      0.046700
     45 H15A        9.2380    2.7470   -2.2420 hc        1 LNH      0.046700
     46 H20         8.2350    2.4330    2.1750 ha        1 LNH      0.194000
     47 H26         3.7700    5.6220    5.8400 h4        1 LNH      0.045800
     48 HN30        8.3280    4.6250    5.0850 hn        1 LNH      0.424800
     49 H31         9.8710    2.4580    4.0750 h1        1 LNH      0.106700
     50 H32        11.7780    4.1380    4.2000 hc        1 LNH      0.090950
     51 H32A       10.6080    5.5350    4.3640 hc        1 LNH      0.090950
     52 H33         9.5400    4.9270    2.1160 hc        1 LNH      0.090950
     53 H33A       10.6840    3.5150    1.9070 hc        1 LNH      0.090950
@<TRIPOS>BOND
     1    1    2 1   
     2    1   34 1   
     3    1   35 1   
     4    1   36 1   
     5    2    3 2   
     6    2    4 1   
     7    4    5 1   
     8    4   37 1   
     9    5    6 ar  
    10    5   10 ar  
    11    6    7 ar  
    12    6   38 1   
    13    7    8 ar  
    14    7   39 1   
    15    8    9 ar  
    16    8   13 1   
    17    9   10 ar  
    18    9   11 1   
    19   10   40 1   
    20   11   12 2   
    21   11   19 1   
    22   12   13 1   
    23   12   41 1   
    24   13   14 1   
    25   14   15 1   
    26   14   42 1   
    27   14   43 1   
    28   15   16 1   
    29   15   44 1   
    30   15   45 1   
    31   16   17 1   
    32   16   18 1   
    33   19   20 1   
    34   19   24 2   
    35   20   21 2   
    36   20   46 1   
    37   21   22 1   
    38   21   30 1   
    39   22   23 1   
    40   22   27 1   
    41   23   24 1   
    42   23   25 2   
    43   25   26 1   
    44   25   28 1   
    45   26   27 2   
    46   26   47 1   
    47   28   29 3   
    48   30   31 1   
    49   30   48 1   
    50   31   32 1   
    51   31   33 1   
    52   31   49 1   
    53   32   33 1   
    54   32   50 1   
    55   32   51 1   
    56   33   52 1   
    57   33   53 1   
@<TRIPOS>SUBSTRUCTURE
     1 LNH         1 TEMP              0 ****  ****    0 ROOT
