@<TRIPOS>MOLECULE
LNH
   53    57     1     0     0
SMALL
bcc


@<TRIPOS>ATOM
      1 C1         -0.5940    6.8800   -0.6260 c3        1 LNH     -0.177100
      2 C2         -0.2750    5.4050   -0.7520 c         1 LNH      0.657100
      3 O3         -1.0080    4.6490   -1.4130 o         1 LNH     -0.581100
      4 N4          0.8570    4.9700   -0.0820 n         1 LNH     -0.477100
      5 C5          1.3460    3.6460   -0.0570 ca        1 LNH      0.023600
      6 C6          2.7550    3.4540    0.0040 ca        1 LNH     -0.176000
      7 C7          3.3120    2.1880    0.0650 ca        1 LNH     -0.113000
      8 C8          2.4540    1.0820    0.0700 ca        1 LNH     -0.087200
      9 C9          1.0160    1.2610    0.0180 ca        1 LNH     -0.017800
     10 C10         0.4770    2.5420   -0.0540 ca        1 LNH     -0.088000
     11 C11         0.4460   -0.0680    0.0450 cc        1 LNH     -0.309000
     12 C12         1.5270   -0.9770    0.1120 cd        1 LNH     -0.011100
     13 N13         2.7270   -0.2970    0.1290 na        1 LNH     -0.039400
     14 C14         4.0370   -0.9010    0.1420 c3        1 LNH      0.052300
     15 C15         4.1030   -2.2830    0.7790 c3        1 LNH     -0.222400
     16 C16         3.6130   -3.3820   -0.1830 c         1 LNH      0.909600
     17 O17         2.4550   -3.8660    0.0100 o         1 LNH     -0.841300
     18 O18         4.3820   -3.7460   -1.1100 o         1 LNH     -0.841300
     19 C19        -0.9310   -0.4930    0.0280 cc        1 LNH      0.627100
     20 C20        -1.1700   -1.8520   -0.3740 cc        1 LNH     -0.371300
     21 C21        -2.4560   -2.4040   -0.3560 cd        1 LNH      0.270300
     22 N22        -3.4970   -1.5590    0.0720 na        1 LNH     -0.003800
     23 C23        -3.1820   -0.1870    0.4170 cd        1 LNH      0.481500
     24 N24        -1.9260    0.3370    0.4030 nd        1 LNH     -0.699000
     25 C25        -4.4480    0.3780    0.7780 cc        1 LNH     -0.255300
     26 C26        -5.4020   -0.6890    0.6180 cc        1 LNH      0.425500
     27 N27        -4.8140   -1.8340    0.1960 nd        1 LNH     -0.600100
     28 C28        -4.7100    1.6780    1.2040 cg        1 LNH      0.275500
     29 N29        -4.9440    2.7600    1.5660 n1        1 LNH     -0.430800
     30 N30        -2.7270   -3.7000   -0.8130 nh        1 LNH     -0.698600
     31 C31        -1.6100   -4.5790   -0.9770 cx        1 LNH      0.113500
     32 C32        -1.5890   -5.9770   -0.3930 cx        1 LNH     -0.139400
     33 C33        -0.6370   -4.9460    0.1290 cx        1 LNH     -0.139400
     34 H1         -0.7940    7.1440    0.4400 hc        1 LNH      0.060367
     35 H1A         0.2500    7.5030   -1.0070 hc        1 LNH      0.060367
     36 H1B        -1.5080    7.0970   -1.2310 hc        1 LNH      0.060367
     37 HN4         1.4440    5.6550    0.3310 hn        1 LNH      0.304500
     38 H6          3.4260    4.3260    0.0000 ha        1 LNH      0.115000
     39 H7          4.4020    2.0580    0.1030 ha        1 LNH      0.129000
     40 H10        -0.6150    2.6800   -0.1220 ha        1 LNH      0.181000
     41 H12         1.5140   -2.0850    0.1640 h4        1 LNH      0.248000
     42 H14         4.4010   -0.9850   -0.9260 h1        1 LNH      0.050200
     43 H14A        4.7210   -0.1950    0.6950 h1        1 LNH      0.050200
     44 H15         5.1770   -2.4870    1.0200 hc        1 LNH      0.046700
     45 H15A        3.5120   -2.3240    1.7270 hc        1 LNH      0.046700
     46 H20        -0.3210   -2.4740   -0.7020 ha        1 LNH      0.194000
     47 H26        -6.4770   -0.6350    0.8010 h4        1 LNH      0.045800
     48 HN30       -3.5570   -4.1310   -0.4620 hn        1 LNH      0.424800
     49 H31        -1.1820   -4.4400   -1.9980 h1        1 LNH      0.106700
     50 H32        -2.4230   -6.3110    0.2510 hc        1 LNH      0.090950
     51 H32A       -1.2100   -6.7940   -1.0320 hc        1 LNH      0.090950
     52 H33         0.4470   -4.9870   -0.1190 hc        1 LNH      0.090950
     53 H33A       -0.7980   -4.5440    1.1460 hc        1 LNH      0.090950
@<TRIPOS>BOND
     1    1    2 1   
     2    1   34 1   
     3    1   35 1   
     4    1   36 1   
     5    2    3 2   
     6    2    4 1   
     7    4    5 1   
     8    4   37 1   
     9    5    6 ar  
    10    5   10 ar  
    11    6    7 ar  
    12    6   38 1   
    13    7    8 ar  
    14    7   39 1   
    15    8    9 ar  
    16    8   13 1   
    17    9   10 ar  
    18    9   11 1   
    19   10   40 1   
    20   11   12 2   
    21   11   19 1   
    22   12   13 1   
    23   12   41 1   
    24   13   14 1   
    25   14   15 1   
    26   14   42 1   
    27   14   43 1   
    28   15   16 1   
    29   15   44 1   
    30   15   45 1   
    31   16   17 1   
    32   16   18 1   
    33   19   20 1   
    34   19   24 2   
    35   20   21 2   
    36   20   46 1   
    37   21   22 1   
    38   21   30 1   
    39   22   23 1   
    40   22   27 1   
    41   23   24 1   
    42   23   25 2   
    43   25   26 1   
    44   25   28 1   
    45   26   27 2   
    46   26   47 1   
    47   28   29 3   
    48   30   31 1   
    49   30   48 1   
    50   31   32 1   
    51   31   33 1   
    52   31   49 1   
    53   32   33 1   
    54   32   50 1   
    55   32   51 1   
    56   33   52 1   
    57   33   53 1   
@<TRIPOS>SUBSTRUCTURE
     1 LNH         1 TEMP              0 ****  ****    0 ROOT
