@<TRIPOS>MOLECULE
LNK
   17    16     1     0     0
SMALL
bcc


@<TRIPOS>ATOM
      1 C1         -0.3300   -0.0000    2.4980 c3        1 LNK     -0.092100
      2 C2          0.5160    0.0000    1.2510 c3        1 LNK     -0.080400
      3 C3         -0.3370   -0.0000    0.0000 c3        1 LNK     -0.079400
      4 C4          0.5160    0.0000   -1.2510 c3        1 LNK     -0.080400
      5 C5         -0.3300   -0.0000   -2.4980 c3        1 LNK     -0.092100
      6 H11         0.3180    0.0000    3.4070 hc        1 LNK      0.032367
      7 H12        -0.9840    0.9050    2.5300 hc        1 LNK      0.032367
      8 H13        -0.9840   -0.9050    2.5300 hc        1 LNK      0.032367
      9 H21         1.1830    0.9020    1.2480 hc        1 LNK      0.037700
     10 H22         1.1830   -0.9020    1.2480 hc        1 LNK      0.037700
     11 H31        -1.0030   -0.9020   -0.0000 hc        1 LNK      0.039700
     12 H32        -1.0030    0.9020   -0.0000 hc        1 LNK      0.039700
     13 H41         1.1830    0.9020   -1.2480 hc        1 LNK      0.037700
     14 H42         1.1830   -0.9020   -1.2480 hc        1 LNK      0.037700
     15 H51         0.3180    0.0000   -3.4070 hc        1 LNK      0.032367
     16 H52        -0.9840   -0.9050   -2.5300 hc        1 LNK      0.032367
     17 H23        -0.9840    0.9050   -2.5300 hc        1 LNK      0.032367
@<TRIPOS>BOND
     1    1    2 1   
     2    1    6 1   
     3    1    7 1   
     4    1    8 1   
     5    2    3 1   
     6    2    9 1   
     7    2   10 1   
     8    3    4 1   
     9    3   11 1   
    10    3   12 1   
    11    4    5 1   
    12    4   13 1   
    13    4   14 1   
    14    5   15 1   
    15    5   16 1   
    16    5   17 1   
@<TRIPOS>SUBSTRUCTURE
     1 LNK         1 TEMP              0 ****  ****    0 ROOT
