@<TRIPOS>MOLECULE
LNL
   49    48     1     0     0
SMALL
bcc


@<TRIPOS>ATOM
      1 O1          0.7800   -0.5000    1.0800 o         1 LNL     -0.852800
      2 C1          1.3110   -0.0160    0.0390 c         1 LNL      0.907600
      3 O2          0.9690    1.0880   -0.4770 o         1 LNL     -0.852800
      4 C2          2.4200   -0.8350   -0.6460 c3        1 LNL     -0.194400
      5 C3          3.5950    0.0360   -1.0170 c3        1 LNL     -0.065400
      6 C4          4.6100   -0.7130   -1.8560 c3        1 LNL     -0.078400
      7 C5          5.7930    0.1630   -2.2070 c3        1 LNL     -0.078400
      8 C6          6.8030   -0.5830   -3.0530 c3        1 LNL     -0.079400
      9 C7          7.9870    0.2940   -3.4020 c3        1 LNL     -0.077400
     10 C8          8.9940   -0.4560   -4.2490 c3        1 LNL     -0.053200
     11 C9         10.1670    0.3760   -4.6060 c2        1 LNL     -0.159200
     12 C10        11.2070   -0.0690   -5.3200 c2        1 LNL     -0.187200
     13 C11        11.3070   -1.4550   -5.8360 c3        1 LNL     -0.019000
     14 C12        12.5300   -1.7100   -6.6350 c2        1 LNL     -0.163200
     15 C13        12.8070   -2.8890   -7.2050 c2        1 LNL     -0.179200
     16 C14        11.9220   -4.0730   -7.1060 c3        1 LNL     -0.020000
     17 C15        12.4480   -5.2740   -7.7960 c2        1 LNL     -0.169200
     18 C16        11.8000   -6.4440   -7.8390 c2        1 LNL     -0.177200
     19 C17        10.4820   -6.6790   -7.2050 c3        1 LNL     -0.051200
     20 C18         9.9890   -8.0910   -7.4000 c3        1 LNL     -0.090100
     21 H21         2.7450   -1.6610    0.0340 hc        1 LNL      0.018700
     22 H22         1.9820   -1.2990   -1.5660 hc        1 LNL      0.018700
     23 H31         4.0880    0.4150   -0.0840 hc        1 LNL      0.044200
     24 H32         3.2160    0.9310   -1.5780 hc        1 LNL      0.044200
     25 H41         4.9660   -1.6180   -1.2970 hc        1 LNL      0.025700
     26 H42         4.1220   -1.0790   -2.7970 hc        1 LNL      0.025700
     27 H51         6.2850    0.5240   -1.2660 hc        1 LNL      0.037200
     28 H52         5.4350    1.0700   -2.7610 hc        1 LNL      0.037200
     29 H61         7.1590   -1.4910   -2.4990 hc        1 LNL      0.034200
     30 H62         6.3110   -0.9420   -3.9950 hc        1 LNL      0.034200
     31 H71         8.4800    0.6530   -2.4610 hc        1 LNL      0.040200
     32 H72         7.6310    1.2020   -3.9570 hc        1 LNL      0.040200
     33 H81         9.3410   -1.3720   -3.6960 hc        1 LNL      0.046200
     34 H82         8.4960   -0.8200   -5.1900 hc        1 LNL      0.046200
     35 H9         10.1450    1.4180   -4.2460 ha        1 LNL      0.123000
     36 H10        12.0490    0.6020   -5.5530 ha        1 LNL      0.117000
     37 H111       11.2740   -2.1760   -4.9680 hc        1 LNL      0.056700
     38 H112       10.3990   -1.6840   -6.4650 hc        1 LNL      0.056700
     39 H12        13.2270   -0.8640   -6.7450 ha        1 LNL      0.121000
     40 H13        13.7330   -3.0180   -7.7880 ha        1 LNL      0.119000
     41 H141       10.9080   -3.8150   -7.5300 hc        1 LNL      0.058200
     42 H142       11.7490   -4.3180   -6.0170 hc        1 LNL      0.058200
     43 H15        13.4280   -5.1650   -8.2900 ha        1 LNL      0.119000
     44 H16        12.2410   -7.3050   -8.3670 ha        1 LNL      0.119000
     45 H171        9.7310   -5.9570   -7.6300 hc        1 LNL      0.049200
     46 H172       10.5540   -6.4550   -6.1040 hc        1 LNL      0.049200
     47 H181        9.8780   -8.3240   -8.4860 hc        1 LNL      0.033367
     48 H182       10.7040   -8.8240   -6.9550 hc        1 LNL      0.033367
     49 H183        8.9950   -8.2230   -6.9070 hc        1 LNL      0.033367
@<TRIPOS>BOND
     1    1    2 1   
     2    2    3 1   
     3    2    4 1   
     4    4    5 1   
     5    4   21 1   
     6    4   22 1   
     7    5    6 1   
     8    5   23 1   
     9    5   24 1   
    10    6    7 1   
    11    6   25 1   
    12    6   26 1   
    13    7    8 1   
    14    7   27 1   
    15    7   28 1   
    16    8    9 1   
    17    8   29 1   
    18    8   30 1   
    19    9   10 1   
    20    9   31 1   
    21    9   32 1   
    22   10   11 1   
    23   10   33 1   
    24   10   34 1   
    25   11   12 2   
    26   11   35 1   
    27   12   13 1   
    28   12   36 1   
    29   13   14 1   
    30   13   37 1   
    31   13   38 1   
    32   14   15 2   
    33   14   39 1   
    34   15   16 1   
    35   15   40 1   
    36   16   17 1   
    37   16   41 1   
    38   16   42 1   
    39   17   18 2   
    40   17   43 1   
    41   18   19 1   
    42   18   44 1   
    43   19   20 1   
    44   19   45 1   
    45   19   46 1   
    46   20   47 1   
    47   20   48 1   
    48   20   49 1   
@<TRIPOS>SUBSTRUCTURE
     1 LNL         1 TEMP              0 ****  ****    0 ROOT
