@<TRIPOS>MOLECULE
LNL
   49    45     1     0     0
SMALL
bcc


@<TRIPOS>ATOM
      1 O1         -0.6090    3.3570    8.7320 o         1 LNL     -0.588000
      2 C1         -0.7270    2.1200    8.9310 c2        1 LNL      0.327000
      3 O2         -1.2790    1.7010    9.9820 o         1 LNL     -0.588000
      4 C2         -0.2000    1.1360    7.9090 c3        1 LNL     -0.223000
      5 C3         -1.2600    0.8840    6.8590 c3        1 LNL     -0.144000
      6 C4         -0.6730    0.0490    5.7420 c3        1 LNL     -0.157000
      7 C5         -1.7040   -0.1250    4.6480 c3        1 LNL     -0.157000
      8 C6         -1.0230   -0.6060    3.3850 c3        1 LNL     -0.158000
      9 C7         -2.0640   -0.8680    2.3200 c3        1 LNL     -0.156000
     10 C8         -1.4190   -0.7880    0.9540 c3        1 LNL     -0.136000
     11 C9         -2.3950   -1.2760   -0.0950 c2        1 LNL     -0.154000
     12 C10        -2.0430   -1.2750   -1.3950 c1        1 LNL     -0.184000
     13 C11        -0.6710   -0.7880   -1.8070 c2        1 LNL     -0.104000
     14 C12        -0.5600   -0.8100   -3.3160 c2        1 LNL     -0.155500
     15 C13         0.4880   -0.2200   -3.9230 c1        1 LNL     -0.172000
     16 C14         0.5990   -0.2420   -5.4320 c2        1 LNL     -0.104000
     17 C15         1.8880    0.4280   -5.8530 c2        1 LNL     -0.155500
     18 C16         2.3820    0.2220   -7.0900 c1        1 LNL     -0.172000
     19 C17         3.6710    0.8920   -7.5100 c2        1 LNL     -0.130000
     20 C18         4.2470    0.1710   -8.7100 c3        1 LNL     -0.207000
     21 H21         0.5990    1.5050    7.4840 hc        1 LNL      0.058000
     22 H22         0.0250    0.2940    8.3540 hc        1 LNL      0.058000
     23 H31        -2.0120    0.4060    7.2630 hc        1 LNL      0.083500
     24 H32        -1.5720    1.7380    6.4990 hc        1 LNL      0.083500
     25 H41        -0.4160   -0.8280    6.0900 hc        1 LNL      0.065000
     26 H42         0.1150    0.5000    5.3780 hc        1 LNL      0.065000
     27 H51        -2.1430    0.7320    4.4750 hc        1 LNL      0.076000
     28 H52        -2.3710   -0.7820    4.9300 hc        1 LNL      0.076000
     29 H61        -0.3990    0.0780    3.0700 hc        1 LNL      0.073500
     30 H62        -0.5340   -1.4320    3.5730 hc        1 LNL      0.073500
     31 H71        -2.7740   -0.1980    2.3850 hc        1 LNL      0.079500
     32 H72        -2.4450   -1.7600    2.4490 hc        1 LNL      0.079500
     33 H81        -1.1720    0.1390    0.7630 hc        1 LNL      0.086000
     34 H82        -0.6170   -1.3490    0.9380 hc        1 LNL      0.086000
     35 H9         -3.2800   -1.5900    0.1710 ha        1 LNL      0.123000
     36 H10        -2.6730   -1.5900   -2.0720 ha        1 LNL      0.118000
     37 H111        0.0120   -1.3720   -1.4210 ha        1 LNL      0.092000
     38 H112       -0.5390    0.1260   -1.4840 ha        1 LNL      0.092000
     39 H12        -1.2460   -1.2560   -3.8490 ha        1 LNL      0.120000
     40 H13         1.1780    0.2190   -3.3900 ha        1 LNL      0.120500
     41 H141       -0.1600    0.2360   -5.8220 ha        1 LNL      0.092000
     42 H142        0.5960   -1.1690   -5.7450 ha        1 LNL      0.092000
     43 H15         2.3590    1.0140   -5.2310 ha        1 LNL      0.120000
     44 H16         1.9060   -0.3560   -7.7150 ha        1 LNL      0.120500
     45 H171        4.3120    0.8600   -6.7720 ha        1 LNL      0.082500
     46 H172        3.4920    1.8250   -7.7460 ha        1 LNL      0.082500
     47 H181        5.1230    0.5510   -8.9300 hc        1 LNL      0.072667
     48 H182        4.3460   -0.7810   -8.5010 hc        1 LNL      0.072667
     49 H183        3.6430    0.2770   -9.4750 hc        1 LNL      0.072667
@<TRIPOS>BOND
     1    1    2 1   
     2    2    3 1   
     3    2    4 1   
     4    4    5 1   
     5    4   21 1   
     6    4   22 1   
     7    5    6 1   
     8    5   23 1   
     9    5   24 1   
    10    6    7 1   
    11    6   25 1   
    12    6   26 1   
    13    7    8 1   
    14    7   27 1   
    15    7   28 1   
    16    8    9 1   
    17    8   29 1   
    18    8   30 1   
    19    9   10 1   
    20    9   31 1   
    21    9   32 1   
    22   10   11 1   
    23   10   33 1   
    24   10   34 1   
    25   11   12 1   
    26   11   35 1   
    27   12   36 1   
    28   13   14 1   
    29   13   37 1   
    30   13   38 1   
    31   14   15 1   
    32   14   39 1   
    33   15   40 1   
    34   16   17 1   
    35   16   41 1   
    36   16   42 1   
    37   17   18 1   
    38   17   43 1   
    39   18   44 1   
    40   19   20 1   
    41   19   45 1   
    42   19   46 1   
    43   20   47 1   
    44   20   48 1   
    45   20   49 1   
@<TRIPOS>SUBSTRUCTURE
     1 LNL         1 TEMP              0 ****  ****    0 ROOT
