@<TRIPOS>MOLECULE
LNL
   49    48     1     0     0
SMALL
bcc


@<TRIPOS>ATOM
      1 O1          0.2070   -0.0820    0.0680 o         1 LNL     -0.852800
      2 C1          1.4490   -0.1440    0.3000 c         1 LNL      0.907600
      3 O2          1.9870    0.2800    1.3640 o         1 LNL     -0.852800
      4 C2          2.3450   -0.7950   -0.7680 c3        1 LNL     -0.194400
      5 C3          3.5860    0.0270   -1.0180 c3        1 LNL     -0.065400
      6 C4          4.5650   -0.6900   -1.9240 c3        1 LNL     -0.078400
      7 C5          5.7970    0.1510   -2.1850 c3        1 LNL     -0.078400
      8 C6          6.7810   -0.5700   -3.0810 c3        1 LNL     -0.079400
      9 C7          8.0110    0.2720   -3.3420 c3        1 LNL     -0.077400
     10 C8          8.9940   -0.4550   -4.2370 c3        1 LNL     -0.053200
     11 C9         10.2100    0.3450   -4.5110 c2        1 LNL     -0.159200
     12 C10        11.2460   -0.0960   -5.2330 c2        1 LNL     -0.187200
     13 C11        11.2980   -1.4470   -5.8410 c3        1 LNL     -0.019000
     14 C12        12.5070   -1.6880   -6.6630 c2        1 LNL     -0.163200
     15 C13        12.7820   -2.8590   -7.2500 c2        1 LNL     -0.179200
     16 C14        11.9100   -4.0530   -7.1390 c3        1 LNL     -0.020000
     17 C15        12.3850   -5.2170   -7.9240 c2        1 LNL     -0.169200
     18 C16        11.7520   -6.3950   -7.9530 c2        1 LNL     -0.177200
     19 C17        10.5040   -6.6790   -7.2060 c3        1 LNL     -0.051200
     20 C18        10.0050   -8.0850   -7.4240 c3        1 LNL     -0.090100
     21 H21         2.6300   -1.8140   -0.4010 hc        1 LNL      0.018700
     22 H22         1.7630   -0.9210   -1.7140 hc        1 LNL      0.018700
     23 H31         4.0690    0.2580   -0.0320 hc        1 LNL      0.044200
     24 H32         3.2970    1.0070   -1.4810 hc        1 LNL      0.044200
     25 H41         4.8680   -1.6620   -1.4540 hc        1 LNL      0.025700
     26 H42         4.0660   -0.9360   -2.8980 hc        1 LNL      0.025700
     27 H51         6.2900    0.4030   -1.2090 hc        1 LNL      0.037200
     28 H52         5.4950    1.1200   -2.6620 hc        1 LNL      0.037200
     29 H61         7.0830   -1.5390   -2.6030 hc        1 LNL      0.034200
     30 H62         6.2850   -0.8240   -4.0550 hc        1 LNL      0.034200
     31 H71         8.5060    0.5260   -2.3680 hc        1 LNL      0.040200
     32 H72         7.7090    1.2400   -3.8220 hc        1 LNL      0.040200
     33 H81         9.2870   -1.4290   -3.7580 hc        1 LNL      0.046200
     34 H82         8.4920   -0.7140   -5.2110 hc        1 LNL      0.046200
     35 H9         10.2270    1.3600   -4.0790 ha        1 LNL      0.123000
     36 H10        12.1220    0.5500   -5.4010 ha        1 LNL      0.117000
     37 H111       11.2440   -2.2230   -5.0230 hc        1 LNL      0.057200
     38 H112       10.3800   -1.6050   -6.4790 hc        1 LNL      0.057200
     39 H12        13.1960   -0.8360   -6.7810 ha        1 LNL      0.121000
     40 H13        13.6970   -2.9760   -7.8520 ha        1 LNL      0.119000
     41 H141       10.8650   -3.7830   -7.4720 hc        1 LNL      0.058700
     42 H142       11.8230   -4.3480   -6.0530 hc        1 LNL      0.058700
     43 H15        13.3100   -5.0710   -8.5050 ha        1 LNL      0.119000
     44 H16        12.1510   -7.2260   -8.5560 ha        1 LNL      0.119000
     45 H171        9.7100   -5.9440   -7.5170 hc        1 LNL      0.049200
     46 H172       10.6830   -6.5090   -6.1070 hc        1 LNL      0.049200
     47 H181        9.7900   -8.2630   -8.5050 hc        1 LNL      0.033033
     48 H182       10.7660   -8.8300   -7.0900 hc        1 LNL      0.033033
     49 H183        9.0660   -8.2540   -6.8440 hc        1 LNL      0.033033
@<TRIPOS>BOND
     1    1    2 1   
     2    2    3 1   
     3    2    4 1   
     4    4    5 1   
     5    4   21 1   
     6    4   22 1   
     7    5    6 1   
     8    5   23 1   
     9    5   24 1   
    10    6    7 1   
    11    6   25 1   
    12    6   26 1   
    13    7    8 1   
    14    7   27 1   
    15    7   28 1   
    16    8    9 1   
    17    8   29 1   
    18    8   30 1   
    19    9   10 1   
    20    9   31 1   
    21    9   32 1   
    22   10   11 1   
    23   10   33 1   
    24   10   34 1   
    25   11   12 2   
    26   11   35 1   
    27   12   13 1   
    28   12   36 1   
    29   13   14 1   
    30   13   37 1   
    31   13   38 1   
    32   14   15 2   
    33   14   39 1   
    34   15   16 1   
    35   15   40 1   
    36   16   17 1   
    37   16   41 1   
    38   16   42 1   
    39   17   18 2   
    40   17   43 1   
    41   18   19 1   
    42   18   44 1   
    43   19   20 1   
    44   19   45 1   
    45   19   46 1   
    46   20   47 1   
    47   20   48 1   
    48   20   49 1   
@<TRIPOS>SUBSTRUCTURE
     1 LNL         1 TEMP              0 ****  ****    0 ROOT
