@<TRIPOS>MOLECULE
LNL
   49    48     1     0     0
SMALL
bcc


@<TRIPOS>ATOM
      1 O1          2.0570   -0.6980   -8.4220 o         1 LNL     -0.852800
      2 C1          1.3450    0.0310   -7.6730 c         1 LNL      0.907600
      3 O2          0.4980    0.8660   -8.1030 o         1 LNL     -0.852800
      4 C2          1.5450   -0.0970   -6.1520 c3        1 LNL     -0.194400
      5 C3          0.2220   -0.1690   -5.4290 c3        1 LNL     -0.065400
      6 C4          0.3960   -0.1060   -3.9260 c3        1 LNL     -0.078400
      7 C5         -0.9340   -0.1970   -3.2090 c3        1 LNL     -0.078400
      8 C6         -0.7610   -0.1250   -1.7070 c3        1 LNL     -0.079400
      9 C7         -2.0920   -0.2180   -0.9920 c3        1 LNL     -0.077400
     10 C8         -1.9140   -0.1450    0.5100 c3        1 LNL     -0.053200
     11 C9         -3.2000   -0.2350    1.2390 c2        1 LNL     -0.159200
     12 C10        -3.3040   -0.2300    2.5730 c2        1 LNL     -0.187200
     13 C11        -2.1350   -0.1350    3.4800 c3        1 LNL     -0.019000
     14 C12        -2.4930   -0.1010    4.9180 c2        1 LNL     -0.163200
     15 C13        -1.5920    0.0040    5.9010 c2        1 LNL     -0.179200
     16 C14        -0.1320    0.1000    5.6650 c3        1 LNL     -0.020000
     17 C15         0.6730    0.1750    6.9080 c2        1 LNL     -0.169200
     18 C16         2.0070    0.2790    6.9180 c2        1 LNL     -0.177200
     19 C17         2.8390    0.3320    5.6930 c3        1 LNL     -0.051200
     20 C18         4.3110    0.4400    5.9970 c3        1 LNL     -0.090100
     21 H21         2.1210    0.7990   -5.8070 hc        1 LNL      0.018700
     22 H22         2.1590   -1.0060   -5.9330 hc        1 LNL      0.018700
     23 H31        -0.3030   -1.1200   -5.7050 hc        1 LNL      0.044200
     24 H32        -0.4250    0.6790   -5.7790 hc        1 LNL      0.044200
     25 H41         0.9060    0.8530   -3.6470 hc        1 LNL      0.025700
     26 H42         1.0620   -0.9430   -3.5880 hc        1 LNL      0.025700
     27 H51        -1.4420   -1.1590   -3.4830 hc        1 LNL      0.037200
     28 H52        -1.6010    0.6370   -3.5520 hc        1 LNL      0.037200
     29 H61        -0.2540    0.8380   -1.4340 hc        1 LNL      0.034200
     30 H62        -0.0920   -0.9590   -1.3660 hc        1 LNL      0.034200
     31 H71        -2.5990   -1.1810   -1.2650 hc        1 LNL      0.040200
     32 H72        -2.7610    0.6150   -1.3330 hc        1 LNL      0.040200
     33 H81        -1.4010    0.8190    0.7800 hc        1 LNL      0.046200
     34 H82        -1.2340   -0.9750    0.8480 hc        1 LNL      0.046200
     35 H9         -4.1050   -0.3090    0.6130 ha        1 LNL      0.123000
     36 H10        -4.2920   -0.2990    3.0540 ha        1 LNL      0.117000
     37 H111       -1.5390    0.7880    3.2230 hc        1 LNL      0.056700
     38 H112       -1.4470   -1.0100    3.2900 hc        1 LNL      0.056700
     39 H12        -3.5670   -0.1680    5.1560 ha        1 LNL      0.121000
     40 H13        -1.9190    0.0240    6.9530 ha        1 LNL      0.119000
     41 H141        0.0820    1.0070    5.0290 hc        1 LNL      0.058200
     42 H142        0.2060   -0.7900    5.0590 hc        1 LNL      0.058200
     43 H15         0.1130    0.1410    7.8560 ha        1 LNL      0.119000
     44 H16         2.5530    0.3310    7.8730 ha        1 LNL      0.119000
     45 H171        2.5190    1.2100    5.0650 hc        1 LNL      0.049200
     46 H172        2.6480   -0.5890    5.0750 hc        1 LNL      0.049200
     47 H181        4.8990    0.4760    5.0480 hc        1 LNL      0.033367
     48 H182        4.5270    1.3660    6.5820 hc        1 LNL      0.033367
     49 H183        4.6570   -0.4400    6.5930 hc        1 LNL      0.033367
@<TRIPOS>BOND
     1    1    2 1   
     2    2    3 1   
     3    2    4 1   
     4    4    5 1   
     5    4   21 1   
     6    4   22 1   
     7    5    6 1   
     8    5   23 1   
     9    5   24 1   
    10    6    7 1   
    11    6   25 1   
    12    6   26 1   
    13    7    8 1   
    14    7   27 1   
    15    7   28 1   
    16    8    9 1   
    17    8   29 1   
    18    8   30 1   
    19    9   10 1   
    20    9   31 1   
    21    9   32 1   
    22   10   11 1   
    23   10   33 1   
    24   10   34 1   
    25   11   12 2   
    26   11   35 1   
    27   12   13 1   
    28   12   36 1   
    29   13   14 1   
    30   13   37 1   
    31   13   38 1   
    32   14   15 2   
    33   14   39 1   
    34   15   16 1   
    35   15   40 1   
    36   16   17 1   
    37   16   41 1   
    38   16   42 1   
    39   17   18 2   
    40   17   43 1   
    41   18   19 1   
    42   18   44 1   
    43   19   20 1   
    44   19   45 1   
    45   19   46 1   
    46   20   47 1   
    47   20   48 1   
    48   20   49 1   
@<TRIPOS>SUBSTRUCTURE
     1 LNL         1 TEMP              0 ****  ****    0 ROOT
