@<TRIPOS>MOLECULE
LNM
   26    25     1     0     0
SMALL
bcc


@<TRIPOS>ATOM
      1 N13         0.1880   -2.0710    0.5310 n3        1 LNM     -0.883800
      2 C14        -0.0730   -0.6500    0.4530 c3        1 LNM      0.106500
      3 C15        -1.5190   -0.3250   -0.0080 c         1 LNM      0.609100
      4 N16        -2.0240    0.9170    0.3050 n         1 LNM     -0.570900
      5 C17        -3.3240    1.3530   -0.0920 c3        1 LNM      0.077300
      6 C22         0.8880    0.0900   -0.4890 c3        1 LNM     -0.070400
      7 O23        -2.2040   -1.1730   -0.6160 o         1 LNM     -0.621100
      8 C27         2.3300    0.0670   -0.0060 c3        1 LNM     -0.069700
      9 C28         3.2540    0.4560   -1.1440 c3        1 LNM     -0.091600
     10 C29         2.5370    1.0000    1.1690 c3        1 LNM     -0.091600
     11 HN13       -0.5290   -2.5210    1.0670 hn        1 LNM      0.360300
     12 H14         0.0610   -0.2440    1.5010 h1        1 LNM      0.072700
     13 H17        -3.2480    2.1830   -0.8460 h1        1 LNM      0.044700
     14 H17A       -3.8950    0.5000   -0.5490 h1        1 LNM      0.044700
     15 H22         0.8310   -0.3700   -1.5110 hc        1 LNM      0.047700
     16 H22A        0.5530    1.1560   -0.5830 hc        1 LNM      0.047700
     17 H27         2.5930   -0.9790    0.3200 hc        1 LNM      0.072700
     18 H28         3.0060    1.4780   -1.5200 hc        1 LNM      0.033533
     19 H28A        4.3150    0.4550   -0.7960 hc        1 LNM      0.033533
     20 H28B        3.1580   -0.2660   -1.9900 hc        1 LNM      0.033533
     21 H29         1.9050    0.6900    2.0360 hc        1 LNM      0.033533
     22 H29A        3.6060    0.9810    1.4910 hc        1 LNM      0.033533
     23 H29B        2.2720    2.0490    0.8930 hc        1 LNM      0.033533
     24 H25        -1.4320    1.5790    0.7440 hn        1 LNM      0.309500
     25 H26        -3.8870    1.7330    0.8020 h1        1 LNM      0.044700
     26 H2          0.1990   -2.4760   -0.3870 hn        1 LNM      0.360300
@<TRIPOS>BOND
     1    1    2 1   
     2    1   11 1   
     3    1   26 1   
     4    2    3 1   
     5    2    6 1   
     6    2   12 1   
     7    3    4 1   
     8    3    7 2   
     9    4    5 1   
    10    4   24 1   
    11    5   13 1   
    12    5   14 1   
    13    5   25 1   
    14    6    8 1   
    15    6   15 1   
    16    6   16 1   
    17    8    9 1   
    18    8   10 1   
    19    8   17 1   
    20    9   18 1   
    21    9   19 1   
    22    9   20 1   
    23   10   21 1   
    24   10   22 1   
    25   10   23 1   
@<TRIPOS>SUBSTRUCTURE
     1 LNM         1 TEMP              0 ****  ****    0 ROOT
