@<TRIPOS>MOLECULE
LNM
   26    25     1     0     0
SMALL
bcc


@<TRIPOS>ATOM
      1 N13        -1.9090   -0.2180    0.3570 n3        1 LNM     -0.883800
      2 C14        -0.5090   -0.3570    0.2990 c3        1 LNM      0.106500
      3 C15         0.0560   -0.5160    1.7320 c         1 LNM      0.609100
      4 N16         0.3000   -1.8150    2.2570 n         1 LNM     -0.570900
      5 C17         0.7320   -1.9680    3.6150 c3        1 LNM      0.077300
      6 C22         0.0930    0.8610   -0.3530 c3        1 LNM     -0.070400
      7 O23         0.2640    0.4720    2.4240 o         1 LNM     -0.621100
      8 C27        -0.0210    0.7280   -1.9010 c3        1 LNM     -0.069700
      9 C28        -0.7270    1.9800   -2.4780 c3        1 LNM     -0.091600
     10 C29         1.3580    0.6110   -2.4990 c3        1 LNM     -0.091600
     11 HN13       -2.3040   -0.9660    0.0050 hn        1 LNM      0.360300
     12 H14        -0.2720   -1.1890   -0.2550 h1        1 LNM      0.072700
     13 H17         0.8440   -2.9160    3.8170 h1        1 LNM      0.044700
     14 H17A        1.5840   -1.5060    3.7390 h1        1 LNM      0.044700
     15 H22        -0.3730    1.6410   -0.0650 hc        1 LNM      0.047700
     16 H22A        1.0140    0.9310   -0.1050 hc        1 LNM      0.047700
     17 H27        -0.5380   -0.0680   -2.1200 hc        1 LNM      0.072700
     18 H28        -0.6880    1.9530   -3.4540 hc        1 LNM      0.033533
     19 H28A       -1.6750    1.9880   -2.1870 hc        1 LNM      0.033533
     20 H28B       -0.2710    2.8010   -2.1490 hc        1 LNM      0.033533
     21 H29         1.8180   -0.1230   -2.0990 hc        1 LNM      0.033533
     22 H29A        1.8610    1.4440   -2.3330 hc        1 LNM      0.033533
     23 H29B        1.2840    0.4620   -3.4600 hc        1 LNM      0.033533
     24 H25         0.1900   -2.5310    1.7420 hn        1 LNM      0.309500
     25 H26         0.0640   -1.5840    4.2160 h1        1 LNM      0.044700
     26 H2         -2.1770   -0.1150    1.2550 hn        1 LNM      0.360300
@<TRIPOS>BOND
     1    1    2 1   
     2    1   11 1   
     3    1   26 1   
     4    2    3 1   
     5    2    6 1   
     6    2   12 1   
     7    3    4 1   
     8    3    7 2   
     9    4    5 1   
    10    4   24 1   
    11    5   13 1   
    12    5   14 1   
    13    5   25 1   
    14    6    8 1   
    15    6   15 1   
    16    6   16 1   
    17    8    9 1   
    18    8   10 1   
    19    8   17 1   
    20    9   18 1   
    21    9   19 1   
    22    9   20 1   
    23   10   21 1   
    24   10   22 1   
    25   10   23 1   
@<TRIPOS>SUBSTRUCTURE
     1 LNM         1 TEMP              0 ****  ****    0 ROOT
