@<TRIPOS>MOLECULE
LNO
   26    25     1     0     0
SMALL
bcc


@<TRIPOS>ATOM
      1 N          -0.1460    0.2010    0.1530 n4        1 LNO     -0.843600
      2 CA          1.3520    0.1420    0.2060 c3        1 LNO      0.075500
      3 C           1.8380    0.3820    1.6340 c         1 LNO      0.534100
      4 O           1.2000    0.8080    2.5780 o         1 LNO     -0.346100
      5 CB          2.0050    1.1670   -0.7380 c3        1 LNO     -0.118400
      6 CG          1.5250    1.0600   -2.1830 c3        1 LNO     -0.076700
      7 CD1         2.3450    2.0190   -3.0310 c3        1 LNO     -0.112100
      8 CD2         1.6420   -0.3470   -2.7270 c3        1 LNO     -0.112100
      9 N2          3.3070    0.0600    1.9310 n4        1 LNO     -0.441300
     10 ON2         3.6660   -0.9900    1.1580 oh        1 LNO     -0.374300
     11 HN1        -0.5700   -0.4870    0.7900 hn        1 LNO      0.492800
     12 HN2A       -0.4390   -0.0080   -0.8180 hn        1 LNO      0.492800
     13 HA          1.6630   -0.9080   -0.1210 hx        1 LNO      0.182700
     14 HB1         3.1130    0.9700   -0.7220 hc        1 LNO      0.096200
     15 HB2         1.8230    2.2110   -0.3670 hc        1 LNO      0.096200
     16 HG          0.4500    1.3950   -2.2440 hc        1 LNO      0.050700
     17 HD11        2.2830    3.0580   -2.6270 hc        1 LNO      0.064867
     18 HD12        1.9510    2.0240   -4.0780 hc        1 LNO      0.064867
     19 HD13        3.4160    1.7040   -3.0630 hc        1 LNO      0.064867
     20 HD21        1.3950   -0.3500   -3.8200 hc        1 LNO      0.064867
     21 HD22        0.9380   -1.0480   -2.2170 hc        1 LNO      0.064867
     22 HD23        2.6830   -0.7360   -2.6150 hc        1 LNO      0.064867
     23 HN2         3.4030   -0.1530    2.9500 hn        1 LNO      0.501800
     24 HO2         4.5400   -1.3450    1.4640 ho        1 LNO      0.516000
     25 HN3        -0.4850    1.1410    0.4030 hn        1 LNO      0.492800
     26 H22         3.8900    0.8940    1.7010 hn        1 LNO      0.501800
@<TRIPOS>BOND
     1    1    2 1   
     2    1   11 1   
     3    1   12 1   
     4    1   25 1   
     5    2    3 1   
     6    2    5 1   
     7    2   13 1   
     8    3    4 2   
     9    3    9 1   
    10    5    6 1   
    11    5   14 1   
    12    5   15 1   
    13    6    7 1   
    14    6    8 1   
    15    6   16 1   
    16    7   17 1   
    17    7   18 1   
    18    7   19 1   
    19    8   20 1   
    20    8   21 1   
    21    8   22 1   
    22    9   10 1   
    23    9   23 1   
    24    9   26 1   
    25   10   24 1   
@<TRIPOS>SUBSTRUCTURE
     1 LNO         1 TEMP              0 ****  ****    0 ROOT
