@<TRIPOS>MOLECULE
LNO
   26    25     1     0     0
SMALL
bcc


@<TRIPOS>ATOM
      1 N          -0.1450    0.2200    0.1620 nz        1 LNO     -0.843600
      2 CA          1.3530    0.1570    0.2120 c3        1 LNO      0.075500
      3 C           1.8430    0.4170    1.6350 c         1 LNO      0.534100
      4 O           1.2090    0.8600    2.5740 o         1 LNO     -0.346100
      5 CB          2.0070    1.1650   -0.7490 c3        1 LNO     -0.118400
      6 CG          1.5230    1.0370   -2.1910 c3        1 LNO     -0.076700
      7 CD1         2.3450    1.9810   -3.0550 c3        1 LNO     -0.112100
      8 CD2         1.6350   -0.3780   -2.7130 c3        1 LNO     -0.112100
      9 N2          3.3110    0.0940    1.9340 ny        1 LNO     -0.441300
     10 ON2         3.6640   -0.9700    1.1780 oh        1 LNO     -0.374300
     11 HN1        -0.5700   -0.4570    0.8100 hn        1 LNO      0.492800
     12 HN2A       -0.4410   -0.0030   -0.8060 hn        1 LNO      0.492800
     13 HA          1.6600   -0.8990   -0.0990 hx        1 LNO      0.182700
     14 HB1         3.1140    0.9640   -0.7320 hc        1 LNO      0.096200
     15 HB2         1.8300    2.2150   -0.3930 hc        1 LNO      0.096200
     16 HG          0.4490    1.3750   -2.2540 hc        1 LNO      0.050700
     17 HD11        2.2860    3.0260   -2.6670 hc        1 LNO      0.064867
     18 HD12        1.9480    1.9710   -4.1010 hc        1 LNO      0.064867
     19 HD13        3.4140    1.6620   -3.0850 hc        1 LNO      0.064867
     20 HD21        1.3850   -0.3970   -3.8060 hc        1 LNO      0.064867
     21 HD22        0.9290   -1.0690   -2.1910 hc        1 LNO      0.064867
     22 HD23        2.6750   -0.7680   -2.5980 hc        1 LNO      0.064867
     23 HN2         3.4090   -0.1020    2.9560 hn        1 LNO      0.501800
     24 HO2         4.5380   -1.3230    1.4870 ho        1 LNO      0.516000
     25 HN3        -0.4810    1.1650    0.3980 hn        1 LNO      0.492800
     26 H22         3.8970    0.9210    1.6890 hn        1 LNO      0.501800
@<TRIPOS>BOND
     1    1    2 1   
     2    1   11 1   
     3    1   12 1   
     4    1   25 1   
     5    2    3 1   
     6    2    5 1   
     7    2   13 1   
     8    3    4 2   
     9    3    9 1   
    10    5    6 1   
    11    5   14 1   
    12    5   15 1   
    13    6    7 1   
    14    6    8 1   
    15    6   16 1   
    16    7   17 1   
    17    7   18 1   
    18    7   19 1   
    19    8   20 1   
    20    8   21 1   
    21    8   22 1   
    22    9   10 1   
    23    9   23 1   
    24    9   26 1   
    25   10   24 1   
@<TRIPOS>SUBSTRUCTURE
     1 LNO         1 TEMP              0 ****  ****    0 ROOT
