@<TRIPOS>MOLECULE
LNO
   26    25     1     0     0
SMALL
bcc


@<TRIPOS>ATOM
      1 N          -0.1420    0.1630    0.1470 n4        1 LNO     -0.843600
      2 CA          1.3570    0.1220    0.2000 c3        1 LNO      0.075500
      3 C           1.8390    0.3450    1.6310 c         1 LNO      0.534100
      4 O           1.1970    0.7480    2.5820 o         1 LNO     -0.345100
      5 CB          1.9970    1.1700   -0.7270 c3        1 LNO     -0.118400
      6 CG          1.5180    1.0820   -2.1740 c3        1 LNO     -0.076700
      7 CD1         2.3270    2.0650   -3.0050 c3        1 LNO     -0.112100
      8 CD2         1.6530   -0.3140   -2.7410 c3        1 LNO     -0.112100
      9 N2          3.3110    0.0340    1.9230 n4        1 LNO     -0.441300
     10 ON2         3.6820   -1.0010    1.1360 oh        1 LNO     -0.374300
     11 HN1        -0.4320   -0.0330   -0.8280 hn        1 LNO      0.492800
     12 HN2A       -0.4930    1.0950    0.4130 hn        1 LNO      0.492800
     13 HA          1.6810   -0.9190   -0.1440 hx        1 LNO      0.182700
     14 HB1         1.8020    2.2060   -0.3380 hc        1 LNO      0.096200
     15 HB2         3.1070    0.9870   -0.7130 hc        1 LNO      0.096200
     16 HG          0.4400    1.4050   -2.2290 hc        1 LNO      0.050700
     17 HD11        2.2510    3.0970   -2.5840 hc        1 LNO      0.064867
     18 HD12        3.4020    1.7650   -3.0420 hc        1 LNO      0.064867
     19 HD13        1.9330    2.0830   -4.0520 hc        1 LNO      0.064867
     20 HD21        2.7000   -0.6920   -2.6350 hc        1 LNO      0.064867
     21 HD22        0.9580   -1.0320   -2.2430 hc        1 LNO      0.064867
     22 HD23        1.4070   -0.3020   -3.8340 hc        1 LNO      0.064867
     23 HN2         3.8860    0.8770    1.7060 hn        1 LNO      0.501800
     24 HO2         4.5600   -1.3510    1.4370 ho        1 LNO      0.516000
     25 HN3        -0.5580   -0.5400    0.7720 hn        1 LNO      0.492800
     26 H22         3.4100   -0.1920    2.9400 hn        1 LNO      0.501800
@<TRIPOS>BOND
     1    1    2 1   
     2    1   11 1   
     3    1   12 1   
     4    1   25 1   
     5    2    3 1   
     6    2    5 1   
     7    2   13 1   
     8    3    4 2   
     9    3    9 1   
    10    5    6 1   
    11    5   14 1   
    12    5   15 1   
    13    6    7 1   
    14    6    8 1   
    15    6   16 1   
    16    7   17 1   
    17    7   18 1   
    18    7   19 1   
    19    8   20 1   
    20    8   21 1   
    21    8   22 1   
    22    9   10 1   
    23    9   23 1   
    24    9   26 1   
    25   10   24 1   
@<TRIPOS>SUBSTRUCTURE
     1 LNO         1 TEMP              0 ****  ****    0 ROOT
