@<TRIPOS>MOLECULE
LNO
   24    23     1     0     0
SMALL
bcc


@<TRIPOS>ATOM
      1 N          -1.4250    0.8110   -0.0740 n3        1 LNO     -0.911800
      2 CA         -0.0310    0.4190   -0.0300 c3        1 LNO      0.092500
      3 C           0.4020   -0.1520   -1.3940 c         1 LNO      0.596100
      4 O           0.9780   -1.2450   -1.5040 o         1 LNO     -0.567100
      5 CB          0.3540   -0.5930    1.0570 c3        1 LNO     -0.109400
      6 CG          0.0250   -0.1260    2.4650 c3        1 LNO     -0.068700
      7 CD1         0.4050   -1.2090    3.4560 c3        1 LNO     -0.093100
      8 CD2         0.7290    1.1690    2.8120 c3        1 LNO     -0.093100
      9 N2          0.2710    0.7180   -2.5160 n         1 LNO     -0.350400
     10 ON2         0.3010    0.1080   -3.7040 oh        1 LNO     -0.438100
     11 HN1        -1.6450    1.3790    0.7220 hn        1 LNO      0.359800
     12 HN2A       -2.0210    0.0060   -0.0720 hn        1 LNO      0.359800
     13 HA          0.5820    1.3590    0.1350 h1        1 LNO      0.084700
     14 HB1         1.4560   -0.7890    0.9740 hc        1 LNO      0.064700
     15 HB2        -0.1660   -1.5670    0.8570 hc        1 LNO      0.064700
     16 HG         -1.0870    0.0410    2.5460 hc        1 LNO      0.036700
     17 HD11        0.1230   -0.9020    4.4910 hc        1 LNO      0.037033
     18 HD12       -0.1220   -2.1630    3.2120 hc        1 LNO      0.037033
     19 HD13        1.5050   -1.3950    3.4280 hc        1 LNO      0.037033
     20 HD21        1.8250    1.0850    2.6180 hc        1 LNO      0.037033
     21 HD22        0.3250    2.0140    2.2040 hc        1 LNO      0.037033
     22 HD23        0.5780    1.4130    3.8920 hc        1 LNO      0.037033
     23 HN2        -0.5660    1.2900   -2.4840 hn        1 LNO      0.317500
     24 HO2         1.2260   -0.1820   -3.8330 ho        1 LNO      0.431000
@<TRIPOS>BOND
     1    1    2 1   
     2    1   11 1   
     3    1   12 1   
     4    2    3 1   
     5    2    5 1   
     6    2   13 1   
     7    3    4 2   
     8    3    9 1   
     9    5    6 1   
    10    5   14 1   
    11    5   15 1   
    12    6    7 1   
    13    6    8 1   
    14    6   16 1   
    15    7   17 1   
    16    7   18 1   
    17    7   19 1   
    18    8   20 1   
    19    8   21 1   
    20    8   22 1   
    21    9   10 1   
    22    9   23 1   
    23   10   24 1   
@<TRIPOS>SUBSTRUCTURE
     1 LNO         1 TEMP              0 ****  ****    0 ROOT
