@<TRIPOS>MOLECULE
LNP
   88    92     1     0     0
SMALL
bcc


@<TRIPOS>ATOM
      1 CAA        -1.0380    0.9670   -1.6330 c3        1 LNP     -0.074400
      2 CAB        -1.7610    0.9120   -0.2880 c3        1 LNP     -0.016500
      3 CAC        -1.2010   -0.2080    0.5340 c2        1 LNP     -0.091400
      4 CAD         0.1990   -0.6200    0.1970 c3        1 LNP      0.028400
      5 CAE         1.0440    0.6300   -0.2180 c3        1 LNP     -0.036000
      6 CAF         0.4550    1.2380   -1.4830 c3        1 LNP     -0.064400
      7 CAG        -3.3060    0.8900   -0.4190 c3        1 LNP     -0.026000
      8 CAH        -3.9500    0.6480    0.9660 c3        1 LNP     -0.039700
      9 CAI        -3.3540   -0.5440    1.7140 c3        1 LNP     -0.043200
     10 CAJ        -1.9240   -0.8150    1.4800 c2        1 LNP     -0.171200
     11 CAK        -3.7470   -0.2020   -1.3890 c3        1 LNP     -0.065400
     12 CAL        -5.2480   -0.3570   -1.4750 c3        1 LNP     -0.109400
     13 CAM        -5.8870   -0.5760   -0.1090 c3        1 LNP      0.149100
     14 CAN        -5.4900    0.4910    0.9300 c3        1 LNP     -0.035000
     15 CAO         1.0660   -1.2220    1.3170 c3        1 LNP     -0.069400
     16 CAP         2.5070   -0.9760    0.8620 c3        1 LNP     -0.076400
     17 CAQ         2.4590    0.0060   -0.3280 c3        1 LNP     -0.055700
     18 CAR         0.1390   -1.6350   -0.9210 c2        1 LNP     -0.082200
     19 CAS         1.0690    1.6700    0.9010 c3        1 LNP     -0.086100
     20 CAT        -3.7100    2.2720   -0.9440 c3        1 LNP     -0.095100
     21 CAV         3.6370    0.9750   -0.3300 c3        1 LNP     -0.056700
     22 CAW        -6.0010    0.0330    2.2990 c3        1 LNP     -0.085100
     23 CAX        -6.1980    1.8080    0.6340 c3        1 LNP     -0.085100
     24 CAY         3.5410    1.9550   -1.4840 c3        1 LNP     -0.091100
     25 CAZ         4.9520    0.2040   -0.4210 c3        1 LNP     -0.079400
     26 CBA         6.1250    1.0170    0.0860 c3        1 LNP     -0.079400
     27 CBB         7.4140    0.2280   -0.0140 c3        1 LNP     -0.076400
     28 CBC         8.6200    1.0260    0.4630 c3        1 LNP     -0.067700
     29 CBD         8.6510    1.1310    1.9730 c3        1 LNP     -0.089600
     30 CBE         9.8990    0.3880   -0.0420 c3        1 LNP     -0.089600
     31 CBF        -0.3320   -2.8560   -0.7970 cu        1 LNP     -0.199400
     32 CBG        -0.6120   -4.1440   -1.4400 cx        1 LNP     -0.090700
     33 CBH        -0.9350   -3.9130    0.0200 cx        1 LNP     -0.090700
     34 OBH        -7.3090   -0.5460   -0.2150 oh        1 LNP     -0.601800
     35 HAA        -1.1940   -0.0060   -2.1700 hc        1 LNP      0.044200
     36 HAAA       -1.4760    1.7650   -2.2860 hc        1 LNP      0.044200
     37 HAB        -1.5310    1.8750    0.2600 hc        1 LNP      0.057700
     38 HAF         0.9910    0.8370   -2.3840 hc        1 LNP      0.040700
     39 HAFA        0.6160    2.3490   -1.4780 hc        1 LNP      0.040700
     40 HAH        -3.7310    1.5660    1.5850 hc        1 LNP      0.048700
     41 HAI        -3.5150   -0.3840    2.8160 hc        1 LNP      0.048200
     42 HAIA       -3.9060   -1.4860    1.4320 hc        1 LNP      0.048200
     43 HAJ        -1.4870   -1.6110    2.1060 ha        1 LNP      0.124000
     44 HAK        -3.3540    0.0330   -2.4140 hc        1 LNP      0.047700
     45 HAKA       -3.2880   -1.1720   -1.0590 hc        1 LNP      0.047700
     46 HAL        -5.7130    0.5420   -1.9580 hc        1 LNP      0.043700
     47 HALA       -5.4860   -1.2380   -2.1300 hc        1 LNP      0.043700
     48 HAM        -5.5840   -1.5940    0.2750 h1        1 LNP      0.030700
     49 HAO         0.8560   -0.7080    2.2860 hc        1 LNP      0.048200
     50 HAOA        0.8580   -2.3120    1.4520 hc        1 LNP      0.048200
     51 HAP         3.1110   -0.5500    1.7020 hc        1 LNP      0.042200
     52 HAPA        2.9870   -1.9350    0.5470 hc        1 LNP      0.042200
     53 HAQ         2.5100   -0.5830   -1.2860 hc        1 LNP      0.048700
     54 HAR         0.5390   -1.3040   -1.8950 ha        1 LNP      0.131000
     55 HAS         1.7040    1.3210    1.7520 hc        1 LNP      0.037367
     56 HASA        1.4940    2.6310    0.5220 hc        1 LNP      0.037367
     57 HASB        0.0510    1.8680    1.3080 hc        1 LNP      0.037367
     58 HAT        -2.8730    2.7740   -1.4860 hc        1 LNP      0.036367
     59 HATA       -4.5620    2.2010   -1.6600 hc        1 LNP      0.036367
     60 HATB       -4.0020    2.9460   -0.1020 hc        1 LNP      0.036367
     61 HAV         3.6320    1.5550    0.6350 hc        1 LNP      0.050700
     62 HAW        -5.6320    0.7230    3.0940 hc        1 LNP      0.037867
     63 HAWA       -7.1190    0.0420    2.2990 hc        1 LNP      0.037867
     64 HAWB       -5.6760   -1.0060    2.5380 hc        1 LNP      0.037867
     65 HAX        -6.1430    2.0700   -0.4480 hc        1 LNP      0.037867
     66 HAXA       -7.2830    1.7160    0.8910 hc        1 LNP      0.037867
     67 HAXB       -5.7560    2.6340    1.2400 hc        1 LNP      0.037867
     68 HAY         3.3840    1.4140   -2.4480 hc        1 LNP      0.034033
     69 HAYA        2.6890    2.6590   -1.3300 hc        1 LNP      0.034033
     70 HAYB        4.4800    2.5550   -1.5640 hc        1 LNP      0.034033
     71 HAZ         4.8850   -0.7410    0.1790 hc        1 LNP      0.041200
     72 HAZA        5.1330   -0.0960   -1.4870 hc        1 LNP      0.041200
     73 HBA         6.2200    1.9650   -0.5060 hc        1 LNP      0.039700
     74 HBAA        5.9430    1.3110    1.1530 hc        1 LNP      0.039700
     75 HBB         7.3290   -0.7140    0.5890 hc        1 LNP      0.040200
     76 HBBA        7.5750   -0.0750   -1.0830 hc        1 LNP      0.040200
     77 HBC         8.5500    2.0670    0.0350 hc        1 LNP      0.045700
     78 HBD         8.7190    0.1170    2.4360 hc        1 LNP      0.033200
     79 HBDA        9.5370    1.7270    2.3000 hc        1 LNP      0.033200
     80 HBDB        7.7290    1.6330    2.3520 hc        1 LNP      0.033200
     81 HBE         9.9140    0.3720   -1.1580 hc        1 LNP      0.033200
     82 HBEA       10.7860    0.9640    0.3170 hc        1 LNP      0.033200
     83 HBEB        9.9850   -0.6610    0.3290 hc        1 LNP      0.033200
     84 HBG        -1.4390   -4.2150   -2.1700 hc        1 LNP      0.072450
     85 HBGA        0.2300   -4.8100   -1.7070 hc        1 LNP      0.072450
     86 HBH        -0.3230   -4.4150    0.7930 hc        1 LNP      0.072450
     87 HBHA       -1.9920   -3.8170    0.3310 hc        1 LNP      0.072450
     88 HOBH       -7.5460   -1.1760   -0.9050 ho        1 LNP      0.396000
@<TRIPOS>BOND
     1    1    2 1   
     2    1    6 1   
     3    1   35 1   
     4    1   36 1   
     5    2    3 1   
     6    2    7 1   
     7    2   37 1   
     8    3    4 1   
     9    3   10 2   
    10    4    5 1   
    11    4   15 1   
    12    4   18 1   
    13    5    6 1   
    14    5   17 1   
    15    5   19 1   
    16    6   38 1   
    17    6   39 1   
    18    7    8 1   
    19    7   11 1   
    20    7   20 1   
    21    8    9 1   
    22    8   14 1   
    23    8   40 1   
    24    9   10 1   
    25    9   41 1   
    26    9   42 1   
    27   10   43 1   
    28   11   12 1   
    29   11   44 1   
    30   11   45 1   
    31   12   13 1   
    32   12   46 1   
    33   12   47 1   
    34   13   14 1   
    35   13   34 1   
    36   13   48 1   
    37   14   22 1   
    38   14   23 1   
    39   15   16 1   
    40   15   49 1   
    41   15   50 1   
    42   16   17 1   
    43   16   51 1   
    44   16   52 1   
    45   17   21 1   
    46   17   53 1   
    47   18   31 2   
    48   18   54 1   
    49   19   55 1   
    50   19   56 1   
    51   19   57 1   
    52   20   58 1   
    53   20   59 1   
    54   20   60 1   
    55   21   24 1   
    56   21   25 1   
    57   21   61 1   
    58   22   62 1   
    59   22   63 1   
    60   22   64 1   
    61   23   65 1   
    62   23   66 1   
    63   23   67 1   
    64   24   68 1   
    65   24   69 1   
    66   24   70 1   
    67   25   26 1   
    68   25   71 1   
    69   25   72 1   
    70   26   27 1   
    71   26   73 1   
    72   26   74 1   
    73   27   28 1   
    74   27   75 1   
    75   27   76 1   
    76   28   29 1   
    77   28   30 1   
    78   28   77 1   
    79   29   78 1   
    80   29   79 1   
    81   29   80 1   
    82   30   81 1   
    83   30   82 1   
    84   30   83 1   
    85   31   32 1   
    86   31   33 1   
    87   32   33 1   
    88   32   84 1   
    89   32   85 1   
    90   33   86 1   
    91   33   87 1   
    92   34   88 1   
@<TRIPOS>SUBSTRUCTURE
     1 LNP         1 TEMP              0 ****  ****    0 ROOT
