@<TRIPOS>MOLECULE
LNP
   88    92     1     0     0
SMALL
bcc


@<TRIPOS>ATOM
      1 CAA         0.0180   -0.1110    0.0630 c3        1 LNP     -0.074400
      2 CAB         1.5350   -0.0140   -0.0930 c3        1 LNP     -0.016500
      3 CAC         2.1910   -0.3100    1.2210 c2        1 LNP     -0.091400
      4 CAD         1.3910   -1.1490    2.1680 c3        1 LNP      0.028400
      5 CAE         0.5610   -2.2150    1.3770 c3        1 LNP     -0.036000
      6 CAF        -0.4390   -1.5050    0.4760 c3        1 LNP     -0.064400
      7 CAG         2.0040    1.3100   -0.7500 c3        1 LNP     -0.026000
      8 CAH         3.5470    1.4060   -0.7010 c3        1 LNP     -0.039700
      9 CAI         4.1280    1.1410    0.6870 c3        1 LNP     -0.043200
     10 CAJ         3.3970    0.1770    1.5300 c2        1 LNP     -0.171200
     11 CAK         1.3910    2.5100   -0.0370 c3        1 LNP     -0.065400
     12 CAL         1.8980    3.8370   -0.5530 c3        1 LNP     -0.109400
     13 CAM         3.4190    3.9280   -0.5230 c3        1 LNP      0.149100
     14 CAN         4.1150    2.7470   -1.2280 c3        1 LNP     -0.035000
     15 CAO         2.1510   -2.0330    3.1730 c3        1 LNP     -0.069400
     16 CAP         1.1610   -3.1420    3.5370 c3        1 LNP     -0.076400
     17 CAQ        -0.0150   -3.0630    2.5400 c3        1 LNP     -0.055700
     18 CAR         0.4890   -0.2360    2.9650 c2        1 LNP     -0.082200
     19 CAS         1.4750   -3.1100    0.5430 c3        1 LNP     -0.086100
     20 CAT         1.5360    1.2520   -2.2090 c3        1 LNP     -0.095100
     21 CAV        -0.5630   -4.4390    2.1780 c3        1 LNP     -0.056700
     22 CAW         5.6140    2.8330   -0.9280 c3        1 LNP     -0.085100
     23 CAX         3.9790    2.8770   -2.7400 c3        1 LNP     -0.085100
     24 CAY        -1.6860   -4.3350    1.1640 c3        1 LNP     -0.091100
     25 CAZ        -1.0680   -5.1510    3.4310 c3        1 LNP     -0.079400
     26 CBA        -1.1300   -6.6540    3.2480 c3        1 LNP     -0.079400
     27 CBB        -1.6320   -7.3320    4.5050 c3        1 LNP     -0.076400
     28 CBC        -1.7320   -8.8430    4.3470 c3        1 LNP     -0.067700
     29 CBD        -0.3660   -9.4950    4.3860 c3        1 LNP     -0.089600
     30 CBE        -2.6180   -9.4220    5.4310 c3        1 LNP     -0.089600
     31 CBF         0.9050    0.6230    3.8690 cu        1 LNP     -0.199400
     32 CBG         0.5500    1.6500    4.8540 cx        1 LNP     -0.090700
     33 CBH         1.9920    1.2530    4.6240 cx        1 LNP     -0.090700
     34 OBH         3.8590    5.1190   -1.1730 oh        1 LNP     -0.601800
     35 HAA        -0.4970    0.1590   -0.8950 hc        1 LNP      0.044200
     36 HAAA       -0.3170    0.6400    0.8270 hc        1 LNP      0.044200
     37 HAB         1.8540   -0.8250   -0.8160 hc        1 LNP      0.057700
     38 HAF        -0.6090   -2.1130   -0.4520 hc        1 LNP      0.040700
     39 HAFA       -1.4300   -1.4250    0.9960 hc        1 LNP      0.040700
     40 HAH         3.9400    0.5960   -1.3810 hc        1 LNP      0.048700
     41 HAI         5.1870    0.7790    0.5620 hc        1 LNP      0.048200
     42 HAIA        4.1740    2.1020    1.2730 hc        1 LNP      0.048200
     43 HAJ         3.8870   -0.0820    2.4830 ha        1 LNP      0.124000
     44 HAK         0.2760    2.4840   -0.1600 hc        1 LNP      0.047700
     45 HAKA        1.6170    2.4230    1.0590 hc        1 LNP      0.047700
     46 HAL         1.5400    4.0200   -1.6000 hc        1 LNP      0.043700
     47 HALA        1.4760    4.6610    0.0830 hc        1 LNP      0.043700
     48 HAM         3.7600    3.9670    0.5530 h1        1 LNP      0.030700
     49 HAO         3.0710   -2.4540    2.6970 hc        1 LNP      0.048200
     50 HAOA        2.4650   -1.4500    4.0730 hc        1 LNP      0.048200
     51 HAP         1.6600   -4.1410    3.4830 hc        1 LNP      0.042200
     52 HAPA        0.7860   -3.0030    4.5810 hc        1 LNP      0.042200
     53 HAQ        -0.8540   -2.4840    3.0150 hc        1 LNP      0.048700
     54 HAR        -0.5930   -0.3290    2.7630 ha        1 LNP      0.131000
     55 HAS         2.0510   -3.8080    1.1990 hc        1 LNP      0.037367
     56 HASA        0.8680   -3.7230   -0.1670 hc        1 LNP      0.037367
     57 HASB        2.2160   -2.5190   -0.0430 hc        1 LNP      0.037367
     58 HAT         2.3520    0.8780   -2.8730 hc        1 LNP      0.036367
     59 HATA        0.6680    0.5620   -2.3420 hc        1 LNP      0.036367
     60 HATB        1.2090    2.2550   -2.5700 hc        1 LNP      0.036367
     61 HAV         0.2680   -5.0560    1.7320 hc        1 LNP      0.050700
     62 HAW         5.8160    2.9200    0.1660 hc        1 LNP      0.037867
     63 HAWA        6.1360    1.9300   -1.3240 hc        1 LNP      0.037867
     64 HAWB        6.0380    3.7440   -1.4180 hc        1 LNP      0.037867
     65 HAX         4.6370    3.7050   -3.1060 hc        1 LNP      0.037867
     66 HAXA        4.2840    1.9290   -3.2430 hc        1 LNP      0.037867
     67 HAXB        2.9370    3.1370   -3.0380 hc        1 LNP      0.037867
     68 HAY        -2.1770   -5.3280    1.0240 hc        1 LNP      0.034033
     69 HAYA       -2.4580   -3.6040    1.5050 hc        1 LNP      0.034033
     70 HAYB       -1.2920   -3.9980    0.1750 hc        1 LNP      0.034033
     71 HAZ        -0.3950   -4.9240    4.2990 hc        1 LNP      0.041200
     72 HAZA       -2.0870   -4.7600    3.6940 hc        1 LNP      0.041200
     73 HBA        -1.8070   -6.9070    2.3890 hc        1 LNP      0.039700
     74 HBAA       -0.1100   -7.0420    2.9890 hc        1 LNP      0.039700
     75 HBB        -2.6450   -6.9220    4.7620 hc        1 LNP      0.040200
     76 HBBA       -0.9510   -7.0920    5.3620 hc        1 LNP      0.040200
     77 HBC        -2.2040   -9.0660    3.3470 hc        1 LNP      0.045700
     78 HBD        -0.4630  -10.6010    4.2590 hc        1 LNP      0.033200
     79 HBDA        0.1360   -9.2950    5.3630 hc        1 LNP      0.033200
     80 HBDB        0.2820   -9.1000    3.5680 hc        1 LNP      0.033200
     81 HBE        -2.2050   -9.1870    6.4410 hc        1 LNP      0.033200
     82 HBEA       -2.6840  -10.5320    5.3260 hc        1 LNP      0.033200
     83 HBEB       -3.6490   -8.9980    5.3630 hc        1 LNP      0.033200
     84 HBG         0.2010    2.6380    4.5030 hc        1 LNP      0.072450
     85 HBGA        0.0530    1.3490    5.7950 hc        1 LNP      0.072450
     86 HBH         2.5210    0.6690    5.4000 hc        1 LNP      0.072450
     87 HBHA        2.6710    1.9570    4.1060 hc        1 LNP      0.072450
     88 HOBH        3.3780    5.8480   -0.7640 ho        1 LNP      0.396000
@<TRIPOS>BOND
     1    1    2 1   
     2    1    6 1   
     3    1   35 1   
     4    1   36 1   
     5    2    3 1   
     6    2    7 1   
     7    2   37 1   
     8    3    4 1   
     9    3   10 2   
    10    4    5 1   
    11    4   15 1   
    12    4   18 1   
    13    5    6 1   
    14    5   17 1   
    15    5   19 1   
    16    6   38 1   
    17    6   39 1   
    18    7    8 1   
    19    7   11 1   
    20    7   20 1   
    21    8    9 1   
    22    8   14 1   
    23    8   40 1   
    24    9   10 1   
    25    9   41 1   
    26    9   42 1   
    27   10   43 1   
    28   11   12 1   
    29   11   44 1   
    30   11   45 1   
    31   12   13 1   
    32   12   46 1   
    33   12   47 1   
    34   13   14 1   
    35   13   34 1   
    36   13   48 1   
    37   14   22 1   
    38   14   23 1   
    39   15   16 1   
    40   15   49 1   
    41   15   50 1   
    42   16   17 1   
    43   16   51 1   
    44   16   52 1   
    45   17   21 1   
    46   17   53 1   
    47   18   31 2   
    48   18   54 1   
    49   19   55 1   
    50   19   56 1   
    51   19   57 1   
    52   20   58 1   
    53   20   59 1   
    54   20   60 1   
    55   21   24 1   
    56   21   25 1   
    57   21   61 1   
    58   22   62 1   
    59   22   63 1   
    60   22   64 1   
    61   23   65 1   
    62   23   66 1   
    63   23   67 1   
    64   24   68 1   
    65   24   69 1   
    66   24   70 1   
    67   25   26 1   
    68   25   71 1   
    69   25   72 1   
    70   26   27 1   
    71   26   73 1   
    72   26   74 1   
    73   27   28 1   
    74   27   75 1   
    75   27   76 1   
    76   28   29 1   
    77   28   30 1   
    78   28   77 1   
    79   29   78 1   
    80   29   79 1   
    81   29   80 1   
    82   30   81 1   
    83   30   82 1   
    84   30   83 1   
    85   31   32 1   
    86   31   33 1   
    87   32   33 1   
    88   32   84 1   
    89   32   85 1   
    90   33   86 1   
    91   33   87 1   
    92   34   88 1   
@<TRIPOS>SUBSTRUCTURE
     1 LNP         1 TEMP              0 ****  ****    0 ROOT
