@<TRIPOS>MOLECULE
LNP
   88    92     1     0     0
SMALL
bcc


@<TRIPOS>ATOM
      1 CAA         0.0230   -0.1150    0.0570 c3        1 LNP     -0.074400
      2 CAB         1.5400   -0.0180   -0.0950 c3        1 LNP     -0.016500
      3 CAC         2.1930   -0.3100    1.2230 c2        1 LNP     -0.091400
      4 CAD         1.3890   -1.1460    2.1710 c3        1 LNP      0.028400
      5 CAE         0.5630   -2.2150    1.3800 c3        1 LNP     -0.036000
      6 CAF        -0.4350   -1.5080    0.4740 c3        1 LNP     -0.064400
      7 CAG         2.0110    1.3030   -0.7540 c3        1 LNP     -0.026000
      8 CAH         3.5540    1.4000   -0.7010 c3        1 LNP     -0.039700
      9 CAI         4.1310    1.1390    0.6900 c3        1 LNP     -0.043200
     10 CAJ         3.3970    0.1780    1.5330 c2        1 LNP     -0.171200
     11 CAK         1.3960    2.5060   -0.0480 c3        1 LNP     -0.065400
     12 CAL         1.9050    3.8310   -0.5660 c3        1 LNP     -0.109400
     13 CAM         3.4250    3.9220   -0.5320 c3        1 LNP      0.149100
     14 CAN         4.1230    2.7390   -1.2300 c3        1 LNP     -0.035000
     15 CAO         2.1470   -2.0260    3.1810 c3        1 LNP     -0.069400
     16 CAP         1.1560   -3.1340    3.5460 c3        1 LNP     -0.076400
     17 CAQ        -0.0170   -3.0590    2.5440 c3        1 LNP     -0.055700
     18 CAR         0.4850   -0.2300    2.9610 c2        1 LNP     -0.082200
     19 CAS         1.4790   -3.1130    0.5520 c3        1 LNP     -0.086100
     20 CAT         1.5470    1.2400   -2.2140 c3        1 LNP     -0.095100
     21 CAV        -0.5640   -4.4370    2.1850 c3        1 LNP     -0.056700
     22 CAW         5.6210    2.8260   -0.9260 c3        1 LNP     -0.085100
     23 CAX         3.9920    2.8640   -2.7440 c3        1 LNP     -0.085100
     24 CAY        -1.6830   -4.3370    1.1680 c3        1 LNP     -0.091100
     25 CAZ        -1.0730   -5.1440    3.4390 c3        1 LNP     -0.079400
     26 CBA        -1.1340   -6.6470    3.2610 c3        1 LNP     -0.079400
     27 CBB        -1.6410   -7.3220    4.5180 c3        1 LNP     -0.076400
     28 CBC        -1.7400   -8.8330    4.3650 c3        1 LNP     -0.067700
     29 CBD        -0.3740   -9.4850    4.4120 c3        1 LNP     -0.089600
     30 CBE        -2.6300   -9.4080    5.4480 c3        1 LNP     -0.089600
     31 CBF         0.8980    0.6320    3.8640 cu        1 LNP     -0.199400
     32 CBG         0.5400    1.6620    4.8440 cx        1 LNP     -0.090700
     33 CBH         1.9830    1.2650    4.6190 cx        1 LNP     -0.090700
     34 OBH         3.8670    5.1110   -1.1840 oh        1 LNP     -0.601800
     35 HAA        -0.4890    0.1510   -0.9030 hc        1 LNP      0.044200
     36 HAAA       -0.3150    0.6380    0.8180 hc        1 LNP      0.044200
     37 HAB         1.8620   -0.8320   -0.8130 hc        1 LNP      0.057700
     38 HAF        -0.6020   -2.1200   -0.4530 hc        1 LNP      0.040700
     39 HAFA       -1.4280   -1.4270    0.9900 hc        1 LNP      0.040700
     40 HAH         3.9490    0.5880   -1.3780 hc        1 LNP      0.048700
     41 HAI         5.1900    0.7770    0.5690 hc        1 LNP      0.048200
     42 HAIA        4.1750    2.1030    1.2720 hc        1 LNP      0.048200
     43 HAJ         3.8850   -0.0780    2.4890 ha        1 LNP      0.124000
     44 HAK         1.6190    2.4220    1.0500 hc        1 LNP      0.047700
     45 HAKA        0.2810    2.4790   -0.1740 hc        1 LNP      0.047700
     46 HAL         1.5490    4.0110   -1.6140 hc        1 LNP      0.043700
     47 HALA        1.4800    4.6570    0.0660 hc        1 LNP      0.043700
     48 HAM         3.7620    3.9650    0.5450 h1        1 LNP      0.030700
     49 HAO         3.0680   -2.4490    2.7090 hc        1 LNP      0.048200
     50 HAOA        2.4570   -1.4400    4.0800 hc        1 LNP      0.048200
     51 HAP         1.6550   -4.1330    3.4960 hc        1 LNP      0.042200
     52 HAPA        0.7770   -2.9920    4.5880 hc        1 LNP      0.042200
     53 HAQ        -0.8580   -2.4780    3.0140 hc        1 LNP      0.048700
     54 HAR        -0.5960   -0.3250    2.7560 ha        1 LNP      0.131000
     55 HAS         2.0540   -3.8090    1.2120 hc        1 LNP      0.037367
     56 HASA        0.8750   -3.7280   -0.1580 hc        1 LNP      0.037367
     57 HASB        2.2220   -2.5230   -0.0330 hc        1 LNP      0.037367
     58 HAT         0.6800    0.5490   -2.3480 hc        1 LNP      0.036367
     59 HATA        2.3660    0.8640   -2.8750 hc        1 LNP      0.036367
     60 HATB        1.2210    2.2420   -2.5800 hc        1 LNP      0.036367
     61 HAV         0.2690   -5.0540    1.7440 hc        1 LNP      0.050700
     62 HAW         5.8200    2.9160    0.1670 hc        1 LNP      0.037867
     63 HAWA        6.1440    1.9220   -1.3180 hc        1 LNP      0.037867
     64 HAWB        6.0470    3.7350   -1.4190 hc        1 LNP      0.037867
     65 HAX         4.2990    1.9140   -3.2430 hc        1 LNP      0.037867
     66 HAXA        4.6510    3.6910   -3.1100 hc        1 LNP      0.037867
     67 HAXB        2.9510    3.1230   -3.0460 hc        1 LNP      0.037867
     68 HAY        -2.1740   -5.3300    1.0290 hc        1 LNP      0.034033
     69 HAYA       -2.4560   -3.6040    1.5040 hc        1 LNP      0.034033
     70 HAYB       -1.2870   -4.0030    0.1790 hc        1 LNP      0.034033
     71 HAZ        -2.0920   -4.7530    3.6970 hc        1 LNP      0.041200
     72 HAZA       -0.4020   -4.9140    4.3090 hc        1 LNP      0.041200
     73 HBA        -0.1120   -7.0360    3.0070 hc        1 LNP      0.039700
     74 HBAA       -1.8070   -6.9040    2.4010 hc        1 LNP      0.039700
     75 HBB        -0.9620   -7.0780    5.3770 hc        1 LNP      0.040200
     76 HBBA       -2.6550   -6.9100    4.7700 hc        1 LNP      0.040200
     77 HBC        -2.2080   -9.0590    3.3650 hc        1 LNP      0.045700
     78 HBD         0.1250   -9.2820    5.3900 hc        1 LNP      0.033200
     79 HBDA        0.2770   -9.0930    3.5940 hc        1 LNP      0.033200
     80 HBDB       -0.4700  -10.5910    4.2880 hc        1 LNP      0.033200
     81 HBE        -3.6600   -8.9840    5.3750 hc        1 LNP      0.033200
     82 HBEA       -2.6950  -10.5180    5.3460 hc        1 LNP      0.033200
     83 HBEB       -2.2200   -9.1690    6.4590 hc        1 LNP      0.033200
     84 HBG         0.1920    2.6500    4.4890 hc        1 LNP      0.072450
     85 HBGA        0.0400    1.3650    5.7840 hc        1 LNP      0.072450
     86 HBH         2.6630    1.9670    4.1010 hc        1 LNP      0.072450
     87 HBHA        2.5100    0.6840    5.3990 hc        1 LNP      0.072450
     88 HOBH        3.3850    5.8410   -0.7800 ho        1 LNP      0.396000
@<TRIPOS>BOND
     1    1    2 1   
     2    1    6 1   
     3    1   35 1   
     4    1   36 1   
     5    2    3 1   
     6    2    7 1   
     7    2   37 1   
     8    3    4 1   
     9    3   10 2   
    10    4    5 1   
    11    4   15 1   
    12    4   18 1   
    13    5    6 1   
    14    5   17 1   
    15    5   19 1   
    16    6   38 1   
    17    6   39 1   
    18    7    8 1   
    19    7   11 1   
    20    7   20 1   
    21    8    9 1   
    22    8   14 1   
    23    8   40 1   
    24    9   10 1   
    25    9   41 1   
    26    9   42 1   
    27   10   43 1   
    28   11   12 1   
    29   11   44 1   
    30   11   45 1   
    31   12   13 1   
    32   12   46 1   
    33   12   47 1   
    34   13   14 1   
    35   13   34 1   
    36   13   48 1   
    37   14   22 1   
    38   14   23 1   
    39   15   16 1   
    40   15   49 1   
    41   15   50 1   
    42   16   17 1   
    43   16   51 1   
    44   16   52 1   
    45   17   21 1   
    46   17   53 1   
    47   18   31 2   
    48   18   54 1   
    49   19   55 1   
    50   19   56 1   
    51   19   57 1   
    52   20   58 1   
    53   20   59 1   
    54   20   60 1   
    55   21   24 1   
    56   21   25 1   
    57   21   61 1   
    58   22   62 1   
    59   22   63 1   
    60   22   64 1   
    61   23   65 1   
    62   23   66 1   
    63   23   67 1   
    64   24   68 1   
    65   24   69 1   
    66   24   70 1   
    67   25   26 1   
    68   25   71 1   
    69   25   72 1   
    70   26   27 1   
    71   26   73 1   
    72   26   74 1   
    73   27   28 1   
    74   27   75 1   
    75   27   76 1   
    76   28   29 1   
    77   28   30 1   
    78   28   77 1   
    79   29   78 1   
    80   29   79 1   
    81   29   80 1   
    82   30   81 1   
    83   30   82 1   
    84   30   83 1   
    85   31   32 1   
    86   31   33 1   
    87   32   33 1   
    88   32   84 1   
    89   32   85 1   
    90   33   86 1   
    91   33   87 1   
    92   34   88 1   
@<TRIPOS>SUBSTRUCTURE
     1 LNP         1 TEMP              0 ****  ****    0 ROOT
