@<TRIPOS>MOLECULE
LNQ
   45    45     1     0     0
SMALL
bcc


@<TRIPOS>ATOM
      1 C1          2.4150   -1.1540   -9.6070 c3        1 LNQ     -0.093100
      2 C2          1.2370   -0.8470   -8.7210 c3        1 LNQ     -0.084400
      3 C3          1.6830   -0.1040   -7.4740 c3        1 LNQ      0.131400
      4 O4          0.5100    0.1390   -6.7010 os        1 LNQ     -0.428600
      5 C5          0.7940    0.8540   -5.5000 c3        1 LNQ      0.127400
      6 C6         -0.5100    0.9060   -4.7100 c3        1 LNQ      0.127400
      7 O7         -0.3260    0.0670   -3.5710 os        1 LNQ     -0.429600
      8 C8         -1.5340   -0.1190   -2.8380 c3        1 LNQ      0.127400
      9 C9         -1.1600   -0.8900   -1.5760 c3        1 LNQ      0.126400
     10 O10        -1.2200    0.0430   -0.4990 os        1 LNQ     -0.426600
     11 C11        -0.7420   -0.5140    0.7230 c3        1 LNQ      0.133400
     12 C12        -0.9190    0.5640    1.7800 c3        1 LNQ     -0.093400
     13 C13        -0.3330    0.0670    3.0990 c3        1 LNQ      0.195800
     14 N14        -0.4940    1.0260    4.1680 nh        1 LNQ     -0.705000
     15 C15        -0.3770    0.6150    5.4570 cc        1 LNQ     -0.007200
     16 C16        -0.6080   -0.7200    6.1190 c         1 LNQ      0.486300
     17 C17        -0.3570   -0.0180    7.4600 c         1 LNQ      0.486300
     18 C18        -0.1390    1.2470    6.6840 cd        1 LNQ     -0.073200
     19 O19        -0.8630   -1.8430    5.7300 o         1 LNQ     -0.477100
     20 O20        -0.3340   -0.3320    8.6340 o         1 LNQ     -0.479100
     21 N21         0.0480    2.5400    7.0880 nh        1 LNQ     -0.768600
     22 H11         2.0770   -1.7000  -10.5200 hc        1 LNQ      0.035033
     23 H12         2.9260   -0.2140   -9.9280 hc        1 LNQ      0.035033
     24 H13         3.1590   -1.7920   -9.0710 hc        1 LNQ      0.035033
     25 H21         0.4870   -0.2230   -9.2730 hc        1 LNQ      0.053700
     26 H22         0.7200   -1.7950   -8.4180 hc        1 LNQ      0.053700
     27 H31         2.4070   -0.7200   -6.8760 h1        1 LNQ      0.025700
     28 H32         2.1690    0.8730   -7.7400 h1        1 LNQ      0.025700
     29 H51         1.5940    0.3290   -4.9150 h1        1 LNQ      0.042200
     30 H52         1.1370    1.8900   -5.7600 h1        1 LNQ      0.042200
     31 H61        -0.7190    1.9530   -4.3650 h1        1 LNQ      0.043700
     32 H62        -1.3670    0.5350   -5.3320 h1        1 LNQ      0.043700
     33 H81        -1.9880    0.8740   -2.5780 h1        1 LNQ      0.044700
     34 H82        -2.2550   -0.7140   -3.4590 h1        1 LNQ      0.044700
     35 H91        -1.8970   -1.7160   -1.3890 h1        1 LNQ      0.044700
     36 H92        -0.1270   -1.3180   -1.6630 h1        1 LNQ      0.044700
     37 H111       -1.3360   -1.4310    0.9810 h1        1 LNQ      0.031200
     38 H112        0.3390   -0.7970    0.6090 h1        1 LNQ      0.031200
     39 H121       -0.4050    1.5010    1.4430 hc        1 LNQ      0.064200
     40 H122       -2.0080    0.8000    1.8930 hc        1 LNQ      0.064200
     41 H131       -0.8480   -0.8900    3.4050 h1        1 LNQ      0.053200
     42 H132        0.7610   -0.1710    2.9420 h1        1 LNQ      0.053200
     43 H141       -0.1840    1.9520    3.9700 hn        1 LNQ      0.416800
     44 H211        0.3430    2.6240    8.0380 hn        1 LNQ      0.397800
     45 H212        0.5830    3.0980    6.4570 hn        1 LNQ      0.397800
@<TRIPOS>BOND
     1    1    2 1   
     2    1   22 1   
     3    1   23 1   
     4    1   24 1   
     5    2    3 1   
     6    2   25 1   
     7    2   26 1   
     8    3    4 1   
     9    3   27 1   
    10    3   28 1   
    11    4    5 1   
    12    5    6 1   
    13    5   29 1   
    14    5   30 1   
    15    6    7 1   
    16    6   31 1   
    17    6   32 1   
    18    7    8 1   
    19    8    9 1   
    20    8   33 1   
    21    8   34 1   
    22    9   10 1   
    23    9   35 1   
    24    9   36 1   
    25   10   11 1   
    26   11   12 1   
    27   11   37 1   
    28   11   38 1   
    29   12   13 1   
    30   12   39 1   
    31   12   40 1   
    32   13   14 1   
    33   13   41 1   
    34   13   42 1   
    35   14   15 1   
    36   14   43 1   
    37   15   16 1   
    38   15   18 2   
    39   16   17 1   
    40   16   19 2   
    41   17   18 1   
    42   17   20 2   
    43   18   21 1   
    44   21   44 1   
    45   21   45 1   
@<TRIPOS>SUBSTRUCTURE
     1 LNQ         1 TEMP              0 ****  ****    0 ROOT
