@<TRIPOS>MOLECULE
LNQ
   47    47     1     0     0
SMALL
bcc


@<TRIPOS>ATOM
      1 C1          1.9610    2.6650   -0.6610 c3        1 LNQ     -0.102100
      2 C2          3.0100    3.4430    0.0920 c3        1 LNQ     -0.083400
      3 C3          2.9750    3.0850    1.5670 c3        1 LNQ      0.119400
      4 O4          3.9960    3.8760    2.2020 os        1 LNQ     -0.524600
      5 C5          4.0880    3.6830    3.6070 c3        1 LNQ      0.127400
      6 C6          5.3350    2.8740    3.9410 c3        1 LNQ      0.096400
      7 O7          6.4720    3.7080    3.6580 os        1 LNQ     -0.529600
      8 C8          7.7210    3.0900    3.9770 c3        1 LNQ      0.109400
      9 C9          8.5460    2.9460    2.7040 c3        1 LNQ      0.097400
     10 O10         8.5350    4.2280    2.0610 os        1 LNQ     -0.527600
     11 C11         9.0760    4.2130    0.7380 c3        1 LNQ      0.118400
     12 C12         8.0140    3.8310   -0.2770 c3        1 LNQ     -0.151400
     13 C13         6.8920    4.8450   -0.4180 c3        1 LNQ      0.128800
     14 N14         6.0930    5.0270    0.8550 n4        1 LNQ     -0.642800
     15 C15         6.2150    6.3350    1.4030 cc        1 LNQ     -0.032200
     16 C16         5.7230    7.7090    0.8860 c         1 LNQ      0.516300
     17 C17         6.3210    8.3130    2.1620 c         1 LNQ      0.518300
     18 C18         6.7460    6.8770    2.5380 cd        1 LNQ     -0.103200
     19 O19         5.1360    8.0560   -0.1000 o         1 LNQ     -0.298100
     20 O20         6.4500    9.3730    2.7060 o         1 LNQ     -0.299100
     21 N21         7.4330    6.3790    3.6780 n4        1 LNQ     -0.696400
     22 H11         1.9920    2.9300   -1.7460 hc        1 LNQ      0.062367
     23 H12         2.1330    1.5650   -0.5610 hc        1 LNQ      0.062367
     24 H13         0.9400    2.8990   -0.2710 hc        1 LNQ      0.062367
     25 H21         4.0270    3.2130   -0.3270 hc        1 LNQ      0.025700
     26 H22         2.8300    4.5430   -0.0310 hc        1 LNQ      0.025700
     27 H31         3.2000    1.9980    1.7310 h1        1 LNQ      0.066700
     28 H32         1.9800    3.3390    2.0190 h1        1 LNQ      0.066700
     29 H51         3.1870    3.1540    4.0180 h1        1 LNQ      0.077700
     30 H52         4.1520    4.7130    4.0500 h1        1 LNQ      0.077700
     31 H61         5.3390    2.6020    5.0300 h1        1 LNQ      0.075700
     32 H62         5.3980    1.9490    3.3100 h1        1 LNQ      0.075700
     33 H81         7.5900    2.0810    4.4500 h1        1 LNQ      0.079200
     34 H82         8.2280    3.7760    4.7080 h1        1 LNQ      0.079200
     35 H91         8.0980    2.1780    2.0210 h1        1 LNQ      0.079200
     36 H92         9.6040    2.6650    2.9530 h1        1 LNQ      0.079200
     37 H111        9.9440    3.5010    0.6740 h1        1 LNQ      0.091200
     38 H112        9.4460    5.2610    0.5750 h1        1 LNQ      0.091200
     39 H121        7.5980    2.8160   -0.0370 hc        1 LNQ      0.111700
     40 H122        8.5050    3.7540   -1.2910 hc        1 LNQ      0.111700
     41 H131        6.1630    4.4930   -1.2080 hx        1 LNQ      0.120200
     42 H132        7.3040    5.8460   -0.7340 hx        1 LNQ      0.120200
     43 H141        6.3930    4.3220    1.5680 hn        1 LNQ      0.506300
     44 H211        7.7150    7.1640    4.2860 hn        1 LNQ      0.501467
     45 H212        6.8160    5.7270    4.2070 hn        1 LNQ      0.501467
     46 H142        5.0800    4.8480    0.6640 hn        1 LNQ      0.506300
     47 H213        8.2740    5.8400    3.3850 hn        1 LNQ      0.501467
@<TRIPOS>BOND
     1    1    2 1   
     2    1   22 1   
     3    1   23 1   
     4    1   24 1   
     5    2    3 1   
     6    2   25 1   
     7    2   26 1   
     8    3    4 1   
     9    3   27 1   
    10    3   28 1   
    11    4    5 1   
    12    5    6 1   
    13    5   29 1   
    14    5   30 1   
    15    6    7 1   
    16    6   31 1   
    17    6   32 1   
    18    7    8 1   
    19    8    9 1   
    20    8   33 1   
    21    8   34 1   
    22    9   10 1   
    23    9   35 1   
    24    9   36 1   
    25   10   11 1   
    26   11   12 1   
    27   11   37 1   
    28   11   38 1   
    29   12   13 1   
    30   12   39 1   
    31   12   40 1   
    32   13   14 1   
    33   13   41 1   
    34   13   42 1   
    35   14   15 1   
    36   14   43 1   
    37   14   46 1   
    38   15   16 1   
    39   15   18 2   
    40   16   17 1   
    41   16   19 2   
    42   17   18 1   
    43   17   20 2   
    44   18   21 1   
    45   21   44 1   
    46   21   45 1   
    47   21   47 1   
@<TRIPOS>SUBSTRUCTURE
     1 LNQ         1 TEMP              0 ****  ****    0 ROOT
