@<TRIPOS>MOLECULE
LNQ
   45    45     1     0     0
SMALL
bcc


@<TRIPOS>ATOM
      1 C1          0.7030   -2.9150    0.1840 c3        1 LNQ     -0.093100
      2 C2          1.9890   -2.4200    0.7910 c3        1 LNQ     -0.084400
      3 C3          1.8570   -0.9680    1.2150 c3        1 LNQ      0.131400
      4 O4          3.1140   -0.5880    1.7720 os        1 LNQ     -0.428600
      5 C5          3.1160    0.7620    2.2290 c3        1 LNQ      0.127400
      6 C6          4.5480    1.0740    2.6500 c3        1 LNQ      0.127400
      7 O7          5.0540    2.0100    1.7000 os        1 LNQ     -0.429600
      8 C8          6.4470    2.2580    1.8750 c3        1 LNQ      0.127400
      9 C9          6.8100    3.3860    0.9150 c3        1 LNQ      0.126400
     10 O10         6.9960    4.5530    1.7140 os        1 LNQ     -0.426600
     11 C11         7.1930    5.7220    0.9210 c3        1 LNQ      0.135400
     12 C12         7.4450    6.8610    1.8940 c3        1 LNQ     -0.118400
     13 C13         7.5520    8.1740    1.1210 c3        1 LNQ      0.174800
     14 N14         7.7870    9.3520    1.9280 nu        1 LNQ     -0.676000
     15 C15         9.0810    9.7130    2.2000 cc        1 LNQ     -0.039200
     16 C16        10.3860    9.4310    1.5090 c         1 LNQ      0.488300
     17 C17        11.0390   10.4140    2.4910 c         1 LNQ      0.481300
     18 C18         9.6740   10.6160    3.0880 cd        1 LNQ     -0.045200
     19 O19        10.7470    8.7350    0.5790 o         1 LNQ     -0.478100
     20 O20        12.1520   10.8510    2.7080 o         1 LNQ     -0.473100
     21 N21         9.2550   11.3150    4.1820 nv        1 LNQ     -0.775600
     22 H11        -0.1360   -2.8430    0.9190 hc        1 LNQ      0.035033
     23 H12         0.4320   -2.3140   -0.7170 hc        1 LNQ      0.035033
     24 H13         0.8100   -3.9830   -0.1240 hc        1 LNQ      0.035033
     25 H21         2.2630   -3.0410    1.6830 hc        1 LNQ      0.053700
     26 H22         2.8280   -2.5120    0.0530 hc        1 LNQ      0.053700
     27 H31         1.0510   -0.8460    1.9870 h1        1 LNQ      0.025700
     28 H32         1.6210   -0.3110    0.3350 h1        1 LNQ      0.025700
     29 H51         2.7820    1.4520    1.4090 h1        1 LNQ      0.041700
     30 H52         2.4210    0.8560    3.1050 h1        1 LNQ      0.041700
     31 H61         5.1750    0.1430    2.6490 h1        1 LNQ      0.043700
     32 H62         4.5670    1.5400    3.6700 h1        1 LNQ      0.043700
     33 H81         6.6580    2.5550    2.9370 h1        1 LNQ      0.044700
     34 H82         7.0220    1.3290    1.6210 h1        1 LNQ      0.044700
     35 H91         5.9890    3.5530    0.1680 h1        1 LNQ      0.044200
     36 H92         7.7670    3.1510    0.3790 h1        1 LNQ      0.044200
     37 H111        6.2750    5.9150    0.3030 h1        1 LNQ      0.031700
     38 H112        8.0710    5.5750    0.2370 h1        1 LNQ      0.031700
     39 H121        8.3890    6.6580    2.4640 hc        1 LNQ      0.060700
     40 H122        6.6070    6.9050    2.6370 hc        1 LNQ      0.060700
     41 H131        6.5810    8.3570    0.5760 h1        1 LNQ      0.070200
     42 H132        8.3740    8.0870    0.3530 h1        1 LNQ      0.070200
     43 H141        7.1840    9.4110    2.7260 hn        1 LNQ      0.400800
     44 H211        8.3110   11.6340    4.1410 hn        1 LNQ      0.405300
     45 H212        9.9010   12.0080    4.4970 hn        1 LNQ      0.405300
@<TRIPOS>BOND
     1    1    2 1   
     2    1   22 1   
     3    1   23 1   
     4    1   24 1   
     5    2    3 1   
     6    2   25 1   
     7    2   26 1   
     8    3    4 1   
     9    3   27 1   
    10    3   28 1   
    11    4    5 1   
    12    5    6 1   
    13    5   29 1   
    14    5   30 1   
    15    6    7 1   
    16    6   31 1   
    17    6   32 1   
    18    7    8 1   
    19    8    9 1   
    20    8   33 1   
    21    8   34 1   
    22    9   10 1   
    23    9   35 1   
    24    9   36 1   
    25   10   11 1   
    26   11   12 1   
    27   11   37 1   
    28   11   38 1   
    29   12   13 1   
    30   12   39 1   
    31   12   40 1   
    32   13   14 1   
    33   13   41 1   
    34   13   42 1   
    35   14   15 1   
    36   14   43 1   
    37   15   16 1   
    38   15   18 2   
    39   16   17 1   
    40   16   19 2   
    41   17   18 1   
    42   17   20 2   
    43   18   21 1   
    44   21   44 1   
    45   21   45 1   
@<TRIPOS>SUBSTRUCTURE
     1 LNQ         1 TEMP              0 ****  ****    0 ROOT
