@<TRIPOS>MOLECULE
LNR
   23    21     1     0     0
SMALL
bcc


@<TRIPOS>ATOM
      1 OAC        -3.4320   -0.2690   -1.1730 oh        1 LNR     -0.247000
      2 CAJ        -2.0250   -0.2690   -1.1730 c2        1 LNR      0.065000
      3 CAG        -1.3320   -0.2690    0.0280 c2        1 LNR     -0.123000
      4 CAI        -1.3320   -0.2690   -2.3730 c1        1 LNR     -0.001000
      5 OAB        -2.0340   -0.3470   -3.5900 oh        1 LNR     -0.270000
      6 CAE         0.0540   -0.2690   -2.3730 c1        1 LNR     -0.144500
      7 CAF         0.7470   -0.2690   -1.1730 c1        1 LNR     -0.144500
      8 CAK         0.0540   -0.2690    0.0280 c1        1 LNR     -0.120000
      9 CAL         0.8090   -0.3430    1.3370 c3        1 LNR      0.064000
     10 OAD         1.8750   -1.2530    1.2130 oh        1 LNR     -0.333000
     11 CAH         1.3530    1.0250    1.6830 c3        1 LNR     -0.070000
     12 NAA         1.8410    1.0180    3.0230 n3        1 LNR     -0.347000
     13 HOAC       -3.7280    0.5450   -0.9770 ho        1 LNR      0.237000
     14 HAG        -1.8200   -0.2690    0.8730 ha        1 LNR      0.158000
     15 HOAB       -1.9260   -1.1550   -3.9430 ho        1 LNR      0.229000
     16 HAE         0.5420   -0.2690   -3.2180 ha        1 LNR      0.143000
     17 HAF         1.7230   -0.2690   -1.1730 ha        1 LNR      0.143000
     18 HAL         0.2060   -0.6410    2.0440 h1        1 LNR      0.098000
     19 HOAD        1.6980   -1.9820    1.6880 ho        1 LNR      0.206000
     20 HAH         2.0810    1.2500    1.0720 h1        1 LNR      0.079000
     21 HAHA        0.6420    1.6890    1.5990 h1        1 LNR      0.079000
     22 HNAA        2.6950    1.3380    3.0370 hn        1 LNR      0.150000
     23 HNAB        1.3100    1.5450    3.5430 hn        1 LNR      0.150000
@<TRIPOS>BOND
     1    1    2 1   
     2    1   13 1   
     3    2    3 1   
     4    2    4 1   
     5    3    8 1   
     6    3   14 1   
     7    4    5 1   
     8    5   15 1   
     9    6    7 1   
    10    6   16 1   
    11    7   17 1   
    12    8    9 1   
    13    9   10 1   
    14    9   11 1   
    15    9   18 1   
    16   10   19 1   
    17   11   12 1   
    18   11   20 1   
    19   11   21 1   
    20   12   22 1   
    21   12   23 1   
@<TRIPOS>SUBSTRUCTURE
     1 LNR         1 TEMP              0 ****  ****    0 ROOT
