@<TRIPOS>MOLECULE
LNR
   24    24     1     0     0
SMALL
bcc


@<TRIPOS>ATOM
      1 OAC        -0.0640   -0.1790    0.2050 oh        1 LNR     -0.479100
      2 CAJ         1.3010   -0.1060    0.1230 ca        1 LNR      0.127100
      3 CAG         2.0130   -0.1090    1.3270 ca        1 LNR     -0.118000
      4 CAI         2.0010   -0.0240   -1.1070 ca        1 LNR      0.086100
      5 OAB         1.2220   -0.0280   -2.2360 oh        1 LNR     -0.496100
      6 CAE         3.3960    0.0560   -1.1190 ca        1 LNR     -0.166000
      7 CAF         4.0950    0.0600    0.0870 ca        1 LNR     -0.115000
      8 CAK         3.4100   -0.0220    1.3020 ca        1 LNR     -0.182300
      9 CAL         4.1580   -0.0310    2.5950 c3        1 LNR      0.197400
     10 OAD         5.3940   -0.7300    2.5460 oh        1 LNR     -0.642800
     11 CAH         4.5150    1.4290    2.9690 c3        1 LNR      0.090800
     12 NAA         5.4090    1.4980    4.1600 n4        1 LNR     -0.832600
     13 HOAC       -0.4260   -0.2130   -0.6970 ho        1 LNR      0.455000
     14 HAG         1.4560   -0.1900    2.2730 ha        1 LNR      0.159000
     15 HOAB        1.8020   -0.0170   -3.0130 ho        1 LNR      0.448000
     16 HAE         3.9380    0.1140   -2.0750 ha        1 LNR      0.157000
     17 HAF         5.1940    0.1210    0.0760 ha        1 LNR      0.141000
     18 HAL         3.5300   -0.4930    3.4130 h1        1 LNR      0.072700
     19 HOAD        5.3090   -1.4560    1.9120 ho        1 LNR      0.462000
     20 HAH         5.0540    1.9110    2.1030 hx        1 LNR      0.119700
     21 HAHA        3.5680    1.9980    3.1880 hx        1 LNR      0.119700
     22 HNAA        5.7070    2.4620    4.3280 hn        1 LNR      0.465133
     23 HNAB        4.9240    1.1420    4.9880 hn        1 LNR      0.465133
     24 HAA3        6.2340    0.9050    3.9880 hn        1 LNR      0.465133
@<TRIPOS>BOND
     1    1    2 1   
     2    1   13 1   
     3    2    3 ar  
     4    2    4 ar  
     5    3    8 ar  
     6    3   14 1   
     7    4    5 1   
     8    4    6 ar  
     9    5   15 1   
    10    6    7 ar  
    11    6   16 1   
    12    7    8 ar  
    13    7   17 1   
    14    8    9 1   
    15    9   10 1   
    16    9   11 1   
    17    9   18 1   
    18   10   19 1   
    19   11   12 1   
    20   11   20 1   
    21   11   21 1   
    22   12   22 1   
    23   12   23 1   
    24   12   24 1   
@<TRIPOS>SUBSTRUCTURE
     1 LNR         1 TEMP              0 ****  ****    0 ROOT
