@<TRIPOS>MOLECULE
LNR
   23    23     1     0     0
SMALL
bcc


@<TRIPOS>ATOM
      1 OAC        -2.8700   -1.5530   -0.4020 oh        1 LNR     -0.516100
      2 CAJ        -1.8530   -0.6470   -0.1820 ca        1 LNR      0.041100
      3 CAG        -0.5070   -0.9270   -0.4280 ca        1 LNR     -0.149000
      4 CAI        -2.2420    0.6150    0.3190 ca        1 LNR      0.118100
      5 OAB        -3.5490    0.9440    0.5800 oh        1 LNR     -0.492100
      6 CAE        -1.2660    1.5880    0.5710 ca        1 LNR     -0.132000
      7 CAF         0.0730    1.2980    0.3250 ca        1 LNR     -0.123000
      8 CAK         0.4610    0.0500   -0.1720 ca        1 LNR     -0.118300
      9 CAL         1.9050   -0.2600   -0.4360 c3        1 LNR      0.180400
     10 OAD         2.4990    0.6490   -1.3490 oh        1 LNR     -0.592800
     11 CAH         2.6910   -0.2710    0.8940 c3        1 LNR      0.133800
     12 NAA         4.0460   -0.7370    0.7370 n3        1 LNR     -0.915800
     13 HOAC       -2.4780   -2.3560   -0.7730 ho        1 LNR      0.431000
     14 HAG        -0.2140   -1.9110   -0.8240 ha        1 LNR      0.141000
     15 HOAB       -4.1030    0.1810    0.3480 ho        1 LNR      0.439000
     16 HAE        -1.5750    2.5690    0.9610 ha        1 LNR      0.155000
     17 HAF         0.8340    2.0670    0.5310 ha        1 LNR      0.131000
     18 HAL         2.0080   -1.2580   -0.9550 h1        1 LNR      0.093700
     19 HOAD        2.3210    1.5430   -1.0340 ho        1 LNR      0.398000
     20 HAH         2.6330    0.7700    1.3320 h1        1 LNR      0.032200
     21 HAHA        2.1700   -0.9680    1.6090 h1        1 LNR      0.032200
     22 HNAA        4.4520   -0.3780   -0.1060 hn        1 LNR      0.355800
     23 HNAB        4.6040   -0.4610    1.5200 hn        1 LNR      0.355800
@<TRIPOS>BOND
     1    1    2 1   
     2    1   13 1   
     3    2    3 ar  
     4    2    4 ar  
     5    3    8 ar  
     6    3   14 1   
     7    4    5 1   
     8    4    6 ar  
     9    5   15 1   
    10    6    7 ar  
    11    6   16 1   
    12    7    8 ar  
    13    7   17 1   
    14    8    9 1   
    15    9   10 1   
    16    9   11 1   
    17    9   18 1   
    18   10   19 1   
    19   11   12 1   
    20   11   20 1   
    21   11   21 1   
    22   12   22 1   
    23   12   23 1   
@<TRIPOS>SUBSTRUCTURE
     1 LNR         1 TEMP              0 ****  ****    0 ROOT
