@<TRIPOS>MOLECULE
LNT
   38    37     1     0     0
SMALL
bcc


@<TRIPOS>ATOM
      1 N14        -1.8810    1.6560    1.2740 n3        1 LNT     -0.911800
      2 CA         -1.7400    0.4140    0.5450 c3        1 LNT      0.184500
      3 C16        -0.4540    0.3540   -0.3820 c3        1 LNT      0.538800
      4 C17        -2.9610    0.1080   -0.3330 c3        1 LNT     -0.067400
      5 C18        -4.2200   -0.1760    0.4710 c3        1 LNT     -0.067700
      6 C19        -5.4390   -0.0520   -0.4220 c3        1 LNT     -0.086600
      7 C20        -4.1770   -1.5560    1.0960 c3        1 LNT     -0.086600
      8 O21        -0.4400   -0.8670   -1.0890 oh        1 LNT     -0.666800
      9 O22        -0.6670    1.2960   -1.4400 oh        1 LNT     -0.666800
     10 N23         0.7610    0.6440    0.3880 n3        1 LNT     -0.838200
     11 C24         2.0060    0.1650   -0.1950 c3        1 LNT      0.000500
     12 C           2.4340   -1.1820    0.4860 c         1 LNT      0.931600
     13 O           1.8080   -2.2210    0.1330 o         1 LNT     -0.833300
     14 C27         3.1720    1.1720   -0.0940 c3        1 LNT      0.154100
     15 OG1         3.3450    1.6550    1.2290 oh        1 LNT     -0.642800
     16 C29         2.9740    2.3820   -0.9890 c3        1 LNT     -0.096100
     17 H          -1.1360    1.7560    1.9360 hn        1 LNT      0.350300
     18 H2         -1.8590    2.4300    0.6400 hn        1 LNT      0.350300
     19 H15        -1.6130   -0.4200    1.2950 h1        1 LNT      0.075700
     20 H17        -3.1400    0.9710   -1.0260 hc        1 LNT      0.054700
     21 H17A       -2.7110   -0.7840   -0.9670 hc        1 LNT      0.054700
     22 H18        -4.3100    0.5850    1.2960 hc        1 LNT      0.060700
     23 H19        -5.3700   -0.7640   -1.2800 hc        1 LNT      0.026533
     24 H19A       -6.3690   -0.2800    0.1530 hc        1 LNT      0.026533
     25 H19B       -5.5190    0.9840   -0.8300 hc        1 LNT      0.026533
     26 H20        -3.3020   -1.6460    1.7840 hc        1 LNT      0.026533
     27 H20A       -5.1090   -1.7460    1.6810 hc        1 LNT      0.026533
     28 H20B       -4.0870   -2.3420    0.3080 hc        1 LNT      0.026533
     29 HO21        0.1480   -1.5160   -0.6500 ho        1 LNT      0.451500
     30 HO22       -0.2680    0.9360   -2.2410 ho        1 LNT      0.451500
     31 HN23        0.8180    1.6290    0.5690 hn        1 LNT      0.367800
     32 H24         1.8670   -0.0610   -1.2960 h1        1 LNT      0.030700
     33 OXT         3.3810   -1.1520    1.3170 o         1 LNT     -0.833300
     34 H27         4.1060    0.6190   -0.4030 h1        1 LNT      0.044700
     35 HOG1        3.4110    0.8640    1.7920 ho        1 LNT      0.451000
     36 H29         3.8630    3.0530   -0.9220 hc        1 LNT      0.028367
     37 H29A        2.8440    2.0500   -2.0460 hc        1 LNT      0.028367
     38 H29B        2.0750    2.9660   -0.6790 hc        1 LNT      0.028367
@<TRIPOS>BOND
     1    1    2 1   
     2    1   17 1   
     3    1   18 1   
     4    2    3 1   
     5    2    4 1   
     6    2   19 1   
     7    3    8 1   
     8    3    9 1   
     9    3   10 1   
    10    4    5 1   
    11    4   20 1   
    12    4   21 1   
    13    5    6 1   
    14    5    7 1   
    15    5   22 1   
    16    6   23 1   
    17    6   24 1   
    18    6   25 1   
    19    7   26 1   
    20    7   27 1   
    21    7   28 1   
    22    8   29 1   
    23    9   30 1   
    24   10   11 1   
    25   10   31 1   
    26   11   12 1   
    27   11   14 1   
    28   11   32 1   
    29   12   13 1   
    30   12   33 1   
    31   14   15 1   
    32   14   16 1   
    33   14   34 1   
    34   15   35 1   
    35   16   36 1   
    36   16   37 1   
    37   16   38 1   
@<TRIPOS>SUBSTRUCTURE
     1 LNT         1 TEMP              0 ****  ****    0 ROOT
