@<TRIPOS>MOLECULE
LNV
   48    46     1     0     0
SMALL
bcc


@<TRIPOS>ATOM
      1 CAA      -106.8440   40.3850  191.5560 c1        1 LNV      0.106000
      2 CAB      -107.1210   41.2000  192.7550 c2        1 LNV     -0.179000
      3 CAC      -108.3050   41.0780  193.3750 c2        1 LNV     -0.200000
      4 CAD      -109.3090   40.1250  192.7830 c3        1 LNV     -0.081000
      5 CAE      -109.2140   40.1870  191.2400 c3        1 LNV     -0.078000
      6 OAF      -107.8200   39.8920  190.8820 os        1 LNV     -0.047000
      7 CAG       296.8240 -106.5250 -503.4200 c1        1 LNV      0.448000
      8 OAH       296.1620 -106.2310 -502.4880 o         1 LNV     -0.222000
      9 OAI       297.4960 -106.8220 -504.3680 o         1 LNV     -0.222000
     10 CAJ      -110.1210   39.1700  190.5260 c3        1 LNV      0.037000
     11 CAK      -109.5710   38.8850  189.1180 c3        1 LNV      0.022000
     12 CAL      -110.6510   38.3760  188.1500 c3        1 LNV     -0.056000
     13 OAM      -110.0160   38.3440  186.8840 oh        1 LNV     -0.329000
     14 OAW      -110.2170   38.0620  191.4130 os        1 LNV     -0.329000
     15 CAX      -110.6170   36.8150  190.8630 c3        1 LNV     -0.073000
     16 OAY      -109.0950   40.1390  188.6460 oh        1 LNV     -0.338000
     17 NAZ       298.9730 -106.4400 -506.9550 n3        1 LNV     -0.369000
     18 CBA       299.4450 -107.7660 -506.8130 c2        1 LNV      0.097000
     19 NBB       299.2940 -108.6880 -505.9290 n2        1 LNV     -0.211000
     20 NBC       300.4400 -108.1210 -507.9170 n4        1 LNV     -0.056000
     21 CBE      -111.2480   41.4500  195.4820 c3        1 LNV     -0.258000
     22 OBF      -110.6690   39.0930  195.2010 o         1 LNV     -0.148000
     23 NBG      -110.7170   40.3530  193.2450 n4        1 LNV     -0.106000
     24 HAB      -106.3050   41.8460  193.1180 ha        1 LNV      0.197000
     25 HAC      -108.5480   41.5850  194.3190 ha        1 LNV      0.152000
     26 HAD      -109.0420   39.0660  193.1130 hx        1 LNV      0.197000
     27 HAE      -109.4300   41.2150  190.8400 h1        1 LNV      0.146000
     28 HAJ      -111.1540   39.6170  190.4250 h1        1 LNV      0.078000
     29 HAK      -108.7200   38.1500  189.1790 h1        1 LNV      0.125000
     30 HAL      -111.0010   37.3490  188.4280 h1        1 LNV      0.076500
     31 HALA     -111.5230   39.0820  188.1320 h1        1 LNV      0.076500
     32 HOAM     -110.6920   38.1260  186.2310 ho        1 LNV      0.226000
     33 HAX      -111.6380   36.8970  190.4160 h1        1 LNV      0.096000
     34 HAXA     -109.8750   36.4570  190.1080 h1        1 LNV      0.096000
     35 HAXB     -110.6290   36.1300  191.7500 h1        1 LNV      0.096000
     36 HOAY     -108.7190   39.9810  187.7670 ho        1 LNV      0.249000
     37 HNAZ      298.7050 -106.0210 -506.0840 hn        1 LNV      0.237500
     38 HNBB      298.6470 -108.5380 -505.1790 hn        1 LNV      0.249000
     39 HNBC      299.9590 -108.1270 -508.8200 hn        1 LNV      0.270667
     40 HNBA      301.1850 -107.4140 -507.9320 hn        1 LNV      0.270667
     41 HBE      -111.2480   41.2300  196.5830 hc        1 LNV      0.154667
     42 HBEA     -110.5270   42.2830  195.2810 hc        1 LNV      0.154667
     43 HBEB     -112.2780   41.7760  195.1850 hc        1 LNV      0.154667
     44 HNBG     -111.2930   39.6290  192.7830 hn        1 LNV      0.260500
     45 CBD      -110.8620   40.2100  194.7520 c2        1 LNV      0.262000
     46 HAZ2      298.2980 -106.3110 -507.6810 hn        1 LNV      0.237500
     47 HBC3      300.8500 -109.0480 -507.7420 hn        1 LNV      0.270667
     48 HBG2     -111.0340   41.2790  192.9490 hn        1 LNV      0.260500
@<TRIPOS>BOND
     1    1    2 1   
     2    1    6 1   
     3    2    3 1   
     4    2   24 1   
     5    3    4 1   
     6    3   25 1   
     7    4    5 1   
     8    4   23 1   
     9    4   26 1   
    10    5    6 1   
    11    5   10 1   
    12    5   27 1   
    13    7    8 1   
    14    7    9 1   
    15   10   11 1   
    16   10   14 1   
    17   10   28 1   
    18   11   12 1   
    19   11   16 1   
    20   11   29 1   
    21   12   13 1   
    22   12   30 1   
    23   12   31 1   
    24   13   32 1   
    25   14   15 1   
    26   15   33 1   
    27   15   34 1   
    28   15   35 1   
    29   16   36 1   
    30   17   18 1   
    31   17   37 1   
    32   17   46 1   
    33   18   19 1   
    34   18   20 1   
    35   19   38 1   
    36   20   39 1   
    37   20   40 1   
    38   20   47 1   
    39   21   41 1   
    40   21   42 1   
    41   21   43 1   
    42   21   45 1   
    43   22   45 1   
    44   23   44 1   
    45   23   45 1   
    46   23   48 1   
@<TRIPOS>SUBSTRUCTURE
     1 LNV         1 TEMP              0 ****  ****    0 ROOT
