@<TRIPOS>MOLECULE
LNV
   45    45     1     0     0
SMALL
bcc


@<TRIPOS>ATOM
      1 CAA         0.0100   -2.1350   -0.6980 ce        1 LNV      0.083900
      2 CAB        -1.2580   -1.8430   -0.3530 c2        1 LNV     -0.393200
      3 CAC        -1.6650   -0.5290    0.2300 c3        1 LNV      0.256700
      4 CAD        -0.5630    0.5460   -0.0860 c3        1 LNV      0.053700
      5 CAE         0.8070   -0.0970    0.2350 c3        1 LNV      0.113100
      6 OAF         1.0510   -1.2480   -0.5850 os        1 LNV     -0.288900
      7 CAG         0.4500   -3.5080   -1.2510 c         1 LNV      0.932800
      8 OAH         1.3990   -4.0840   -0.6650 o         1 LNV     -0.799300
      9 OAI        -0.2130   -3.9530   -2.2220 o         1 LNV     -0.799300
     10 CAJ         2.0090    0.8350   -0.0040 c3        1 LNV      0.128100
     11 CAK         3.2610    0.2060    0.6460 c3        1 LNV      0.085100
     12 CAL         4.5560    0.8240    0.1090 c3        1 LNV      0.103400
     13 OAM         5.4440    1.1410    1.1670 oh        1 LNV     -0.621800
     14 OAW         2.2860    0.9650   -1.3960 os        1 LNV     -0.396600
     15 CAX         1.8890    2.2080   -1.9520 c3        1 LNV      0.102700
     16 OAY         3.2050    0.3520    2.0560 oh        1 LNV     -0.599800
     17 NAZ        -2.9560   -0.0800   -0.2830 nh        1 LNV     -0.807200
     18 CBA        -3.9630    0.3740    0.6050 c2        1 LNV      0.773100
     19 NBB        -3.6400    0.9530    1.7440 n2        1 LNV     -0.916100
     20 NBC        -5.3280    0.1940    0.1700 nh        1 LNV     -0.940800
     21 CBE        -1.7810    3.9920    1.0160 c3        1 LNV     -0.177100
     22 OBF        -1.2270    3.1190   -1.1490 o         1 LNV     -0.629100
     23 NBG        -0.7790    1.7620    0.6720 n         1 LNV     -0.528900
     24 HAB        -2.0340   -2.6080   -0.4830 ha        1 LNV      0.146000
     25 HAC        -1.7180   -0.6560    1.3560 h1        1 LNV      0.059700
     26 HAD        -0.5830    0.7890   -1.1900 h1        1 LNV      0.107700
     27 HAE         0.8280   -0.4260    1.3140 h1        1 LNV      0.058700
     28 HAJ         1.8110    1.8350    0.4680 h1        1 LNV      0.045700
     29 HAK         3.2440   -0.9090    0.4750 h1        1 LNV      0.128700
     30 HAL         5.0470    0.1190   -0.6110 h1        1 LNV      0.055700
     31 HALA        4.3630    1.8020   -0.4060 h1        1 LNV      0.055700
     32 HOAM        5.5030    0.3590    1.7330 ho        1 LNV      0.409000
     33 HAX         2.4970    3.0400   -1.5150 h1        1 LNV      0.037700
     34 HAXA        2.1070    2.0980   -3.0440 h1        1 LNV      0.037700
     35 HAXB        0.7990    2.4000   -1.7880 h1        1 LNV      0.037700
     36 HOAY        3.3010    1.2940    2.2510 ho        1 LNV      0.395000
     37 HNAZ       -3.2850   -0.6590   -1.0300 hn        1 LNV      0.413800
     38 HNBB       -4.4150    1.2920    2.2700 hn        1 LNV      0.375400
     39 HNBC       -5.4380   -0.1210   -0.7690 hn        1 LNV      0.380300
     40 HNBA       -5.9020    0.9870    0.3560 hn        1 LNV      0.380300
     41 HBE        -2.1000    4.8730    0.4110 hc        1 LNV      0.058367
     42 HBEA       -2.6530    3.6130    1.6020 hc        1 LNV      0.058367
     43 HBEB       -0.9780    4.3090    1.7250 hc        1 LNV      0.058367
     44 HNBG       -1.0500    1.6090    1.6200 hn        1 LNV      0.308500
     45 CBD        -1.2700    2.9160    0.0840 c         1 LNV      0.655100
@<TRIPOS>BOND
     1    1    2 2   
     2    1    6 1   
     3    1    7 1   
     4    2    3 1   
     5    2   24 1   
     6    3    4 1   
     7    3   17 1   
     8    3   25 1   
     9    4    5 1   
    10    4   23 1   
    11    4   26 1   
    12    5    6 1   
    13    5   10 1   
    14    5   27 1   
    15    7    8 1   
    16    7    9 1   
    17   10   11 1   
    18   10   14 1   
    19   10   28 1   
    20   11   12 1   
    21   11   16 1   
    22   11   29 1   
    23   12   13 1   
    24   12   30 1   
    25   12   31 1   
    26   13   32 1   
    27   14   15 1   
    28   15   33 1   
    29   15   34 1   
    30   15   35 1   
    31   16   36 1   
    32   17   18 1   
    33   17   37 1   
    34   18   19 2   
    35   18   20 1   
    36   19   38 1   
    37   20   39 1   
    38   20   40 1   
    39   21   41 1   
    40   21   42 1   
    41   21   43 1   
    42   21   45 1   
    43   22   45 2   
    44   23   44 1   
    45   23   45 1   
@<TRIPOS>SUBSTRUCTURE
     1 LNV         1 TEMP              0 ****  ****    0 ROOT
