@<TRIPOS>MOLECULE
LNV
   48    45     1     0     0
SMALL
bcc


@<TRIPOS>ATOM
      1 CAA       -89.9860   41.0830   17.2530 c1        1 LNV      0.072000
      2 CAB       -88.5340   41.1730   17.5050 c3        1 LNV     -0.263000
      3 CAC       -88.0650   42.5470   17.8000 c2        1 LNV     -0.109000
      4 CAD       -88.8710   43.6110   17.6930 c2        1 LNV     -0.235000
      5 CAE       -90.2760   43.5030   17.2240 c3        1 LNV     -0.056000
      6 OAF       -90.7390   42.1190   17.1280 os        1 LNV     -0.162000
      7 CAG       -86.0350   39.2760   14.1530 c1        1 LNV      0.425000
      8 OAH       -85.4070   38.6170   13.3940 o         1 LNV     -0.212000
      9 OAI       -86.6690   39.9410   14.9150 o         1 LNV     -0.212000
     10 CAJ       -91.2620   44.2570   18.1240 c3        1 LNV      0.018000
     11 CAK       -92.6980   44.2190   17.5450 c3        1 LNV     -0.047000
     12 CAL       -93.2940   42.8440   17.6420 c2        1 LNV      0.290000
     13 OAM       -94.4100   42.6330   18.2570 oh        1 LNV     -0.087000
     14 OAW       -91.4140   43.6870   19.4180 os        1 LNV     -0.313000
     15 CAX       -90.4810   44.1530   20.3910 c3        1 LNV     -0.078000
     16 OAY       -93.5830   45.0970   18.2130 oh        1 LNV     -0.323000
     17 NAZ       141.3150  -67.8130  -20.9710 n8        1 LNV     -0.369333
     18 CBA       142.2740  -66.8340  -21.0500 cz        1 LNV      0.398000
     19 NBB       143.5970  -67.1800  -21.2460 n8        1 LNV     -0.369333
     20 NBC       141.9210  -65.5120  -20.9380 n8        1 LNV     -0.369333
     21 CBE       137.6650  -64.0100  -20.3620 c3        1 LNV     -0.246000
     22 OBF       139.0580  -65.9750  -20.5390 o         1 LNV     -0.512000
     23 NBG       136.8530  -66.3380  -20.1550 nt        1 LNV     -0.402000
     24 HAB       -88.2790   40.4740   18.3520 hc        1 LNV      0.176500
     25 HAC       -87.9980   40.7630   16.5940 hc        1 LNV      0.176500
     26 HAD       -87.0150   42.6490   18.1190 ha        1 LNV      0.162000
     27 HAE       -88.5210   44.6330   17.9080 ha        1 LNV      0.150000
     28 HAJ       -90.3580   43.9120   16.1750 h1        1 LNV      0.132000
     29 HAK       -90.9370   45.3350   18.1920 h1        1 LNV      0.137000
     30 HAL       -92.6860   44.5290   16.4540 h1        1 LNV      0.199000
     31 HALA      -92.8290   41.9300   17.1850 h4        1 LNV      0.278000
     32 HOAM      -94.8060   43.4520   18.6670 ho        1 LNV      0.319000
     33 HAX       -90.6070   45.2520   20.5470 h1        1 LNV      0.102000
     34 HAXA      -90.7580   43.5820   21.3140 h1        1 LNV      0.102000
     35 HAXB      -89.4360   43.9160   20.0760 h1        1 LNV      0.102000
     36 HOAY      -93.1760   45.3850   19.0460 ho        1 LNV      0.256000
     37 HNAZ      140.3530  -67.5710  -20.8230 hn        1 LNV      0.282333
     38 HNBB      143.8670  -68.1320  -21.3360 hn        1 LNV      0.282333
     39 HNBC      144.3020  -66.4830  -21.3110 hn        1 LNV      0.282333
     40 HNBA      140.9620  -65.2530  -20.7900 hn        1 LNV      0.282333
     41 HBE       138.6310  -63.4830  -20.5490 hc        1 LNV      0.118000
     42 HBEA      136.9400  -63.7330  -21.1670 hc        1 LNV      0.118000
     43 HBEB      137.2550  -63.6780  -19.3770 hc        1 LNV      0.118000
     44 HNBG      135.9390  -65.9860  -20.0100 hn        1 LNV      0.240000
     45 CBD       137.9040  -65.4970  -20.3580 c2        1 LNV      0.341000
     46 HAZ2      141.5590  -68.7720  -21.0550 hn        1 LNV      0.282333
     47 HBC3      142.6080  -64.7960  -20.9880 hn        1 LNV      0.282333
     48 HBG2      136.9880  -67.3200  -20.1460 hn        1 LNV      0.240000
@<TRIPOS>BOND
     1    1    2 1   
     2    1    6 1   
     3    2    3 1   
     4    2   24 1   
     5    2   25 1   
     6    3    4 1   
     7    3   26 1   
     8    4    5 1   
     9    4   27 1   
    10    5    6 1   
    11    5   10 1   
    12    5   28 1   
    13    7    8 1   
    14    7    9 1   
    15   10   11 1   
    16   10   14 1   
    17   10   29 1   
    18   11   12 1   
    19   11   16 1   
    20   11   30 1   
    21   12   13 1   
    22   12   31 1   
    23   13   32 1   
    24   14   15 1   
    25   15   33 1   
    26   15   34 1   
    27   15   35 1   
    28   16   36 1   
    29   17   18 1   
    30   17   37 1   
    31   17   46 1   
    32   18   19 1   
    33   18   20 1   
    34   19   38 1   
    35   19   39 1   
    36   20   40 1   
    37   20   47 1   
    38   21   41 1   
    39   21   42 1   
    40   21   43 1   
    41   21   45 1   
    42   22   45 1   
    43   23   44 1   
    44   23   45 1   
    45   23   48 1   
@<TRIPOS>SUBSTRUCTURE
     1 LNV         1 TEMP              0 ****  ****    0 ROOT
