@<TRIPOS>MOLECULE
LO1
   25    23     1     0     0
SMALL
bcc


@<TRIPOS>ATOM
      1 C1          1.0200    1.9280    0.7660 c1        1 LO1      0.429000
      2 O1          0.4450    1.3970   -0.1360 o         1 LO1     -0.214000
      3 OXT         1.5900    2.4560    1.6600 o         1 LO1     -0.214000
      4 C2         -0.7170   -3.1030   -0.6350 c1        1 LO1      0.155000
      5 O2         -0.5540   -3.9980    0.0970 o         1 LO1     -0.147000
      6 C1'        -1.3200   -0.1940   -3.6250 ca        1 LO1      0.188000
      7 C2'        -1.7490   -1.2930   -4.4320 ca        1 LO1     -0.230000
      8 C3'        -2.0980   -1.1000   -5.7520 ca        1 LO1     -0.030000
      9 C4'        -2.0480    0.1770   -6.3350 ca        1 LO1     -0.302000
     10 C5'        -1.6200    1.2650   -5.5570 ca        1 LO1     -0.030000
     11 C6'        -1.2650    1.0980   -4.2350 ca        1 LO1     -0.230000
     12 C          -2.3850    0.3620   -7.7590 c3        1 LO1     -0.040000
     13 N1         -3.8550    0.6770   -7.9160 n4        1 LO1     -0.081000
     14 N7         -0.9910   -0.3670   -2.3200 nh        1 LO1     -0.353000
     15 H2'        -1.7910   -2.3040   -3.9980 ha        1 LO1      0.154500
     16 H3'        -2.4080   -1.9670   -6.3590 ha        1 LO1      0.130000
     17 H5'        -1.5510    2.2680   -6.0110 ha        1 LO1      0.130000
     18 H6'        -0.9270    1.9650   -3.6460 ha        1 LO1      0.154500
     19 HC1        -1.8170    1.2250   -8.2120 hx        1 LO1      0.142000
     20 HC2        -2.1860   -0.5720   -8.3590 hx        1 LO1      0.142000
     21 H1N1       -4.0950    0.8070   -8.9010 hn        1 LO1      0.245000
     22 H1N2       -4.0810    1.5290   -7.3950 hn        1 LO1      0.245000
     23 H7         -0.6460    0.3950   -1.7870 hn        1 LO1      0.255500
     24 H13        -4.4130   -0.0900   -7.5290 hn        1 LO1      0.245000
     25 H72        -0.9790   -1.2780   -1.9170 hn        1 LO1      0.255500
@<TRIPOS>BOND
     1    1    2 1   
     2    1    3 1   
     3    4    5 1   
     4    6    7 1   
     5    6   11 1   
     6    6   14 1   
     7    7    8 1   
     8    7   15 1   
     9    8    9 1   
    10    8   16 1   
    11    9   10 1   
    12    9   12 1   
    13   10   11 1   
    14   10   17 1   
    15   11   18 1   
    16   12   13 1   
    17   12   19 1   
    18   12   20 1   
    19   13   21 1   
    20   13   22 1   
    21   13   24 1   
    22   14   23 1   
    23   14   25 1   
@<TRIPOS>SUBSTRUCTURE
     1 LO1         1 TEMP              0 ****  ****    0 ROOT
