@<TRIPOS>MOLECULE
LO1
   23    23     1     0     0
SMALL
bcc


@<TRIPOS>ATOM
      1 C1         -0.2570   -0.1150   -3.6930 c         1 LO1      0.888600
      2 O1         -1.3750    0.3930   -3.9560 o         1 LO1     -0.784800
      3 OXT         0.4480   -0.8490   -4.4180 o         1 LO1     -0.784800
      4 C2          0.3100    0.1870   -2.2550 c         1 LO1      0.538100
      5 O2          1.4490    0.6230   -2.0290 o         1 LO1     -0.619100
      6 C1'        -0.4330    0.0500    0.1530 ca        1 LO1      0.118600
      7 C2'        -1.5440   -0.1620    1.0150 ca        1 LO1     -0.203000
      8 C3'        -1.4060   -0.0660    2.3930 ca        1 LO1     -0.091500
      9 C4'        -0.1750    0.2450    2.9710 ca        1 LO1     -0.211300
     10 C5'         0.9240    0.4640    2.1330 ca        1 LO1     -0.091500
     11 C6'         0.8120    0.3710    0.7550 ca        1 LO1     -0.203000
     12 C          -0.0260    0.3540    4.4590 c3        1 LO1      0.206100
     13 N1          0.8270   -0.6290    5.0870 n3        1 LO1     -0.904800
     14 N7         -0.5980   -0.0860   -1.2160 n         1 LO1     -0.474100
     15 H2'        -2.5290   -0.4050    0.5900 ha        1 LO1      0.150000
     16 H3'        -2.2840   -0.2370    3.0340 ha        1 LO1      0.113000
     17 H5'         1.8980    0.7210    2.5760 ha        1 LO1      0.113000
     18 H6'         1.6950    0.5520    0.1190 ha        1 LO1      0.150000
     19 HC1        -1.0410    0.2830    4.9440 h1        1 LO1      0.044200
     20 HC2         0.3950    1.3720    4.7040 h1        1 LO1      0.044200
     21 H1N1        0.4660   -1.5510    4.9320 hn        1 LO1      0.339300
     22 H1N2        1.7470   -0.5910    4.6890 hn        1 LO1      0.339300
     23 H7         -1.5260   -0.2870   -1.5270 hn        1 LO1      0.323500
@<TRIPOS>BOND
     1    1    2 1   
     2    1    3 1   
     3    1    4 1   
     4    4    5 2   
     5    4   14 1   
     6    6    7 ar  
     7    6   11 ar  
     8    6   14 1   
     9    7    8 ar  
    10    7   15 1   
    11    8    9 ar  
    12    8   16 1   
    13    9   10 ar  
    14    9   12 1   
    15   10   11 ar  
    16   10   17 1   
    17   11   18 1   
    18   12   13 1   
    19   12   19 1   
    20   12   20 1   
    21   13   21 1   
    22   13   22 1   
    23   14   23 1   
@<TRIPOS>SUBSTRUCTURE
     1 LO1         1 TEMP              0 ****  ****    0 ROOT
