@<TRIPOS>MOLECULE
LO1
   23    19     1     0     0
SMALL
bcc


@<TRIPOS>ATOM
      1 C1          3.0280   -0.8000    3.6730 c1        1 LO1      0.591500
      2 O1          2.7670   -1.7280    4.4960 o         1 LO1     -0.731500
      3 OXT         3.9720    0.0080    3.9110 os        1 LO1     -0.541000
      4 C2          2.2960   -0.7450    2.3230 c2        1 LO1      0.564300
      5 O2          2.6850   -1.4310    1.3910 o         1 LO1     -0.645300
      6 C1'         0.4190    0.0940    0.9350 c1        1 LO1      0.132200
      7 C2'        -0.4340   -0.9570    0.6100 c1        1 LO1     -0.080000
      8 C3'        -1.1310   -0.9380   -0.5870 c1        1 LO1     -0.080000
      9 C4'        -0.9800    0.1310   -1.4650 c1        1 LO1     -0.177100
     10 C5'        -0.1310    1.1780   -1.1420 c1        1 LO1     -0.036500
     11 C6'         0.5710    1.1590    0.0630 c1        1 LO1     -0.163500
     12 C          -1.6880    0.1190   -2.7790 c3        1 LO1      0.171900
     13 N1         -2.7940    1.0290   -2.7360 n3        1 LO1     -0.903800
     14 N7          1.1220    0.0800    2.1700 n         1 LO1     -0.487700
     15 H2'        -0.5420   -1.7140    1.2310 ha        1 LO1      0.088000
     16 H3'        -1.7220   -1.6670   -0.8120 ha        1 LO1      0.088000
     17 H5'        -0.0230    1.9360   -1.7650 ha        1 LO1      0.052500
     18 H6'         1.1700    1.8970    0.2920 ha        1 LO1      0.067500
     19 HC1        -1.0720    0.3900   -3.4850 h1        1 LO1      0.045200
     20 HC2        -2.0230   -0.8020   -2.9660 h1        1 LO1      0.045200
     21 H1N1       -3.5810    0.5580   -2.7810 hn        1 LO1      0.338800
     22 H1N2       -2.7420    1.6060   -3.4450 hn        1 LO1      0.338800
     23 H7          0.8300    0.5960    2.8700 hn        1 LO1      0.323500
@<TRIPOS>BOND
     1    1    2 2   
     2    1    4 2   
     3    4    5 1   
     4    4   14 1   
     5    6   11 3   
     6    6   14 1   
     7    7    8 3   
     8    7   15 1   
     9    8   16 1   
    10    9   10 3   
    11    9   12 1   
    12   10   17 1   
    13   11   18 1   
    14   12   13 1   
    15   12   19 1   
    16   12   20 1   
    17   13   21 1   
    18   13   22 1   
    19   14   23 1   
@<TRIPOS>SUBSTRUCTURE
     1 LO1         1 TEMP              0 ****  ****    0 ROOT
