@<TRIPOS>MOLECULE
LO1
   24    24     1     0     0
SMALL
bcc


@<TRIPOS>ATOM
      1 C1         -0.0290    0.1740    0.2200 c         1 LO1      0.905600
      2 O1          1.1440    0.5760    0.1360 o         1 LO1     -0.746300
      3 OXT        -0.8420    0.2010    1.1680 o         1 LO1     -0.746300
      4 C2         -0.6070   -0.4410   -1.1350 c         1 LO1      0.517100
      5 O2         -0.0220   -1.2120   -1.8980 o         1 LO1     -0.577100
      6 C1'        -2.6790   -0.1630   -2.5570 ca        1 LO1      0.186600
      7 C2'        -3.9950    0.4070   -2.6420 ca        1 LO1     -0.224500
      8 C3'        -4.7360    0.3170   -3.7980 ca        1 LO1     -0.045000
      9 C4'        -4.2310   -0.3450   -4.9310 ca        1 LO1     -0.339300
     10 C5'        -2.9640   -0.9560   -4.8490 ca        1 LO1     -0.045000
     11 C6'        -2.2030   -0.8760   -3.7090 ca        1 LO1     -0.224500
     12 C          -5.0010   -0.4010   -6.1770 c3        1 LO1      0.221100
     13 N1         -4.5570    0.7360   -7.0850 nz        1 LO1     -0.862600
     14 N7         -1.9350    0.0060   -1.4340 ns        1 LO1     -0.442100
     15 H2'        -4.4170    0.9210   -1.7640 ha        1 LO1      0.172000
     16 H3'        -5.7430    0.7620   -3.8330 ha        1 LO1      0.116500
     17 H5'        -2.5790   -1.5180   -5.7150 ha        1 LO1      0.116500
     18 H6'        -1.2140   -1.3670   -3.6670 ha        1 LO1      0.172000
     19 HC1        -6.1060   -0.2660   -6.0070 hx        1 LO1      0.089700
     20 HC2        -4.8170   -1.3530   -6.7500 hx        1 LO1      0.089700
     21 H1N1       -3.5490    0.6530   -7.2500 hn        1 LO1      0.440800
     22 H1N2       -5.0530    0.7200   -7.9740 hn        1 LO1      0.440800
     23 H7         -2.3680    0.4880   -0.6660 hn        1 LO1      0.344500
     24 H13        -4.7250    1.6280   -6.6120 hn        1 LO1      0.440800
@<TRIPOS>BOND
     1    1    2 1   
     2    1    3 1   
     3    1    4 1   
     4    4    5 2   
     5    4   14 1   
     6    6    7 ar  
     7    6   11 ar  
     8    6   14 1   
     9    7    8 ar  
    10    7   15 1   
    11    8    9 ar  
    12    8   16 1   
    13    9   10 ar  
    14    9   12 1   
    15   10   11 ar  
    16   10   17 1   
    17   11   18 1   
    18   12   13 1   
    19   12   19 1   
    20   12   20 1   
    21   13   21 1   
    22   13   22 1   
    23   13   24 1   
    24   14   23 1   
@<TRIPOS>SUBSTRUCTURE
     1 LO1         1 TEMP              0 ****  ****    0 ROOT
