@<TRIPOS>MOLECULE
LO1
   24    24     1     0     0
SMALL
bcc


@<TRIPOS>ATOM
      1 C1         -0.0200    0.2250    0.2110 c         1 LO1      0.905600
      2 O1          1.1360    0.6710    0.1300 o         1 LO1     -0.746300
      3 OXT        -0.8300    0.2050    1.1620 o         1 LO1     -0.746300
      4 C2         -0.5810   -0.3890   -1.1530 c         1 LO1      0.517100
      5 O2          0.0290   -1.1240   -1.9310 o         1 LO1     -0.577100
      6 C1'        -2.6690   -0.1680   -2.5610 ca        1 LO1      0.186600
      7 C2'        -4.0070    0.3520   -2.6310 ca        1 LO1     -0.224500
      8 C3'        -4.7490    0.2530   -3.7840 ca        1 LO1     -0.045000
      9 C4'        -4.2250   -0.3690   -4.9300 ca        1 LO1     -0.339300
     10 C5'        -2.9350   -0.9320   -4.8650 ca        1 LO1     -0.045000
     11 C6'        -2.1720   -0.8420   -3.7260 ca        1 LO1     -0.224500
     12 C          -4.9980   -0.4350   -6.1730 c3        1 LO1      0.221100
     13 N1         -4.6040    0.7330   -7.0640 n4        1 LO1     -0.862600
     14 N7         -1.9270    0.0120   -1.4380 n         1 LO1     -0.442100
     15 H2'        -4.4430    0.8360   -1.7420 ha        1 LO1      0.172000
     16 H3'        -5.7730    0.6590   -3.8070 ha        1 LO1      0.116500
     17 H5'        -2.5330   -1.4650   -5.7420 ha        1 LO1      0.116500
     18 H6'        -1.1640   -1.2950   -3.6970 ha        1 LO1      0.172000
     19 HC1        -4.7810   -1.3690   -6.7640 hx        1 LO1      0.089700
     20 HC2        -6.1070   -0.3460   -5.9970 hx        1 LO1      0.089700
     21 H1N1       -3.5950    0.6930   -7.2360 hn        1 LO1      0.440800
     22 H1N2       -4.8030    1.6110   -6.5760 hn        1 LO1      0.440800
     23 H7         -2.3740    0.4640   -0.6600 hn        1 LO1      0.344500
     24 H13        -5.1040    0.7130   -7.9510 hn        1 LO1      0.440800
@<TRIPOS>BOND
     1    1    2 1   
     2    1    3 1   
     3    1    4 1   
     4    4    5 2   
     5    4   14 1   
     6    6    7 ar  
     7    6   11 ar  
     8    6   14 1   
     9    7    8 ar  
    10    7   15 1   
    11    8    9 ar  
    12    8   16 1   
    13    9   10 ar  
    14    9   12 1   
    15   10   11 ar  
    16   10   17 1   
    17   11   18 1   
    18   12   13 1   
    19   12   19 1   
    20   12   20 1   
    21   13   21 1   
    22   13   22 1   
    23   13   24 1   
    24   14   23 1   
@<TRIPOS>SUBSTRUCTURE
     1 LO1         1 TEMP              0 ****  ****    0 ROOT
