@<TRIPOS>MOLECULE
LO2
   57    58     1     0     0
SMALL
bcc


@<TRIPOS>ATOM
      1 C1          0.7300    0.2220   -0.7190 c3        1 LO2     -0.093100
      2 C2          2.1920    0.2920   -0.3620 c3        1 LO2     -0.079400
      3 C3          2.3980    0.2250    1.1360 c3        1 LO2     -0.109400
      4 C4          3.8920    0.2900    1.4620 c3        1 LO2      0.217800
      5 N5          4.2200    0.2300    2.8660 nh        1 LO2     -0.691000
      6 C6          4.3320   -1.0840    3.4500 c3        1 LO2      0.265100
      7 C7          5.6770   -1.7490    3.3080 ca        1 LO2     -0.078300
      8 C8          5.7170   -3.1100    3.0070 ca        1 LO2     -0.149000
      9 C9          6.9440   -3.7770    2.9110 ca        1 LO2      0.033400
     10 CL10        6.9390   -5.4340    2.5380 cl        1 LO2     -0.069400
     11 C11         8.1450   -3.0840    3.1250 ca        1 LO2      0.081100
     12 O12         9.3430   -3.7730    3.1640 os        1 LO2     -0.317900
     13 C13        10.2250   -3.4700    2.0810 c3        1 LO2      0.115700
     14 C14         8.0920   -1.6980    3.4170 ca        1 LO2      0.113100
     15 O15         9.3160   -1.0830    3.5760 os        1 LO2     -0.318900
     16 C16         9.2890    0.2770    3.9980 c3        1 LO2      0.110700
     17 C17         6.8640   -1.0390    3.5100 ca        1 LO2     -0.182000
     18 C18         4.2670    1.3770    3.6470 ca        1 LO2      0.231600
     19 C19         4.8310    1.3610    4.9520 ca        1 LO2     -0.218500
     20 C20         4.8910    2.5150    5.7170 ca        1 LO2     -0.037500
     21 C21         4.4090    3.7340    5.2230 ca        1 LO2     -0.193300
     22 C22         3.8520    3.7680    3.9390 ca        1 LO2     -0.037500
     23 C23         3.7760    2.6200    3.1650 ca        1 LO2     -0.218500
     24 C24         4.4880    4.9710    6.0540 c3        1 LO2      0.183100
     25 O25         3.9460    6.0570    5.3400 oh        1 LO2     -0.552800
     26 C26         3.6610    4.8240    7.4080 c3        1 LO2      0.597400
     27 F27         3.5230    6.0290    8.0520 f         1 LO2     -0.222967
     28 F28         2.3810    4.3820    7.2240 f         1 LO2     -0.222967
     29 F29         4.2100    3.9810    8.3340 f         1 LO2     -0.222967
     30 C30         5.9970    5.3380    6.4140 c3        1 LO2      0.597400
     31 F31         6.8320    5.3560    5.3320 f         1 LO2     -0.222967
     32 F32         6.0990    6.5990    6.9510 f         1 LO2     -0.222967
     33 F33         6.5950    4.5110    7.3230 f         1 LO2     -0.222967
     34 H1          0.2800   -0.7330   -0.3560 hc        1 LO2      0.035700
     35 H1A         0.5990    0.2750   -1.8270 hc        1 LO2      0.035700
     36 H1B         0.1700    1.0710   -0.2560 hc        1 LO2      0.035700
     37 H2          2.6320    1.2460   -0.7590 hc        1 LO2      0.040200
     38 H2A         2.7410   -0.5540   -0.8550 hc        1 LO2      0.040200
     39 H3          1.8550    1.0720    1.6310 hc        1 LO2      0.049200
     40 H3A         1.9600   -0.7280    1.5340 hc        1 LO2      0.049200
     41 H4          4.4060   -0.5780    0.9550 h1        1 LO2      0.056200
     42 H4A         4.3230    1.2360    1.0250 h1        1 LO2      0.056200
     43 H6          3.5530   -1.7440    2.9630 h1        1 LO2      0.062700
     44 H6A         4.0830   -1.0390    4.5510 h1        1 LO2      0.062700
     45 H8          4.7820   -3.6690    2.8440 ha        1 LO2      0.148000
     46 H13         9.7550   -3.7500    1.1080 h1        1 LO2      0.045700
     47 H13A       10.4980   -2.3870    2.0910 h1        1 LO2      0.045700
     48 H13B       11.1190   -4.1100    2.2910 h1        1 LO2      0.045700
     49 H16         8.7480    0.3800    4.9700 h1        1 LO2      0.049367
     50 H16A        8.8200    0.9210    3.2160 h1        1 LO2      0.049367
     51 H16B       10.3730    0.5290    4.1210 h1        1 LO2      0.049367
     52 H17         6.8240    0.0360    3.7440 ha        1 LO2      0.154000
     53 H19         5.2400    0.4310    5.3770 ha        1 LO2      0.143500
     54 H20         5.3320    2.4720    6.7280 ha        1 LO2      0.151500
     55 H22         3.4630    4.7190    3.5380 ha        1 LO2      0.151500
     56 H23         3.3130    2.6920    2.1690 ha        1 LO2      0.143500
     57 HO25        4.0070    6.8450    5.9050 ho        1 LO2      0.438000
@<TRIPOS>BOND
     1    1    2 1   
     2    1   34 1   
     3    1   35 1   
     4    1   36 1   
     5    2    3 1   
     6    2   37 1   
     7    2   38 1   
     8    3    4 1   
     9    3   39 1   
    10    3   40 1   
    11    4    5 1   
    12    4   41 1   
    13    4   42 1   
    14    5    6 1   
    15    5   18 1   
    16    6    7 1   
    17    6   43 1   
    18    6   44 1   
    19    7    8 ar  
    20    7   17 ar  
    21    8    9 ar  
    22    8   45 1   
    23    9   10 1   
    24    9   11 ar  
    25   11   12 1   
    26   11   14 ar  
    27   12   13 1   
    28   13   46 1   
    29   13   47 1   
    30   13   48 1   
    31   14   15 1   
    32   14   17 ar  
    33   15   16 1   
    34   16   49 1   
    35   16   50 1   
    36   16   51 1   
    37   17   52 1   
    38   18   19 ar  
    39   18   23 ar  
    40   19   20 ar  
    41   19   53 1   
    42   20   21 ar  
    43   20   54 1   
    44   21   22 ar  
    45   21   24 1   
    46   22   23 ar  
    47   22   55 1   
    48   23   56 1   
    49   24   25 1   
    50   24   26 1   
    51   24   30 1   
    52   25   57 1   
    53   26   27 1   
    54   26   28 1   
    55   26   29 1   
    56   30   31 1   
    57   30   32 1   
    58   30   33 1   
@<TRIPOS>SUBSTRUCTURE
     1 LO2         1 TEMP              0 ****  ****    0 ROOT
