@<TRIPOS>MOLECULE
LO2
   58    59     1     0     0
SMALL
bcc


@<TRIPOS>ATOM
      1 C1         -0.3190    0.2200    0.7270 c3        1 LO2     -0.099100
      2 C2          1.0820    0.3910    0.1980 c3        1 LO2     -0.079400
      3 C3          2.0910    0.3850    1.3330 c3        1 LO2     -0.102400
      4 C4          3.4850    0.6060    0.7640 c3        1 LO2      0.113800
      5 N5          4.6240    0.4250    1.7280 n4        1 LO2     -0.566800
      6 C6          4.6410   -0.9570    2.3440 c3        1 LO2      0.186100
      7 C7          6.0350   -1.4220    2.5910 ca        1 LO2     -0.177300
      8 C8          6.8250   -1.8150    1.5100 ca        1 LO2     -0.121000
      9 C9          8.1290   -2.2730    1.7170 ca        1 LO2      0.002400
     10 CL10        9.0370   -2.7350    0.3650 cl        1 LO2     -0.024400
     11 C11         8.6590   -2.3430    3.0250 ca        1 LO2      0.167100
     12 O12         9.9680   -2.7240    3.1240 os        1 LO2     -0.300900
     13 C13        10.4130   -3.3140    4.3490 c3        1 LO2      0.120700
     14 C14         7.8360   -1.9490    4.1160 ca        1 LO2      0.082100
     15 O15         8.4100   -2.0340    5.3660 os        1 LO2     -0.319900
     16 C16         7.5590   -1.7850    6.4830 c3        1 LO2      0.107700
     17 C17         6.5360   -1.4910    3.8950 ca        1 LO2     -0.142000
     18 C18         4.6750    1.4990    2.7330 ca        1 LO2     -0.009400
     19 C19         5.6850    2.4750    2.6280 ca        1 LO2     -0.111500
     20 C20         5.7540    3.5000    3.5670 ca        1 LO2     -0.067500
     21 C21         4.8270    3.5680    4.6140 ca        1 LO2     -0.068300
     22 C22         3.8250    2.5960    4.7160 ca        1 LO2     -0.067500
     23 C23         3.7460    1.5620    3.7840 ca        1 LO2     -0.111500
     24 C24         4.9100    4.6770    5.6240 c3        1 LO2      0.133100
     25 O25         3.8710    4.5200    6.5590 oh        1 LO2     -0.556800
     26 C26         6.2930    4.6300    6.4160 c3        1 LO2      0.609400
     27 F27         6.2750    5.4550    7.5080 f         1 LO2     -0.210633
     28 F28         6.5870    3.3880    6.9060 f         1 LO2     -0.210633
     29 F29         7.3820    5.0020    5.6780 f         1 LO2     -0.210633
     30 C30         4.7390    6.1030    4.9310 c3        1 LO2      0.609400
     31 F31         3.6550    6.1670    4.0990 f         1 LO2     -0.210633
     32 F32         4.5440    7.0900    5.8580 f         1 LO2     -0.210633
     33 F33         5.8070    6.4960    4.1760 f         1 LO2     -0.210633
     34 H1         -0.5860    1.0530    1.4220 hc        1 LO2      0.050033
     35 H1A        -1.0470    0.2220   -0.1210 hc        1 LO2      0.050033
     36 H1B        -0.4210   -0.7470    1.2760 hc        1 LO2      0.050033
     37 H2          1.1570    1.3580   -0.3670 hc        1 LO2      0.053700
     38 H2A         1.3170   -0.4370   -0.5220 hc        1 LO2      0.053700
     39 H3          1.8350    1.2030    2.0580 hc        1 LO2      0.064700
     40 H3A         2.0320   -0.5920    1.8800 hc        1 LO2      0.064700
     41 H4          3.5590    1.6560    0.3580 hx        1 LO2      0.099700
     42 H4A         3.6640   -0.1230   -0.0800 hx        1 LO2      0.099700
     43 H6          4.0430   -0.9350    3.2980 hx        1 LO2      0.104200
     44 H6A         4.1290   -1.6510    1.6140 hx        1 LO2      0.104200
     45 H8          6.4200   -1.7920    0.4860 ha        1 LO2      0.144000
     46 H13        10.5900   -2.5130    5.1070 h1        1 LO2      0.063367
     47 H13A       11.3760   -3.8040    4.0510 h1        1 LO2      0.063367
     48 H13B        9.6780   -4.0640    4.7260 h1        1 LO2      0.063367
     49 H16         6.6870   -2.4820    6.4810 h1        1 LO2      0.056367
     50 H16A        8.2290   -1.9880    7.3590 h1        1 LO2      0.056367
     51 H16B        7.2210   -0.7210    6.4870 h1        1 LO2      0.056367
     52 H17         5.9040   -1.1850    4.7420 ha        1 LO2      0.149000
     53 H19         6.4340    2.4480    1.8180 ha        1 LO2      0.161500
     54 H20         6.5500    4.2640    3.4810 ha        1 LO2      0.188500
     55 H22         3.0890    2.6440    5.5400 ha        1 LO2      0.188500
     56 H23         2.9450    0.8120    3.8920 ha        1 LO2      0.161500
     57 HO25        3.9300    5.2490    7.2020 ho        1 LO2      0.458000
     58 H51         5.4910    0.5020    1.1680 hn        1 LO2      0.454800
@<TRIPOS>BOND
     1    1    2 1   
     2    1   34 1   
     3    1   35 1   
     4    1   36 1   
     5    2    3 1   
     6    2   37 1   
     7    2   38 1   
     8    3    4 1   
     9    3   39 1   
    10    3   40 1   
    11    4    5 1   
    12    4   41 1   
    13    4   42 1   
    14    5    6 1   
    15    5   18 1   
    16    5   58 1   
    17    6    7 1   
    18    6   43 1   
    19    6   44 1   
    20    7    8 ar  
    21    7   17 ar  
    22    8    9 ar  
    23    8   45 1   
    24    9   10 1   
    25    9   11 ar  
    26   11   12 1   
    27   11   14 ar  
    28   12   13 1   
    29   13   46 1   
    30   13   47 1   
    31   13   48 1   
    32   14   15 1   
    33   14   17 ar  
    34   15   16 1   
    35   16   49 1   
    36   16   50 1   
    37   16   51 1   
    38   17   52 1   
    39   18   19 ar  
    40   18   23 ar  
    41   19   20 ar  
    42   19   53 1   
    43   20   21 ar  
    44   20   54 1   
    45   21   22 ar  
    46   21   24 1   
    47   22   23 ar  
    48   22   55 1   
    49   23   56 1   
    50   24   25 1   
    51   24   26 1   
    52   24   30 1   
    53   25   57 1   
    54   26   27 1   
    55   26   28 1   
    56   26   29 1   
    57   30   31 1   
    58   30   32 1   
    59   30   33 1   
@<TRIPOS>SUBSTRUCTURE
     1 LO2         1 TEMP              0 ****  ****    0 ROOT
