@<TRIPOS>MOLECULE
LO2
   57    58     1     0     0
SMALL
bcc


@<TRIPOS>ATOM
      1 C1         -1.8610    6.5080   -1.1270 c3        1 LO2     -0.093100
      2 C2         -1.9940    5.0350   -1.4200 c3        1 LO2     -0.079400
      3 C3         -1.3800    4.1980   -0.3180 c3        1 LO2     -0.107400
      4 C4         -1.5370    2.7100   -0.6450 c3        1 LO2      0.217800
      5 N5         -0.9970    1.8080    0.3450 nh        1 LO2     -0.691000
      6 C6         -1.8750    1.4230    1.4210 c3        1 LO2      0.266100
      7 C7         -2.8330    0.3000    1.1190 ca        1 LO2     -0.082300
      8 C8         -4.1470    0.4060    1.5770 ca        1 LO2     -0.148000
      9 C9         -5.0580   -0.6350    1.3590 ca        1 LO2      0.033400
     10 CL10       -6.6450   -0.4560    1.9340 cl        1 LO2     -0.068400
     11 C11        -4.6550   -1.7980    0.6860 ca        1 LO2      0.082100
     12 O12        -5.5150   -2.8760    0.5940 os        1 LO2     -0.317900
     13 C13        -5.9600   -3.1560   -0.7350 c3        1 LO2      0.115700
     14 C14        -3.3210   -1.8880    0.2140 ca        1 LO2      0.113100
     15 O15        -3.0170   -3.0460   -0.4710 os        1 LO2     -0.318900
     16 C16        -1.6510   -3.2220   -0.8360 c3        1 LO2      0.110700
     17 C17        -2.4180   -0.8450    0.4330 ca        1 LO2     -0.184000
     18 C18         0.3200    1.3770    0.2860 ca        1 LO2      0.233600
     19 C19         0.7800    0.2780    1.0620 ca        1 LO2     -0.216500
     20 C20         2.0980   -0.1420    0.9950 ca        1 LO2     -0.044500
     21 C21         3.0230    0.4980    0.1600 ca        1 LO2     -0.228300
     22 C22         2.5790    1.5690   -0.6260 ca        1 LO2     -0.044500
     23 C23         1.2670    2.0100   -0.5660 ca        1 LO2     -0.216500
     24 C24         4.4410    0.0370    0.0760 c3        1 LO2      0.168100
     25 O25         5.2540    0.8640   -0.7300 oh        1 LO2     -0.556800
     26 C26         5.1380   -0.0160    1.5080 c3        1 LO2      0.624400
     27 F27         6.4640   -0.3510    1.4430 f         1 LO2     -0.221300
     28 F28         5.1220    1.2040    2.1330 f         1 LO2     -0.221300
     29 F29         4.5940   -0.8960    2.4010 f         1 LO2     -0.221300
     30 C30         4.5510   -1.3850   -0.6220 c3        1 LO2      0.624400
     31 F31         3.9890   -1.4220   -1.8680 f         1 LO2     -0.221300
     32 F32         5.8400   -1.8070   -0.7980 f         1 LO2     -0.221300
     33 F33         3.9400   -2.3900    0.0810 f         1 LO2     -0.221300
     34 H1         -2.3180    7.1080   -1.9500 hc        1 LO2      0.036033
     35 H1A        -2.3790    6.7680   -0.1720 hc        1 LO2      0.036033
     36 H1B        -0.7870    6.7970   -1.0330 hc        1 LO2      0.036033
     37 H2         -3.0780    4.7700   -1.5340 hc        1 LO2      0.040700
     38 H2A        -1.4910    4.7990   -2.3950 hc        1 LO2      0.040700
     39 H3         -0.2960    4.4570   -0.2040 hc        1 LO2      0.049200
     40 H3A        -1.8820    4.4310    0.6570 hc        1 LO2      0.049200
     41 H4         -2.6380    2.4820   -0.7530 h1        1 LO2      0.056200
     42 H4A        -1.0540    2.4990   -1.6420 h1        1 LO2      0.056200
     43 H6         -1.2660    1.1280    2.3260 h1        1 LO2      0.064200
     44 H6A        -2.4750    2.3380    1.7110 h1        1 LO2      0.064200
     45 H8         -4.4750    1.3090    2.1150 ha        1 LO2      0.148000
     46 H13        -6.6280   -4.0430   -0.6010 h1        1 LO2      0.046367
     47 H13A       -6.5300   -2.2880   -1.1440 h1        1 LO2      0.046367
     48 H13B       -5.0930   -3.4050   -1.3930 h1        1 LO2      0.046367
     49 H16        -1.6400   -4.2400   -1.3040 h1        1 LO2      0.049367
     50 H16A       -1.3390   -2.4460   -1.5760 h1        1 LO2      0.049367
     51 H16B       -0.9920   -3.1960    0.0650 h1        1 LO2      0.049367
     52 H17        -1.3810   -0.9190    0.0720 ha        1 LO2      0.153000
     53 H19         0.0910   -0.2700    1.7240 ha        1 LO2      0.144500
     54 H20         2.4180   -1.0060    1.6030 ha        1 LO2      0.146500
     55 H22         3.2760    2.0710   -1.3180 ha        1 LO2      0.146500
     56 H23         0.9730    2.8680   -1.1880 ha        1 LO2      0.144500
     57 HO25        5.2280    1.7540   -0.3470 ho        1 LO2      0.436000
@<TRIPOS>BOND
     1    1    2 1   
     2    1   34 1   
     3    1   35 1   
     4    1   36 1   
     5    2    3 1   
     6    2   37 1   
     7    2   38 1   
     8    3    4 1   
     9    3   39 1   
    10    3   40 1   
    11    4    5 1   
    12    4   41 1   
    13    4   42 1   
    14    5    6 1   
    15    5   18 1   
    16    6    7 1   
    17    6   43 1   
    18    6   44 1   
    19    7    8 ar  
    20    7   17 ar  
    21    8    9 ar  
    22    8   45 1   
    23    9   10 1   
    24    9   11 ar  
    25   11   12 1   
    26   11   14 ar  
    27   12   13 1   
    28   13   46 1   
    29   13   47 1   
    30   13   48 1   
    31   14   15 1   
    32   14   17 ar  
    33   15   16 1   
    34   16   49 1   
    35   16   50 1   
    36   16   51 1   
    37   17   52 1   
    38   18   19 ar  
    39   18   23 ar  
    40   19   20 ar  
    41   19   53 1   
    42   20   21 ar  
    43   20   54 1   
    44   21   22 ar  
    45   21   24 1   
    46   22   23 ar  
    47   22   55 1   
    48   23   56 1   
    49   24   25 1   
    50   24   26 1   
    51   24   30 1   
    52   25   57 1   
    53   26   27 1   
    54   26   28 1   
    55   26   29 1   
    56   30   31 1   
    57   30   32 1   
    58   30   33 1   
@<TRIPOS>SUBSTRUCTURE
     1 LO2         1 TEMP              0 ****  ****    0 ROOT
