@<TRIPOS>MOLECULE
LO2
   57    58     1     0     0
SMALL
bcc


@<TRIPOS>ATOM
      1 C1          0.6410    0.2030   -0.6170 c3        1 LO2     -0.093100
      2 C2          2.1110    0.2780   -0.2940 c3        1 LO2     -0.079400
      3 C3          2.3510    0.2140    1.2000 c3        1 LO2     -0.109400
      4 C4          3.8520    0.2840    1.4910 c3        1 LO2      0.217800
      5 N5          4.2130    0.2280    2.8880 nh        1 LO2     -0.691000
      6 C6          4.3390   -1.0840    3.4730 c3        1 LO2      0.265100
      7 C7          5.6810   -1.7470    3.3020 ca        1 LO2     -0.078300
      8 C8          5.7160   -3.1100    3.0040 ca        1 LO2     -0.149000
      9 C9          6.9420   -3.7760    2.8830 ca        1 LO2      0.033400
     10 Cl10        6.9300   -5.4330    2.5140 cl        1 LO2     -0.069400
     11 C11         8.1460   -3.0810    3.0710 ca        1 LO2      0.081100
     12 O12         9.3450   -3.7680    3.0860 os        1 LO2     -0.317900
     13 C13        10.2040   -3.4670    1.9840 c3        1 LO2      0.115700
     14 C14         8.0970   -1.6940    3.3600 ca        1 LO2      0.113100
     15 O15         9.3240   -1.0770    3.4910 os        1 LO2     -0.318900
     16 C16         9.3040    0.2840    3.9120 c3        1 LO2      0.110700
     17 C17         6.8710   -1.0360    3.4780 ca        1 LO2     -0.182000
     18 C18         4.2720    1.3780    3.6650 ca        1 LO2      0.230600
     19 C19         4.8650    1.3660    4.9570 ca        1 LO2     -0.218500
     20 C20         4.9390    2.5210    5.7180 ca        1 LO2     -0.037500
     21 C21         4.4410    3.7370    5.2330 ca        1 LO2     -0.193300
     22 C22         3.8560    3.7670    3.9620 ca        1 LO2     -0.037500
     23 C23         3.7660    2.6180    3.1920 ca        1 LO2     -0.218500
     24 C24         4.5350    4.9770    6.0590 c3        1 LO2      0.183100
     25 O25         3.9710    6.0590    5.3560 oh        1 LO2     -0.552800
     26 C26         3.7400    4.8290    7.4330 c3        1 LO2      0.597400
     27 F27         3.6110    6.0350    8.0770 f         1 LO2     -0.222967
     28 F28         2.4580    4.3810    7.2800 f         1 LO2     -0.222967
     29 F29         4.3140    3.9910    8.3480 f         1 LO2     -0.222967
     30 C30         6.0500    5.3510    6.3830 c3        1 LO2      0.597400
     31 F31         6.8590    5.3700    5.2820 f         1 LO2     -0.222967
     32 F32         6.1590    6.6120    6.9160 f         1 LO2     -0.222967
     33 F33         6.6720    4.5270    7.2790 f         1 LO2     -0.222967
     34 H1          0.4840    0.2530   -1.7210 hc        1 LO2      0.036033
     35 H1A         0.2030   -0.7540   -0.2420 hc        1 LO2      0.036033
     36 H1B         0.0890    1.0500   -0.1420 hc        1 LO2      0.036033
     37 H2          2.6510   -0.5680   -0.7980 hc        1 LO2      0.040200
     38 H2A         2.5380    1.2320   -0.7020 hc        1 LO2      0.040200
     39 H3          1.9250   -0.7390    1.6090 hc        1 LO2      0.049200
     40 H3A         1.8170    1.0600    1.7060 hc        1 LO2      0.049200
     41 H4          4.2700    1.2300    1.0420 h1        1 LO2      0.056200
     42 H4A         4.3570   -0.5840    0.9750 h1        1 LO2      0.056200
     43 H6          4.1130   -1.0370    4.5790 h1        1 LO2      0.062700
     44 H6A         3.5500   -1.7470    3.0040 h1        1 LO2      0.062700
     45 H8          4.7790   -3.6700    2.8620 ha        1 LO2      0.148000
     46 H13        10.4760   -2.3840    1.9850 h1        1 LO2      0.045700
     47 H13A        9.7140   -3.7490    1.0210 h1        1 LO2      0.045700
     48 H13B       11.1030   -4.1050    2.1750 h1        1 LO2      0.045700
     49 H16         8.7840    0.3880    4.8940 h1        1 LO2      0.049367
     50 H16A        8.8180    0.9260    3.1380 h1        1 LO2      0.049367
     51 H16B       10.3910    0.5370    4.0110 h1        1 LO2      0.049367
     52 H17         6.8340    0.0400    3.7100 ha        1 LO2      0.154000
     53 H19         5.2870    0.4380    5.3740 ha        1 LO2      0.143500
     54 H20         5.4020    2.4820    6.7190 ha        1 LO2      0.151500
     55 H22         3.4540    4.7160    3.5670 ha        1 LO2      0.151500
     56 H23         3.2810    2.6860    2.2060 ha        1 LO2      0.143500
     57 HO25        4.0430    6.8480    5.9180 ho        1 LO2      0.438000
@<TRIPOS>BOND
     1    1    2 1   
     2    1   34 1   
     3    1   35 1   
     4    1   36 1   
     5    2    3 1   
     6    2   37 1   
     7    2   38 1   
     8    3    4 1   
     9    3   39 1   
    10    3   40 1   
    11    4    5 1   
    12    4   41 1   
    13    4   42 1   
    14    5    6 1   
    15    5   18 1   
    16    6    7 1   
    17    6   43 1   
    18    6   44 1   
    19    7    8 ar  
    20    7   17 ar  
    21    8    9 ar  
    22    8   45 1   
    23    9   10 1   
    24    9   11 ar  
    25   11   12 1   
    26   11   14 ar  
    27   12   13 1   
    28   13   46 1   
    29   13   47 1   
    30   13   48 1   
    31   14   15 1   
    32   14   17 ar  
    33   15   16 1   
    34   16   49 1   
    35   16   50 1   
    36   16   51 1   
    37   17   52 1   
    38   18   19 ar  
    39   18   23 ar  
    40   19   20 ar  
    41   19   53 1   
    42   20   21 ar  
    43   20   54 1   
    44   21   22 ar  
    45   21   24 1   
    46   22   23 ar  
    47   22   55 1   
    48   23   56 1   
    49   24   25 1   
    50   24   26 1   
    51   24   30 1   
    52   25   57 1   
    53   26   27 1   
    54   26   28 1   
    55   26   29 1   
    56   30   31 1   
    57   30   32 1   
    58   30   33 1   
@<TRIPOS>SUBSTRUCTURE
     1 LO2         1 TEMP              0 ****  ****    0 ROOT
