@<TRIPOS>MOLECULE
LOA
   71    74     1     0     0
SMALL
bcc


@<TRIPOS>ATOM
      1 C1         -0.5980   -3.1730    0.4590 c3        1 LOA     -0.080400
      2 C2          1.2040   -3.4670    0.0740 c3        1 LOA     -0.073400
      3 C3          2.1860   -3.5800    1.3680 c3        1 LOA      0.102100
      4 O3          2.4430   -2.3540    1.8810 os        1 LOA     -0.448900
      5 C4          2.1850   -3.5810    1.3680 c3        1 LOA     -0.023400
      6 C5          0.0760   -3.0040    2.1120 c3        1 LOA     -0.047700
      7 C6          0.0270   -1.9500    2.9330 c3        1 LOA     -0.067400
      8 C7          0.4490   -0.5430    2.2180 c3        1 LOA     -0.078400
      9 C8         -0.2240   -0.2930    1.1100 c3        1 LOA     -0.045700
     10 C9         -0.1960   -1.4320    0.1260 c3        1 LOA     -0.043700
     11 C10        -0.6720   -2.7860    0.7960 c3        1 LOA     -0.039000
     12 C11        -1.0360   -1.1420   -1.1450 c3        1 LOA     -0.073400
     13 C12        -0.7480   -0.0350   -1.6400 c3        1 LOA     -0.065400
     14 C13        -0.8260    0.9690   -0.7070 c3        1 LOA     -0.047000
     15 C14         0.0490    0.6150    0.6890 c3        1 LOA     -0.067700
     16 C15        -0.2500    1.7360    1.4930 c3        1 LOA     -0.073400
     17 C16        -0.1220    2.9900    0.3840 c3        1 LOA     -0.080400
     18 C17        -0.2570    2.1380   -1.1310 c3        1 LOA     -0.047700
     19 C18        -2.3470    1.2420   -0.3270 c3        1 LOA     -0.080100
     20 C19        -2.2310   -2.6770    1.0380 c3        1 LOA     -0.083100
     21 C20        -1.1410    2.8280   -2.0610 c3        1 LOA     -0.061700
     22 C21        -0.6550    2.5880   -3.5020 c3        1 LOA     -0.086100
     23 C22        -1.1270    4.3270   -1.7750 c3        1 LOA     -0.068400
     24 C23        -2.0620    5.0520   -2.7480 c3        1 LOA     -0.195400
     25 C24        -2.0150    6.5620   -2.4610 c         1 LOA      0.907600
     26 C25         5.5050   -2.4890    0.8410 c3        1 LOA     -0.150100
     27 C26         4.2290   -2.0850    2.1710 c         1 LOA      0.630100
     28 OT1        -1.2230    7.2920   -3.0910 o         1 LOA     -0.852300
     29 OT2        -2.8510    7.0740   -1.6730 o         1 LOA     -0.852300
     30 O25         4.5790   -1.7750    3.1740 o         1 LOA     -0.543000
     31 H1         -1.1800   -2.9230   -0.5650 hc        1 LOA      0.042200
     32 H2         -1.1010   -4.2650    0.9780 hc        1 LOA      0.042200
     33 H3          1.3170   -4.7140   -0.6510 hc        1 LOA      0.042700
     34 H4          1.7170   -2.3020   -0.8320 hc        1 LOA      0.042700
     35 H5          3.2040   -4.0470    0.9800 h1        1 LOA      0.063700
     36 H6          2.8400   -3.5410    2.1870 hc        1 LOA      0.055200
     37 H7          2.1880   -4.6400    0.9730 hc        1 LOA      0.055200
     38 H8         -0.3460   -3.8630    2.6490 hc        1 LOA      0.038700
     39 H9          0.6620   -2.1260    3.7410 hc        1 LOA      0.037200
     40 H10        -1.0200   -1.8490    3.3130 hc        1 LOA      0.037200
     41 H11         0.2680    0.2730    2.9350 hc        1 LOA      0.045200
     42 H12         1.4100   -0.5760    2.0060 hc        1 LOA      0.045200
     43 H13        -1.1540   -0.1860    1.3770 hc        1 LOA      0.052700
     44 H14         0.6770   -1.5500   -0.1450 hc        1 LOA      0.044700
     45 H15        -0.8420   -1.8150   -1.7830 hc        1 LOA      0.034200
     46 H16        -2.0350   -1.1700   -0.9190 hc        1 LOA      0.034200
     47 H17         0.1180   -0.0760   -1.9780 hc        1 LOA      0.042700
     48 H18        -1.3660    0.1680   -2.3680 hc        1 LOA      0.042700
     49 H19         1.0640    0.6040    0.4710 hc        1 LOA      0.043700
     50 H20        -1.1480    1.6680    1.8620 hc        1 LOA      0.033700
     51 H21         0.4470    1.8550    2.2400 hc        1 LOA      0.033700
     52 H22         0.7480    3.4290    0.4570 hc        1 LOA      0.056700
     53 H23        -0.8720    3.6540    0.4960 hc        1 LOA      0.056700
     54 H24         0.6690    1.9560   -1.5510 hc        1 LOA      0.042700
     55 H25        -2.5910    0.6880    0.4300 hc        1 LOA      0.033033
     56 H26        -2.9350    1.0150   -1.1160 hc        1 LOA      0.033033
     57 H27        -2.4730    2.2380   -0.0820 hc        1 LOA      0.033033
     58 H28        -2.4510   -1.7830    1.3540 hc        1 LOA      0.034367
     59 H29        -2.5600   -3.4830    1.8370 hc        1 LOA      0.034367
     60 H30        -2.6860   -2.8330    0.2320 hc        1 LOA      0.034367
     61 H31        -2.0550    2.4850   -1.9540 hc        1 LOA      0.043700
     62 H32        -0.0740    1.8200   -3.5220 hc        1 LOA      0.025033
     63 H33        -0.1710    3.3720   -3.8130 hc        1 LOA      0.025033
     64 H34        -1.4240    2.4290   -4.0860 hc        1 LOA      0.025033
     65 H35        -1.4360    4.4850   -0.8540 hc        1 LOA      0.047700
     66 H36        -0.2120    4.6690   -1.8810 hc        1 LOA      0.047700
     67 H37        -3.0050    4.7170   -2.6210 hc        1 LOA      0.019700
     68 H38        -1.7810    4.8900   -3.6470 hc        1 LOA      0.019700
     69 H39         6.1620   -1.7710    0.8220 hc        1 LOA      0.072367
     70 H40         5.9980   -3.3910    1.0660 hc        1 LOA      0.072367
     71 H41         5.0770   -2.5600   -0.0110 hc        1 LOA      0.072367
@<TRIPOS>BOND
     1    1    2 1   
     2    1   11 1   
     3    1   31 1   
     4    1   32 1   
     5    2    3 1   
     6    2   33 1   
     7    2   34 1   
     8    3    4 1   
     9    3    5 1   
    10    3   35 1   
    11    4   27 1   
    12    5    6 1   
    13    5   36 1   
    14    5   37 1   
    15    6    7 1   
    16    6   11 1   
    17    6   38 1   
    18    7    8 1   
    19    7   39 1   
    20    7   40 1   
    21    8    9 1   
    22    8   41 1   
    23    8   42 1   
    24    9   10 1   
    25    9   15 1   
    26    9   43 1   
    27   10   11 1   
    28   10   12 1   
    29   10   44 1   
    30   11   20 1   
    31   12   13 1   
    32   12   45 1   
    33   12   46 1   
    34   13   14 1   
    35   13   47 1   
    36   13   48 1   
    37   14   15 1   
    38   14   18 1   
    39   14   19 1   
    40   15   16 1   
    41   15   49 1   
    42   16   17 1   
    43   16   50 1   
    44   16   51 1   
    45   17   18 1   
    46   17   52 1   
    47   17   53 1   
    48   18   21 1   
    49   18   54 1   
    50   19   55 1   
    51   19   56 1   
    52   19   57 1   
    53   20   58 1   
    54   20   59 1   
    55   20   60 1   
    56   21   22 1   
    57   21   23 1   
    58   21   61 1   
    59   22   62 1   
    60   22   63 1   
    61   22   64 1   
    62   23   24 1   
    63   23   65 1   
    64   23   66 1   
    65   24   25 1   
    66   24   67 1   
    67   24   68 1   
    68   25   28 1   
    69   25   29 1   
    70   26   27 1   
    71   26   69 1   
    72   26   70 1   
    73   26   71 1   
    74   27   30 2   
@<TRIPOS>SUBSTRUCTURE
     1 LOA         1 TEMP              0 ****  ****    0 ROOT
