@<TRIPOS>MOLECULE
LOA
   71    74     1     0     0
SMALL
bcc


@<TRIPOS>ATOM
      1 C1         -3.5710   -0.3970    1.8530 c3        1 LOA     -0.070400
      2 C2         -4.1470    0.7820    1.1050 c3        1 LOA     -0.099400
      3 C3         -4.9460    0.2920   -0.0940 c3        1 LOA      0.151100
      4 O3         -5.3520    1.4210   -0.8980 os        1 LOA     -0.439900
      5 C4         -4.0850   -0.5680   -1.0090 c3        1 LOA     -0.078400
      6 C5         -3.4810   -1.7410   -0.2490 c3        1 LOA     -0.048700
      7 C6         -2.6370   -2.5830   -1.1950 c3        1 LOA     -0.071400
      8 C7         -1.3490   -1.8980   -1.5920 c3        1 LOA     -0.074400
      9 C8         -0.5440   -1.4840   -0.3720 c3        1 LOA     -0.047700
     10 C9         -1.3850   -0.5970    0.5630 c3        1 LOA     -0.046700
     11 C10        -2.6790   -1.3070    0.9960 c3        1 LOA     -0.036000
     12 C11        -0.5560   -0.0970    1.7410 c3        1 LOA     -0.072400
     13 C12         0.7520    0.5650    1.3360 c3        1 LOA     -0.065400
     14 C13         1.5790   -0.3450    0.4410 c3        1 LOA     -0.047000
     15 C14         0.6840   -0.6950   -0.7760 c3        1 LOA     -0.067700
     16 C15         1.6520   -1.2900   -1.7880 c3        1 LOA     -0.073400
     17 C16         2.9610   -0.5330   -1.5500 c3        1 LOA     -0.080400
     18 C17         2.7900    0.3110   -0.2700 c3        1 LOA     -0.047700
     19 C18         2.0360   -1.5740    1.2080 c3        1 LOA     -0.080100
     20 C19        -2.3820   -2.5410    1.8460 c3        1 LOA     -0.087100
     21 C20         4.0910    0.4200    0.5160 c3        1 LOA     -0.061700
     22 C21         3.9120    1.2280    1.7870 c3        1 LOA     -0.086100
     23 C22         5.1760    1.0610   -0.3490 c3        1 LOA     -0.068400
     24 C23         6.5690    0.8380    0.1900 c3        1 LOA     -0.195400
     25 C24         7.6360    1.2040   -0.8590 c         1 LOA      0.907600
     26 C25        -6.7840    3.2400   -1.4390 c3        1 LOA     -0.151100
     27 C26        -6.4920    2.0820   -0.5470 c         1 LOA      0.634100
     28 OT1         7.4710    0.8140   -2.0510 o         1 LOA     -0.852300
     29 OT2         8.6420    1.8630   -0.4670 o         1 LOA     -0.852300
     30 O25        -7.1490    1.6860    0.4200 o         1 LOA     -0.555000
     31 H1         -2.9900   -0.0280    2.7380 hc        1 LOA      0.042700
     32 H2         -4.4190   -1.0170    2.2540 hc        1 LOA      0.042700
     33 H3         -4.8240    1.3690    1.7790 hc        1 LOA      0.055700
     34 H4         -3.3310    1.4680    0.7600 hc        1 LOA      0.055700
     35 H5         -5.8600   -0.2680    0.2460 h1        1 LOA      0.067700
     36 H6         -4.7150   -0.9550   -1.8510 hc        1 LOA      0.054700
     37 H7         -3.2790    0.0680   -1.4590 hc        1 LOA      0.054700
     38 H8         -4.3360   -2.3810    0.1150 hc        1 LOA      0.038700
     39 H9         -2.4000   -3.5610   -0.6960 hc        1 LOA      0.036200
     40 H10        -3.2350   -2.8150   -2.1150 hc        1 LOA      0.036200
     41 H11        -0.7310   -2.5920   -2.2200 hc        1 LOA      0.042200
     42 H12        -1.5730   -0.9960   -2.2200 hc        1 LOA      0.042200
     43 H13        -0.2270   -2.4150    0.1720 hc        1 LOA      0.053700
     44 H14        -1.6920    0.3110   -0.0330 hc        1 LOA      0.047700
     45 H15        -1.1570    0.6560    2.3160 hc        1 LOA      0.034200
     46 H16        -0.3360   -0.9500    2.4350 hc        1 LOA      0.034200
     47 H17         0.5370    1.5230    0.7930 hc        1 LOA      0.042200
     48 H18         1.3280    0.8260    2.2610 hc        1 LOA      0.042200
     49 H19         0.3190    0.2820   -1.2130 hc        1 LOA      0.042700
     50 H20         1.7860   -2.3870   -1.6160 hc        1 LOA      0.032700
     51 H21         1.2820   -1.1530   -2.8320 hc        1 LOA      0.032700
     52 H22         3.8110   -1.2520   -1.4320 hc        1 LOA      0.056200
     53 H23         3.1980    0.1310   -2.4170 hc        1 LOA      0.056200
     54 H24         2.4850    1.3540   -0.5650 hc        1 LOA      0.041700
     55 H25         1.1720   -2.1570    1.6060 hc        1 LOA      0.033033
     56 H26         2.6360   -2.2410    0.5420 hc        1 LOA      0.033033
     57 H27         2.6730   -1.2700    2.0730 hc        1 LOA      0.033033
     58 H28        -3.3230   -3.1110    2.0400 hc        1 LOA      0.034367
     59 H29        -1.6590   -3.2200    1.3360 hc        1 LOA      0.034367
     60 H30        -1.9490   -2.2370    2.8290 hc        1 LOA      0.034367
     61 H31         4.4320   -0.6170    0.7940 hc        1 LOA      0.043700
     62 H32         3.3320    2.1600    1.5830 hc        1 LOA      0.025700
     63 H33         3.3730    0.6400    2.5680 hc        1 LOA      0.025700
     64 H34         4.9100    1.5170    2.1990 hc        1 LOA      0.025700
     65 H35         5.1440    0.6390   -1.3900 hc        1 LOA      0.047700
     66 H36         4.9770    2.1610   -0.4320 hc        1 LOA      0.047700
     67 H37         6.7430    1.4440    1.1130 hc        1 LOA      0.019700
     68 H38         6.7110   -0.2410    0.4540 hc        1 LOA      0.019700
     69 H39        -6.1040    3.2440   -2.3240 hc        1 LOA      0.073367
     70 H40        -7.8460    3.1790   -1.7800 hc        1 LOA      0.073367
     71 H41        -6.6380    4.1840   -0.8590 hc        1 LOA      0.073367
@<TRIPOS>BOND
     1    1    2 1   
     2    1   11 1   
     3    1   31 1   
     4    1   32 1   
     5    2    3 1   
     6    2   33 1   
     7    2   34 1   
     8    3    4 1   
     9    3    5 1   
    10    3   35 1   
    11    4   27 1   
    12    5    6 1   
    13    5   36 1   
    14    5   37 1   
    15    6    7 1   
    16    6   11 1   
    17    6   38 1   
    18    7    8 1   
    19    7   39 1   
    20    7   40 1   
    21    8    9 1   
    22    8   41 1   
    23    8   42 1   
    24    9   10 1   
    25    9   15 1   
    26    9   43 1   
    27   10   11 1   
    28   10   12 1   
    29   10   44 1   
    30   11   20 1   
    31   12   13 1   
    32   12   45 1   
    33   12   46 1   
    34   13   14 1   
    35   13   47 1   
    36   13   48 1   
    37   14   15 1   
    38   14   18 1   
    39   14   19 1   
    40   15   16 1   
    41   15   49 1   
    42   16   17 1   
    43   16   50 1   
    44   16   51 1   
    45   17   18 1   
    46   17   52 1   
    47   17   53 1   
    48   18   21 1   
    49   18   54 1   
    50   19   55 1   
    51   19   56 1   
    52   19   57 1   
    53   20   58 1   
    54   20   59 1   
    55   20   60 1   
    56   21   22 1   
    57   21   23 1   
    58   21   61 1   
    59   22   62 1   
    60   22   63 1   
    61   22   64 1   
    62   23   24 1   
    63   23   65 1   
    64   23   66 1   
    65   24   25 1   
    66   24   67 1   
    67   24   68 1   
    68   25   28 1   
    69   25   29 1   
    70   26   27 1   
    71   26   69 1   
    72   26   70 1   
    73   26   71 1   
    74   27   30 2   
@<TRIPOS>SUBSTRUCTURE
     1 LOA         1 TEMP              0 ****  ****    0 ROOT
