@<TRIPOS>MOLECULE
LOA
   71    74     1     0     0
SMALL
bcc


@<TRIPOS>ATOM
      1 C1          0.0540   -0.1260    0.1310 c3        1 LOA     -0.070400
      2 C2          1.5630   -0.1610    0.0610 c3        1 LOA     -0.099400
      3 C3          2.1470   -0.0790    1.4640 c3        1 LOA      0.151100
      4 O3          3.5830    0.0570    1.3820 os        1 LOA     -0.439900
      5 C4          1.6620    1.1720    2.1840 c3        1 LOA     -0.078400
      6 C5          0.1410    1.2220    2.2300 c3        1 LOA     -0.048700
      7 C6         -0.3080    2.4770    2.9650 c3        1 LOA     -0.071400
      8 C7         -0.0750    3.7360    2.1610 c3        1 LOA     -0.074400
      9 C8         -0.7300    3.6480    0.7930 c3        1 LOA     -0.047700
     10 C9         -0.2430    2.4010    0.0340 c3        1 LOA     -0.046700
     11 C10        -0.5110    1.1150    0.8360 c3        1 LOA     -0.036000
     12 C11        -0.8200    2.3550   -1.3770 c3        1 LOA     -0.072400
     13 C12        -0.6080    3.6360   -2.1700 c3        1 LOA     -0.065400
     14 C13        -1.1280    4.8480   -1.4130 c3        1 LOA     -0.047000
     15 C14        -0.3920    4.8620   -0.0480 c3        1 LOA     -0.067700
     16 C15        -0.6680    6.2510    0.5060 c3        1 LOA     -0.073400
     17 C16        -0.7310    7.1480   -0.7330 c3        1 LOA     -0.080400
     18 C17        -0.7190    6.2320   -1.9760 c3        1 LOA     -0.047700
     19 C18        -2.6380    4.7770   -1.2660 c3        1 LOA     -0.080100
     20 C19        -2.0080    0.8670    1.0090 c3        1 LOA     -0.087100
     21 C20        -1.5600    6.8060   -3.1110 c3        1 LOA     -0.061700
     22 C21        -1.5680    5.8910   -4.3190 c3        1 LOA     -0.086100
     23 C22        -1.0310    8.1830   -3.5130 c3        1 LOA     -0.068400
     24 C23        -2.0240    8.9820   -4.3220 c3        1 LOA     -0.195400
     25 C24        -1.5970   10.4580   -4.4260 c         1 LOA      0.907600
     26 C25         5.7890   -0.7980    1.1550 c3        1 LOA     -0.151100
     27 C26         4.3280   -1.0780    1.2560 c         1 LOA      0.634100
     28 OT1        -1.1860   11.0440   -3.3820 o         1 LOA     -0.852300
     29 OT2        -1.7000   11.0210   -5.5540 o         1 LOA     -0.852300
     30 O25         3.7630   -2.1750    1.2410 o         1 LOA     -0.555000
     31 H1         -0.3000   -1.0350    0.6890 hc        1 LOA      0.042700
     32 H2         -0.3670   -0.1940   -0.9050 hc        1 LOA      0.042700
     33 H3          1.9490    0.6890   -0.5590 hc        1 LOA      0.055700
     34 H4          1.9010   -1.1160   -0.4200 hc        1 LOA      0.055700
     35 H5          1.8950   -1.0060    2.0490 h1        1 LOA      0.067700
     36 H6          2.0660    1.1750    3.2300 hc        1 LOA      0.054700
     37 H7          2.0710    2.0770    1.6650 hc        1 LOA      0.054700
     38 H8         -0.2070    0.3300    2.8270 hc        1 LOA      0.038700
     39 H9         -1.4000    2.3850    3.2060 hc        1 LOA      0.036200
     40 H10         0.2430    2.5500    3.9400 hc        1 LOA      0.036200
     41 H11         1.0260    3.9170    2.0420 hc        1 LOA      0.042200
     42 H12        -0.4970    4.6180    2.7120 hc        1 LOA      0.042200
     43 H13        -1.8430    3.5930    0.9390 hc        1 LOA      0.053700
     44 H14         0.8770    2.4950   -0.0710 hc        1 LOA      0.047700
     45 H15        -1.9180    2.1320   -1.3270 hc        1 LOA      0.034200
     46 H16        -0.3330    1.5180   -1.9430 hc        1 LOA      0.034200
     47 H17        -1.1310    3.5410   -3.1570 hc        1 LOA      0.042200
     48 H18         0.4850    3.7710   -2.3810 hc        1 LOA      0.042200
     49 H19         0.7160    4.8130   -0.2670 hc        1 LOA      0.042700
     50 H20        -1.6350    6.2740    1.0670 hc        1 LOA      0.032700
     51 H21         0.1390    6.5750    1.2070 hc        1 LOA      0.032700
     52 H22        -1.6600    7.7710   -0.7160 hc        1 LOA      0.056200
     53 H23         0.1430    7.8440   -0.7630 hc        1 LOA      0.056200
     54 H24         0.3390    6.1470   -2.3490 hc        1 LOA      0.041700
     55 H25        -3.0120    5.6660   -0.7030 hc        1 LOA      0.033033
     56 H26        -2.9580    3.8550   -0.7240 hc        1 LOA      0.033033
     57 H27        -3.1200    4.7660   -2.2740 hc        1 LOA      0.033033
     58 H28        -2.5220    1.7620    1.4310 hc        1 LOA      0.034367
     59 H29        -2.1790    0.0060    1.7000 hc        1 LOA      0.034367
     60 H30        -2.4750    0.6230    0.0250 hc        1 LOA      0.034367
     61 H31        -2.6190    6.9300   -2.7460 hc        1 LOA      0.043700
     62 H32        -2.2220    5.0020   -4.1490 hc        1 LOA      0.025700
     63 H33        -1.9560    6.4410   -5.2110 hc        1 LOA      0.025700
     64 H34        -0.5350    5.5320   -4.5480 hc        1 LOA      0.025700
     65 H35        -0.7760    8.7850   -2.5990 hc        1 LOA      0.047700
     66 H36        -0.0850    8.0540   -4.0990 hc        1 LOA      0.047700
     67 H37        -3.0310    8.9560   -3.8320 hc        1 LOA      0.019700
     68 H38        -2.1330    8.5610   -5.3520 hc        1 LOA      0.019700
     69 H39         6.1270   -1.0330    0.1160 hc        1 LOA      0.073367
     70 H40         6.3360   -1.4530    1.8760 hc        1 LOA      0.073367
     71 H41         6.0070    0.2730    1.3800 hc        1 LOA      0.073367
@<TRIPOS>BOND
     1    1    2 1   
     2    1   11 1   
     3    1   31 1   
     4    1   32 1   
     5    2    3 1   
     6    2   33 1   
     7    2   34 1   
     8    3    4 1   
     9    3    5 1   
    10    3   35 1   
    11    4   27 1   
    12    5    6 1   
    13    5   36 1   
    14    5   37 1   
    15    6    7 1   
    16    6   11 1   
    17    6   38 1   
    18    7    8 1   
    19    7   39 1   
    20    7   40 1   
    21    8    9 1   
    22    8   41 1   
    23    8   42 1   
    24    9   10 1   
    25    9   15 1   
    26    9   43 1   
    27   10   11 1   
    28   10   12 1   
    29   10   44 1   
    30   11   20 1   
    31   12   13 1   
    32   12   45 1   
    33   12   46 1   
    34   13   14 1   
    35   13   47 1   
    36   13   48 1   
    37   14   15 1   
    38   14   18 1   
    39   14   19 1   
    40   15   16 1   
    41   15   49 1   
    42   16   17 1   
    43   16   50 1   
    44   16   51 1   
    45   17   18 1   
    46   17   52 1   
    47   17   53 1   
    48   18   21 1   
    49   18   54 1   
    50   19   55 1   
    51   19   56 1   
    52   19   57 1   
    53   20   58 1   
    54   20   59 1   
    55   20   60 1   
    56   21   22 1   
    57   21   23 1   
    58   21   61 1   
    59   22   62 1   
    60   22   63 1   
    61   22   64 1   
    62   23   24 1   
    63   23   65 1   
    64   23   66 1   
    65   24   25 1   
    66   24   67 1   
    67   24   68 1   
    68   25   28 1   
    69   25   29 1   
    70   26   27 1   
    71   26   69 1   
    72   26   70 1   
    73   26   71 1   
    74   27   30 2   
@<TRIPOS>SUBSTRUCTURE
     1 LOA         1 TEMP              0 ****  ****    0 ROOT
