@<TRIPOS>MOLECULE
LOA
   71    74     1     0     0
SMALL
bcc


@<TRIPOS>ATOM
      1 C1          0.0590   -0.1240    0.1400 c3        1 LOA     -0.070400
      2 C2          1.5680   -0.1550    0.0830 c3        1 LOA     -0.099400
      3 C3          2.1400   -0.0680    1.4900 c3        1 LOA      0.151100
      4 O3          3.5760    0.0700    1.4200 os        1 LOA     -0.439900
      5 C4          1.6460    1.1820    2.2040 c3        1 LOA     -0.078400
      6 C5          0.1250    1.2290    2.2370 c3        1 LOA     -0.048700
      7 C6         -0.3340    2.4840    2.9660 c3        1 LOA     -0.071400
      8 C7         -0.0970    3.7420    2.1610 c3        1 LOA     -0.074400
      9 C8         -0.7410    3.6490    0.7880 c3        1 LOA     -0.047700
     10 C9         -0.2450    2.4020    0.0350 c3        1 LOA     -0.046700
     11 C10        -0.5150    1.1170    0.8370 c3        1 LOA     -0.036000
     12 C11        -0.8090    2.3520   -1.3800 c3        1 LOA     -0.072400
     13 C12        -0.5940    3.6310   -2.1740 c3        1 LOA     -0.065400
     14 C13        -1.1240    4.8430   -1.4240 c3        1 LOA     -0.047000
     15 C14        -0.4000    4.8620   -0.0530 c3        1 LOA     -0.067700
     16 C15        -0.6830    6.2520    0.4960 c3        1 LOA     -0.073400
     17 C16        -0.7390    7.1460   -0.7450 c3        1 LOA     -0.080400
     18 C17        -0.7140    6.2280   -1.9860 c3        1 LOA     -0.047700
     19 C18        -2.6350    4.7680   -1.2900 c3        1 LOA     -0.080100
     20 C19        -2.0130    0.8650    0.9980 c3        1 LOA     -0.087100
     21 C20        -1.5470    6.7970   -3.1290 c3        1 LOA     -0.061700
     22 C21        -1.5420    5.8790   -4.3360 c3        1 LOA     -0.086100
     23 C22        -1.0190    8.1740   -3.5300 c3        1 LOA     -0.068400
     24 C23        -2.0070    8.9690   -4.3490 c3        1 LOA     -0.195400
     25 C24        -1.5830   10.4460   -4.4530 c         1 LOA      0.907600
     26 C25         5.7860   -0.7790    1.2150 c3        1 LOA     -0.151100
     27 C26         4.3250   -1.0630    1.3040 c         1 LOA      0.634100
     28 OT1        -1.1810   11.0350   -3.4070 o         1 LOA     -0.852300
     29 OT2        -1.6780   11.0060   -5.5830 o         1 LOA     -0.852300
     30 O25         3.7640   -2.1610    1.2860 o         1 LOA     -0.555000
     31 H1         -0.3540   -0.1960   -0.9000 hc        1 LOA      0.042700
     32 H2         -0.2980   -1.0330    0.6970 hc        1 LOA      0.042700
     33 H3          1.9570    0.6940   -0.5360 hc        1 LOA      0.055700
     34 H4          1.9130   -1.1100   -0.3940 hc        1 LOA      0.055700
     35 H5          1.8860   -0.9950    2.0750 h1        1 LOA      0.067700
     36 H6          2.0420    1.1890    3.2530 hc        1 LOA      0.054700
     37 H7          2.0580    2.0870    1.6860 hc        1 LOA      0.054700
     38 H8         -0.2260    0.3360    2.8330 hc        1 LOA      0.038700
     39 H9          0.2090    2.5610    3.9450 hc        1 LOA      0.036200
     40 H10        -1.4280    2.3900    3.1970 hc        1 LOA      0.036200
     41 H11        -0.5260    4.6240    2.7060 hc        1 LOA      0.042200
     42 H12         1.0040    3.9260    2.0500 hc        1 LOA      0.042200
     43 H13        -1.8550    3.5910    0.9250 hc        1 LOA      0.053700
     44 H14         0.8760    2.4990   -0.0600 hc        1 LOA      0.047700
     45 H15        -0.3150    1.5140   -1.9410 hc        1 LOA      0.034200
     46 H16        -1.9070    2.1250   -1.3390 hc        1 LOA      0.034200
     47 H17        -1.1090    3.5330   -3.1650 hc        1 LOA      0.042200
     48 H18         0.5000    3.7690   -2.3770 hc        1 LOA      0.042200
     49 H19         0.7110    4.8160   -0.2620 hc        1 LOA      0.042700
     50 H20        -1.6550    6.2730    1.0490 hc        1 LOA      0.032700
     51 H21         0.1170    6.5800    1.2030 hc        1 LOA      0.032700
     52 H22        -1.6690    7.7660   -0.7380 hc        1 LOA      0.056200
     53 H23         0.1330    7.8450   -0.7700 hc        1 LOA      0.056200
     54 H24         0.3470    6.1440   -2.3510 hc        1 LOA      0.041700
     55 H25        -3.1080    4.7550   -2.3010 hc        1 LOA      0.033033
     56 H26        -3.0160    5.6580   -0.7320 hc        1 LOA      0.033033
     57 H27        -2.9560    3.8470   -0.7480 hc        1 LOA      0.033033
     58 H28        -2.5330    1.7590    1.4150 hc        1 LOA      0.034367
     59 H29        -2.1870    0.0050    1.6900 hc        1 LOA      0.034367
     60 H30        -2.4720    0.6180    0.0110 hc        1 LOA      0.034367
     61 H31        -2.6090    6.9190   -2.7740 hc        1 LOA      0.043700
     62 H32        -0.5070    5.5230   -4.5560 hc        1 LOA      0.025700
     63 H33        -1.9240    6.4270   -5.2320 hc        1 LOA      0.025700
     64 H34        -2.1950    4.9890   -4.1700 hc        1 LOA      0.025700
     65 H35        -0.7730    8.7790   -2.6160 hc        1 LOA      0.047700
     66 H36        -0.0670    8.0470   -4.1080 hc        1 LOA      0.047700
     67 H37        -2.1060    8.5450   -5.3790 hc        1 LOA      0.019700
     68 H38        -3.0180    8.9410   -3.8670 hc        1 LOA      0.019700
     69 H39         6.3280   -1.4240    1.9480 hc        1 LOA      0.073367
     70 H40         6.1370   -1.0250    0.1820 hc        1 LOA      0.073367
     71 H41         5.9990    0.2960    1.4300 hc        1 LOA      0.073367
@<TRIPOS>BOND
     1    1    2 1   
     2    1   11 1   
     3    1   31 1   
     4    1   32 1   
     5    2    3 1   
     6    2   33 1   
     7    2   34 1   
     8    3    4 1   
     9    3    5 1   
    10    3   35 1   
    11    4   27 1   
    12    5    6 1   
    13    5   36 1   
    14    5   37 1   
    15    6    7 1   
    16    6   11 1   
    17    6   38 1   
    18    7    8 1   
    19    7   39 1   
    20    7   40 1   
    21    8    9 1   
    22    8   41 1   
    23    8   42 1   
    24    9   10 1   
    25    9   15 1   
    26    9   43 1   
    27   10   11 1   
    28   10   12 1   
    29   10   44 1   
    30   11   20 1   
    31   12   13 1   
    32   12   45 1   
    33   12   46 1   
    34   13   14 1   
    35   13   47 1   
    36   13   48 1   
    37   14   15 1   
    38   14   18 1   
    39   14   19 1   
    40   15   16 1   
    41   15   49 1   
    42   16   17 1   
    43   16   50 1   
    44   16   51 1   
    45   17   18 1   
    46   17   52 1   
    47   17   53 1   
    48   18   21 1   
    49   18   54 1   
    50   19   55 1   
    51   19   56 1   
    52   19   57 1   
    53   20   58 1   
    54   20   59 1   
    55   20   60 1   
    56   21   22 1   
    57   21   23 1   
    58   21   61 1   
    59   22   62 1   
    60   22   63 1   
    61   22   64 1   
    62   23   24 1   
    63   23   65 1   
    64   23   66 1   
    65   24   25 1   
    66   24   67 1   
    67   24   68 1   
    68   25   28 1   
    69   25   29 1   
    70   26   27 1   
    71   26   69 1   
    72   26   70 1   
    73   26   71 1   
    74   27   30 2   
@<TRIPOS>SUBSTRUCTURE
     1 LOA         1 TEMP              0 ****  ****    0 ROOT
