@<TRIPOS>MOLECULE
LOB
   52    54     1     0     0
SMALL
bcc


@<TRIPOS>ATOM
      1 O1         -0.1750    0.1700    0.2430 o         1 LOB     -0.539100
      2 C3          1.0550    0.1360    0.1100 c         1 LOB      0.577700
      3 C1          1.9470    0.0370    1.2880 ca        1 LOB     -0.175600
      4 C2          1.4030   -0.3750    2.5130 ca        1 LOB     -0.084000
      5 C5          2.2120   -0.4840    3.6420 ca        1 LOB     -0.144000
      6 C6          3.5700   -0.1750    3.5600 ca        1 LOB     -0.103000
      7 C7          4.1160    0.2430    2.3460 ca        1 LOB     -0.144000
      8 C4          3.3100    0.3480    1.2140 ca        1 LOB     -0.084000
      9 C8          1.7290    0.2050   -1.2320 c3        1 LOB     -0.177400
     10 C9          0.7580   -0.0730   -2.3950 c3        1 LOB      0.191500
     11 C12         0.3840   -1.5600   -2.3490 c3        1 LOB     -0.079400
     12 C15        -0.5260   -1.9190   -3.4990 c3        1 LOB     -0.078400
     13 C13         0.1610   -1.5770   -4.7990 c3        1 LOB     -0.078400
     14 C11         0.5620   -0.0950   -4.8510 c3        1 LOB      0.191500
     15 N1          1.3390    0.3460   -3.6820 n3        1 LOB     -0.727600
     16 C22         1.5810    1.7780   -3.7030 c3        1 LOB      0.139100
     17 C14         1.3330    0.1290   -6.1700 c3        1 LOB     -0.073400
     18 C16         0.4430    0.7950   -7.2200 c3        1 LOB      0.183400
     19 O2          0.2240    2.1330   -6.7800 oh        1 LOB     -0.602800
     20 C17         1.0880    0.7500   -8.5750 ca        1 LOB     -0.129300
     21 C18         0.8740   -0.3540   -9.4080 ca        1 LOB     -0.119000
     22 C20         1.4730   -0.4090  -10.6650 ca        1 LOB     -0.130000
     23 C21         2.2880    0.6370  -11.0990 ca        1 LOB     -0.125000
     24 C10         2.5050    1.7380  -10.2710 ca        1 LOB     -0.130000
     25 C19         1.9080    1.7950   -9.0120 ca        1 LOB     -0.119000
     26 H2          0.3260   -0.6060    2.5700 ha        1 LOB      0.145500
     27 H5          1.7770   -0.8100    4.5990 ha        1 LOB      0.136500
     28 H6          4.2090   -0.2600    4.4510 ha        1 LOB      0.134000
     29 H7          5.1850    0.4910    2.2810 ha        1 LOB      0.136500
     30 H4          3.7550    0.6830    0.2640 ha        1 LOB      0.145500
     31 H8C1        2.1730    1.2330   -1.3210 hc        1 LOB      0.075200
     32 H8C2        2.5710   -0.5350   -1.2660 hc        1 LOB      0.075200
     33 H9         -0.1920    0.5150   -2.1890 h1        1 LOB      0.043700
     34 H121       -0.1310   -1.7550   -1.3710 hc        1 LOB      0.051200
     35 H122        1.3090   -2.1920   -2.3870 hc        1 LOB      0.051200
     36 H151       -1.4920   -1.3550   -3.4130 hc        1 LOB      0.043200
     37 H152       -0.7700   -3.0120   -3.4700 hc        1 LOB      0.043200
     38 H131        1.0710   -2.2220   -4.9190 hc        1 LOB      0.044200
     39 H132       -0.5200   -1.7800   -5.6650 hc        1 LOB      0.044200
     40 H11        -0.4000    0.5080   -4.9030 h1        1 LOB      0.032700
     41 H221        0.9120    2.3490   -3.0020 h1        1 LOB      0.038033
     42 H222        1.4350    2.2120   -4.7290 h1        1 LOB      0.038033
     43 H223        2.6470    1.9470   -3.3940 h1        1 LOB      0.038033
     44 H141        1.6810   -0.8540   -6.5820 hc        1 LOB      0.063700
     45 H142        2.2460    0.7620   -6.0200 hc        1 LOB      0.063700
     46 H16        -0.5530    0.2650   -7.2670 h1        1 LOB      0.039700
     47 HA         -0.2740    2.5780   -7.4770 ho        1 LOB      0.404000
     48 H18         0.2310   -1.1800   -9.0690 ha        1 LOB      0.138000
     49 H20         1.3020   -1.2790  -11.3160 ha        1 LOB      0.133000
     50 H21         2.7600    0.5920  -12.0910 ha        1 LOB      0.132000
     51 H10         3.1490    2.5630  -10.6100 ha        1 LOB      0.133000
     52 H19         2.0810    2.6590   -8.3510 ha        1 LOB      0.138000
@<TRIPOS>BOND
     1    1    2 2   
     2    2    3 1   
     3    2    9 1   
     4    3    4 ar  
     5    3    8 ar  
     6    4    5 ar  
     7    4   26 1   
     8    5    6 ar  
     9    5   27 1   
    10    6    7 ar  
    11    6   28 1   
    12    7    8 ar  
    13    7   29 1   
    14    8   30 1   
    15    9   10 1   
    16    9   31 1   
    17    9   32 1   
    18   10   11 1   
    19   10   15 1   
    20   10   33 1   
    21   11   12 1   
    22   11   34 1   
    23   11   35 1   
    24   12   13 1   
    25   12   36 1   
    26   12   37 1   
    27   13   14 1   
    28   13   38 1   
    29   13   39 1   
    30   14   15 1   
    31   14   17 1   
    32   14   40 1   
    33   15   16 1   
    34   16   41 1   
    35   16   42 1   
    36   16   43 1   
    37   17   18 1   
    38   17   44 1   
    39   17   45 1   
    40   18   19 1   
    41   18   20 1   
    42   18   46 1   
    43   19   47 1   
    44   20   21 ar  
    45   20   25 ar  
    46   21   22 ar  
    47   21   48 1   
    48   22   23 ar  
    49   22   49 1   
    50   23   24 ar  
    51   23   50 1   
    52   24   25 ar  
    53   24   51 1   
    54   25   52 1   
@<TRIPOS>SUBSTRUCTURE
     1 LOB         1 TEMP              0 ****  ****    0 ROOT
