@<TRIPOS>MOLECULE
LOB
   52    49     1     0     0
SMALL
bcc


@<TRIPOS>ATOM
      1 O1         -1.8220    0.4020    2.1550 o         1 LOB     -0.301000
      2 C3         -0.6400    0.5500    2.0300 c1        1 LOB      0.273000
      3 C1          0.2850    0.4730    3.2720 c1        1 LOB     -0.153000
      4 C2         -0.2680    0.2610    4.5440 c2        1 LOB     -0.075000
      5 C5          0.5810    0.0430    5.6570 c1        1 LOB     -0.145000
      6 C6          1.9670    0.0400    5.4870 c1        1 LOB     -0.125500
      7 C7          2.5230    0.2540    4.2040 c1        1 LOB     -0.125500
      8 C4          1.6850    0.4690    3.1040 c1        1 LOB     -0.093000
      9 C8         -0.0210    0.7820    0.6000 c3        1 LOB     -0.245000
     10 C9         -0.0450    2.1820    0.2810 c3        1 LOB      0.011000
     11 C12        -1.4470    2.6540    0.2960 c3        1 LOB     -0.158000
     12 C15        -1.9510    2.7800   -0.9670 c3        1 LOB     -0.144000
     13 C13        -1.7150    1.9360   -1.9860 c3        1 LOB     -0.156000
     14 C11        -0.2820    1.4650   -1.9980 c3        1 LOB     -0.002000
     15 N1          0.6940    2.4070   -1.1710 n3        1 LOB     -0.273000
     16 C22         1.9790    1.8400   -1.1430 c3        1 LOB     -0.106000
     17 C14        -0.2220    0.0990   -1.4350 c3        1 LOB     -0.183000
     18 C16         0.3490   -0.8570   -2.4770 c3        1 LOB      0.071000
     19 O2          1.7280   -0.8880   -2.3660 oh        1 LOB     -0.327000
     20 C17        -0.2080   -2.2610   -2.2410 c2        1 LOB     -0.124000
     21 C18         0.3300   -3.0500   -1.2610 c2        1 LOB     -0.119000
     22 C20        -0.0590   -4.3870   -1.1460 c1        1 LOB     -0.130000
     23 C21        -0.9820   -4.9100   -2.0150 c1        1 LOB     -0.125500
     24 C10        -1.5300   -4.1110   -3.0100 c1        1 LOB     -0.125500
     25 C19        -1.1460   -2.7940   -3.1250 c1        1 LOB     -0.121000
     26 H2         -1.2330    0.2640    4.6620 ha        1 LOB      0.155000
     27 H5          0.1930   -0.1070    6.5560 ha        1 LOB      0.138000
     28 H6          2.5480   -0.1080    6.2470 ha        1 LOB      0.134250
     29 H7          3.4950    0.2520    4.0850 ha        1 LOB      0.134250
     30 H4          2.0540    0.6120    2.2580 ha        1 LOB      0.138000
     31 H8C1       -0.5250    0.3070   -0.0400 hc        1 LOB      0.108000
     32 H8C2        0.9180    0.4560    0.5890 hc        1 LOB      0.108000
     33 H9          0.4710    2.6830    0.9870 h1        1 LOB      0.093000
     34 H121       -1.9900    2.0190    0.7870 hc        1 LOB      0.092500
     35 H122       -1.4860    3.5130    0.7370 hc        1 LOB      0.092500
     36 H151       -2.9710    2.8160   -0.8630 hc        1 LOB      0.084000
     37 H152       -1.6590    3.6960   -1.2910 hc        1 LOB      0.084000
     38 H131       -1.9110    2.4020   -2.8440 hc        1 LOB      0.080000
     39 H132       -2.3260    1.1340   -1.8970 hc        1 LOB      0.080000
     40 H11         0.0400    1.4320   -2.9680 h1        1 LOB      0.114000
     41 H221        2.3080    1.7280   -2.0670 h1        1 LOB      0.070333
     42 H222        2.5850    2.4280   -0.6520 h1        1 LOB      0.070333
     43 H223        1.9410    0.9550   -0.6960 h1        1 LOB      0.070333
     44 H141       -1.1270   -0.1920   -1.1840 hc        1 LOB      0.095000
     45 H142        0.3660    0.0980   -0.6250 hc        1 LOB      0.095000
     46 H16         0.0990   -0.5520   -3.3760 h1        1 LOB      0.082000
     47 HA          2.1020   -1.0300   -3.2020 ho        1 LOB      0.204000
     48 H18         0.9900   -2.6770   -0.6400 ha        1 LOB      0.144000
     49 H20         0.3130   -4.9310   -0.4680 ha        1 LOB      0.133000
     50 H21        -1.2550   -5.8420   -1.9360 ha        1 LOB      0.134250
     51 H10        -2.1990   -4.4920   -3.6410 ha        1 LOB      0.134250
     52 H19        -1.5260   -2.2410   -3.8140 ha        1 LOB      0.133000
@<TRIPOS>BOND
     1    1    2 1   
     2    2    9 1   
     3    3    4 1   
     4    3    8 1   
     5    4    5 1   
     6    4   26 1   
     7    5   27 1   
     8    6    7 1   
     9    6   28 1   
    10    7   29 1   
    11    8   30 1   
    12    9   10 1   
    13    9   31 1   
    14    9   32 1   
    15   10   11 1   
    16   10   15 1   
    17   10   33 1   
    18   11   12 1   
    19   11   34 1   
    20   11   35 1   
    21   12   13 1   
    22   12   36 1   
    23   12   37 1   
    24   13   14 1   
    25   13   38 1   
    26   13   39 1   
    27   14   15 1   
    28   14   17 1   
    29   14   40 1   
    30   15   16 1   
    31   16   41 1   
    32   16   42 1   
    33   16   43 1   
    34   17   18 1   
    35   17   44 1   
    36   17   45 1   
    37   18   19 1   
    38   18   20 1   
    39   18   46 1   
    40   19   47 1   
    41   20   21 1   
    42   20   25 1   
    43   21   22 1   
    44   21   48 1   
    45   22   49 1   
    46   23   24 1   
    47   23   50 1   
    48   24   51 1   
    49   25   52 1   
@<TRIPOS>SUBSTRUCTURE
     1 LOB         1 TEMP              0 ****  ****    0 ROOT
