@<TRIPOS>MOLECULE
LOB
   52    54     1     0     0
SMALL
bcc


@<TRIPOS>ATOM
      1 O1         -0.1840    0.1770    0.2390 o         1 LOB     -0.539100
      2 C3          1.0470    0.1440    0.1090 c         1 LOB      0.577700
      3 C1          1.9370    0.0480    1.2890 ca        1 LOB     -0.175600
      4 C2          1.3900   -0.3640    2.5130 ca        1 LOB     -0.084000
      5 C5          2.1970   -0.4700    3.6440 ca        1 LOB     -0.144000
      6 C6          3.5540   -0.1600    3.5650 ca        1 LOB     -0.103000
      7 C7          4.1020    0.2590    2.3520 ca        1 LOB     -0.144000
      8 C4          3.2990    0.3610    1.2170 ca        1 LOB     -0.084000
      9 C8          1.7230    0.2110   -1.2310 c3        1 LOB     -0.177400
     10 C9          0.7560   -0.0700   -2.3970 c3        1 LOB      0.191500
     11 C12         0.3830   -1.5580   -2.3480 c3        1 LOB     -0.079400
     12 C15        -0.5240   -1.9200   -3.4990 c3        1 LOB     -0.078400
     13 C13         0.1660   -1.5800   -4.7990 c3        1 LOB     -0.078400
     14 C11         0.5640   -0.0980   -4.8520 c3        1 LOB      0.191500
     15 N1          1.3380    0.3470   -3.6830 n3        1 LOB     -0.727600
     16 C22         1.5790    1.7790   -3.7070 c3        1 LOB      0.139100
     17 C14         1.3390    0.1240   -6.1700 c3        1 LOB     -0.073400
     18 C16         0.4500    0.7880   -7.2230 c3        1 LOB      0.183400
     19 O2          0.2280    2.1260   -6.7870 oh        1 LOB     -0.602800
     20 C17         1.0980    0.7400   -8.5770 ca        1 LOB     -0.129300
     21 C18         0.8850   -0.3640   -9.4090 ca        1 LOB     -0.119000
     22 C20         1.4870   -0.4210  -10.6650 ca        1 LOB     -0.130000
     23 C21         2.3030    0.6240  -11.0980 ca        1 LOB     -0.125000
     24 C10         2.5180    1.7270  -10.2720 ca        1 LOB     -0.130000
     25 C19         1.9190    1.7850   -9.0140 ca        1 LOB     -0.119000
     26 H2          0.3140   -0.5970    2.5680 ha        1 LOB      0.145500
     27 H5          1.7610   -0.7970    4.6000 ha        1 LOB      0.136500
     28 H6          4.1920   -0.2420    4.4570 ha        1 LOB      0.134000
     29 H7          5.1720    0.5090    2.2890 ha        1 LOB      0.136500
     30 H4          3.7450    0.6960    0.2680 ha        1 LOB      0.145500
     31 H8C1        2.1660    1.2400   -1.3210 hc        1 LOB      0.075200
     32 H8C2        2.5670   -0.5270   -1.2630 hc        1 LOB      0.075200
     33 H9         -0.1960    0.5170   -2.1940 h1        1 LOB      0.043700
     34 H121       -0.1330   -1.7510   -1.3710 hc        1 LOB      0.051200
     35 H122        1.3100   -2.1880   -2.3830 hc        1 LOB      0.051200
     36 H151       -0.7660   -3.0140   -3.4680 hc        1 LOB      0.043200
     37 H152       -1.4910   -1.3580   -3.4170 hc        1 LOB      0.043200
     38 H131       -0.5140   -1.7850   -5.6660 hc        1 LOB      0.044200
     39 H132        1.0770   -2.2240   -4.9150 hc        1 LOB      0.044200
     40 H11        -0.3980    0.5040   -4.9080 h1        1 LOB      0.032700
     41 H221        1.4350    2.2110   -4.7340 h1        1 LOB      0.038033
     42 H222        0.9070    2.3510   -3.0080 h1        1 LOB      0.038033
     43 H223        2.6440    1.9500   -3.3950 h1        1 LOB      0.038033
     44 H141        2.2500    0.7580   -6.0190 hc        1 LOB      0.063700
     45 H142        1.6880   -0.8590   -6.5800 hc        1 LOB      0.063700
     46 H16        -0.5460    0.2560   -7.2710 h1        1 LOB      0.039700
     47 HA         -0.2680    2.5690   -7.4860 ho        1 LOB      0.404000
     48 H18         0.2420   -1.1900   -9.0700 ha        1 LOB      0.138000
     49 H20         1.3180   -1.2930  -11.3150 ha        1 LOB      0.133000
     50 H21         2.7770    0.5780  -12.0900 ha        1 LOB      0.132000
     51 H10         3.1630    2.5510  -10.6100 ha        1 LOB      0.133000
     52 H19         2.0890    2.6500   -8.3540 ha        1 LOB      0.138000
@<TRIPOS>BOND
     1    1    2 2   
     2    2    3 1   
     3    2    9 1   
     4    3    4 ar  
     5    3    8 ar  
     6    4    5 ar  
     7    4   26 1   
     8    5    6 ar  
     9    5   27 1   
    10    6    7 ar  
    11    6   28 1   
    12    7    8 ar  
    13    7   29 1   
    14    8   30 1   
    15    9   10 1   
    16    9   31 1   
    17    9   32 1   
    18   10   11 1   
    19   10   15 1   
    20   10   33 1   
    21   11   12 1   
    22   11   34 1   
    23   11   35 1   
    24   12   13 1   
    25   12   36 1   
    26   12   37 1   
    27   13   14 1   
    28   13   38 1   
    29   13   39 1   
    30   14   15 1   
    31   14   17 1   
    32   14   40 1   
    33   15   16 1   
    34   16   41 1   
    35   16   42 1   
    36   16   43 1   
    37   17   18 1   
    38   17   44 1   
    39   17   45 1   
    40   18   19 1   
    41   18   20 1   
    42   18   46 1   
    43   19   47 1   
    44   20   21 ar  
    45   20   25 ar  
    46   21   22 ar  
    47   21   48 1   
    48   22   23 ar  
    49   22   49 1   
    50   23   24 ar  
    51   23   50 1   
    52   24   25 ar  
    53   24   51 1   
    54   25   52 1   
@<TRIPOS>SUBSTRUCTURE
     1 LOB         1 TEMP              0 ****  ****    0 ROOT
