@<TRIPOS>MOLECULE
LOB
   52    54     1     0     0
SMALL
bcc


@<TRIPOS>ATOM
      1 O1         -0.1810    0.1720    0.2400 o         1 LOB     -0.539100
      2 C3          1.0500    0.1470    0.1090 c         1 LOB      0.577700
      3 C1          1.9410    0.0610    1.2900 ca        1 LOB     -0.176600
      4 C2          1.3970   -0.3460    2.5160 ca        1 LOB     -0.084000
      5 C5          2.2050   -0.4420    3.6470 ca        1 LOB     -0.144000
      6 C6          3.5610   -0.1270    3.5650 ca        1 LOB     -0.103000
      7 C7          4.1060    0.2870    2.3490 ca        1 LOB     -0.144000
      8 C4          3.3020    0.3800    1.2150 ca        1 LOB     -0.084000
      9 C8          1.7250    0.2150   -1.2320 c3        1 LOB     -0.177400
     10 C9          0.7570   -0.0730   -2.3960 c3        1 LOB      0.191500
     11 C12         0.3930   -1.5630   -2.3440 c3        1 LOB     -0.079400
     12 C15        -0.5130   -1.9310   -3.4950 c3        1 LOB     -0.078400
     13 C13         0.1740   -1.5900   -4.7950 c3        1 LOB     -0.078400
     14 C11         0.5650   -0.1050   -4.8510 c3        1 LOB      0.191500
     15 N1          1.3370    0.3450   -3.6830 n3        1 LOB     -0.727600
     16 C22         1.5700    1.7790   -3.7090 c3        1 LOB      0.139100
     17 C14         1.3370    0.1190   -6.1700 c3        1 LOB     -0.073400
     18 C16         0.4430    0.7750   -7.2230 c3        1 LOB      0.183400
     19 O2          0.2140    2.1130   -6.7900 oh        1 LOB     -0.602800
     20 C17         1.0910    0.7290   -8.5780 ca        1 LOB     -0.129300
     21 C18         0.8840   -0.3790   -9.4080 ca        1 LOB     -0.119000
     22 C20         1.4860   -0.4340  -10.6640 ca        1 LOB     -0.130000
     23 C21         2.2950    0.6150  -11.1000 ca        1 LOB     -0.125000
     24 C10         2.5040    1.7210  -10.2750 ca        1 LOB     -0.130000
     25 C19         1.9050    1.7780   -9.0180 ca        1 LOB     -0.119000
     26 H2          0.3220   -0.5830    2.5730 ha        1 LOB      0.145500
     27 H5          1.7710   -0.7650    4.6050 ha        1 LOB      0.136500
     28 H6          4.2000   -0.2020    4.4570 ha        1 LOB      0.134000
     29 H7          5.1750    0.5410    2.2840 ha        1 LOB      0.136500
     30 H4          3.7460    0.7110    0.2630 ha        1 LOB      0.145500
     31 H8C1        2.1630    1.2460   -1.3240 hc        1 LOB      0.075200
     32 H8C2        2.5720   -0.5200   -1.2620 hc        1 LOB      0.075200
     33 H9         -0.1970    0.5090   -2.1930 h1        1 LOB      0.043700
     34 H121        1.3230   -2.1880   -2.3790 hc        1 LOB      0.051200
     35 H122       -0.1210   -1.7580   -1.3670 hc        1 LOB      0.051200
     36 H151       -0.7500   -3.0260   -3.4620 hc        1 LOB      0.043200
     37 H152       -1.4830   -1.3740   -3.4120 hc        1 LOB      0.043200
     38 H131        1.0880   -2.2290   -4.9110 hc        1 LOB      0.044200
     39 H132       -0.5050   -1.8000   -5.6610 hc        1 LOB      0.044200
     40 H11        -0.4010    0.4910   -4.9070 h1        1 LOB      0.032700
     41 H221        0.8960    2.3470   -3.0110 h1        1 LOB      0.038033
     42 H222        2.6340    1.9560   -3.4000 h1        1 LOB      0.038033
     43 H223        1.4220    2.2080   -4.7370 h1        1 LOB      0.038033
     44 H141        2.2450    0.7580   -6.0210 hc        1 LOB      0.063700
     45 H142        1.6910   -0.8630   -6.5780 hc        1 LOB      0.063700
     46 H16        -0.5500    0.2380   -7.2700 h1        1 LOB      0.039700
     47 HA         -0.2850    2.5520   -7.4880 ho        1 LOB      0.404000
     48 H18         0.2460   -1.2080   -9.0660 ha        1 LOB      0.138000
     49 H20         1.3210   -1.3080  -11.3120 ha        1 LOB      0.133000
     50 H21         2.7680    0.5700  -12.0910 ha        1 LOB      0.132000
     51 H10         3.1430    2.5480  -10.6160 ha        1 LOB      0.133000
     52 H19         2.0710    2.6450   -8.3590 ha        1 LOB      0.138000
@<TRIPOS>BOND
     1    1    2 2   
     2    2    3 1   
     3    2    9 1   
     4    3    4 ar  
     5    3    8 ar  
     6    4    5 ar  
     7    4   26 1   
     8    5    6 ar  
     9    5   27 1   
    10    6    7 ar  
    11    6   28 1   
    12    7    8 ar  
    13    7   29 1   
    14    8   30 1   
    15    9   10 1   
    16    9   31 1   
    17    9   32 1   
    18   10   11 1   
    19   10   15 1   
    20   10   33 1   
    21   11   12 1   
    22   11   34 1   
    23   11   35 1   
    24   12   13 1   
    25   12   36 1   
    26   12   37 1   
    27   13   14 1   
    28   13   38 1   
    29   13   39 1   
    30   14   15 1   
    31   14   17 1   
    32   14   40 1   
    33   15   16 1   
    34   16   41 1   
    35   16   42 1   
    36   16   43 1   
    37   17   18 1   
    38   17   44 1   
    39   17   45 1   
    40   18   19 1   
    41   18   20 1   
    42   18   46 1   
    43   19   47 1   
    44   20   21 ar  
    45   20   25 ar  
    46   21   22 ar  
    47   21   48 1   
    48   22   23 ar  
    49   22   49 1   
    50   23   24 ar  
    51   23   50 1   
    52   24   25 ar  
    53   24   51 1   
    54   25   52 1   
@<TRIPOS>SUBSTRUCTURE
     1 LOB         1 TEMP              0 ****  ****    0 ROOT
