@<TRIPOS>MOLECULE
LOB
   52    54     1     0     0
SMALL
bcc


@<TRIPOS>ATOM
      1 O1         -3.7010   -1.0110   -1.6330 o         1 LOB     -0.534100
      2 C3         -3.7220   -0.1550   -0.7390 c         1 LOB      0.578700
      3 C1         -4.9980    0.2920   -0.1360 ca        1 LOB     -0.174600
      4 C2         -6.1100   -0.5610   -0.1970 ca        1 LOB     -0.084500
      5 C5         -7.3240   -0.1720    0.3650 ca        1 LOB     -0.142500
      6 C6         -7.4420    1.0740    0.9820 ca        1 LOB     -0.104000
      7 C7         -6.3420    1.9310    1.0350 ca        1 LOB     -0.142500
      8 C4         -5.1230    1.5420    0.4800 ca        1 LOB     -0.084500
      9 C8         -2.4730    0.5080   -0.2230 c3        1 LOB     -0.178400
     10 C9         -1.2240   -0.3680   -0.4200 c3        1 LOB      0.189500
     11 C12        -1.4020   -1.6310    0.4390 c3        1 LOB     -0.078400
     12 C15        -0.2340   -2.5680    0.2540 c3        1 LOB     -0.077400
     13 C13         1.0660   -1.8550    0.5400 c3        1 LOB     -0.079400
     14 C11         1.1970   -0.5610   -0.2780 c3        1 LOB      0.192500
     15 N1          0.0330    0.3300   -0.0880 n3        1 LOB     -0.725600
     16 C22         0.1740    1.5870   -0.7880 c3        1 LOB      0.148100
     17 C14         2.5210    0.1340    0.0830 c3        1 LOB     -0.111400
     18 C16         3.7330   -0.7980    0.0250 c3        1 LOB      0.183400
     19 O2          3.7570   -1.5630   -1.1690 oh        1 LOB     -0.588800
     20 C17         4.9960    0.0010    0.2020 ca        1 LOB     -0.114300
     21 C18         5.7330   -0.1200    1.3850 ca        1 LOB     -0.119500
     22 C20         6.9020    0.6190    1.5620 ca        1 LOB     -0.127500
     23 C21         7.3450    1.4810    0.5590 ca        1 LOB     -0.126000
     24 C10         6.6150    1.6030   -0.6230 ca        1 LOB     -0.127500
     25 C19         5.4450    0.8670   -0.8010 ca        1 LOB     -0.119500
     26 H2         -6.0110   -1.5370   -0.6990 ha        1 LOB      0.144000
     27 H5         -8.1910   -0.8480    0.3180 ha        1 LOB      0.137000
     28 H6         -8.4010    1.3820    1.4240 ha        1 LOB      0.135000
     29 H7         -6.4350    2.9160    1.5150 ha        1 LOB      0.137000
     30 H4         -4.2640    2.2290    0.5240 ha        1 LOB      0.144000
     31 H8C1       -2.5880    0.7520    0.8650 hc        1 LOB      0.073200
     32 H8C2       -2.3870    1.4720   -0.7920 hc        1 LOB      0.073200
     33 H9         -1.2130   -0.6910   -1.5080 h1        1 LOB      0.043700
     34 H121       -2.3520   -2.1380    0.1260 hc        1 LOB      0.051200
     35 H122       -1.4980   -1.3470    1.5190 hc        1 LOB      0.051200
     36 H151       -0.2260   -2.9580   -0.7990 hc        1 LOB      0.043700
     37 H152       -0.3400   -3.4500    0.9370 hc        1 LOB      0.043700
     38 H131        1.9180   -2.5310    0.2640 hc        1 LOB      0.052700
     39 H132        1.1430   -1.6170    1.6330 hc        1 LOB      0.052700
     40 H11         1.2730   -0.8650   -1.3710 h1        1 LOB      0.026700
     41 H221        0.1830    1.4790   -1.9070 h1        1 LOB      0.030700
     42 H222       -0.6660    2.2710   -0.4980 h1        1 LOB      0.030700
     43 H223        1.1190    2.0960   -0.4660 h1        1 LOB      0.030700
     44 H141        2.7120    0.9730   -0.6380 hc        1 LOB      0.054700
     45 H142        2.4580    0.5670    1.1140 hc        1 LOB      0.054700
     46 H16         3.6660   -1.5810    0.8370 h1        1 LOB      0.082700
     47 HA          3.8170   -0.9480   -1.9090 ho        1 LOB      0.398000
     48 H18         5.3910   -0.8030    2.1770 ha        1 LOB      0.129500
     49 H20         7.4760    0.5190    2.4950 ha        1 LOB      0.132500
     50 H21         8.2680    2.0610    0.6990 ha        1 LOB      0.133000
     51 H10         6.9630    2.2800   -1.4170 ha        1 LOB      0.132500
     52 H19         4.8720    0.9700   -1.7350 ha        1 LOB      0.129500
@<TRIPOS>BOND
     1    1    2 2   
     2    2    3 1   
     3    2    9 1   
     4    3    4 ar  
     5    3    8 ar  
     6    4    5 ar  
     7    4   26 1   
     8    5    6 ar  
     9    5   27 1   
    10    6    7 ar  
    11    6   28 1   
    12    7    8 ar  
    13    7   29 1   
    14    8   30 1   
    15    9   10 1   
    16    9   31 1   
    17    9   32 1   
    18   10   11 1   
    19   10   15 1   
    20   10   33 1   
    21   11   12 1   
    22   11   34 1   
    23   11   35 1   
    24   12   13 1   
    25   12   36 1   
    26   12   37 1   
    27   13   14 1   
    28   13   38 1   
    29   13   39 1   
    30   14   15 1   
    31   14   17 1   
    32   14   40 1   
    33   15   16 1   
    34   16   41 1   
    35   16   42 1   
    36   16   43 1   
    37   17   18 1   
    38   17   44 1   
    39   17   45 1   
    40   18   19 1   
    41   18   20 1   
    42   18   46 1   
    43   19   47 1   
    44   20   21 ar  
    45   20   25 ar  
    46   21   22 ar  
    47   21   48 1   
    48   22   23 ar  
    49   22   49 1   
    50   23   24 ar  
    51   23   50 1   
    52   24   25 ar  
    53   24   51 1   
    54   25   52 1   
@<TRIPOS>SUBSTRUCTURE
     1 LOB         1 TEMP              0 ****  ****    0 ROOT
