@<TRIPOS>MOLECULE
LOC
   55    57     1     0     0
SMALL
bcc


@<TRIPOS>ATOM
      1 O4          0.4320    0.9080    0.4280 o         1 LOC     -0.404100
      2 C12         1.0510   -0.0760    0.0580 c         1 LOC      0.561100
      3 C13         0.9870   -1.4700    0.5740 c3        1 LOC     -0.188100
      4 N1          2.0370    0.1720   -1.0720 ny        1 LOC     -0.688800
      5 C11         1.3770    0.0340   -2.4230 c3        1 LOC      0.152700
      6 C14         1.1520   -1.4010   -2.8620 cc        1 LOC     -0.019200
      7 C15         2.1200   -2.3200   -2.6660 cd        1 LOC     -0.263200
      8 C10         2.1750    0.7580   -3.5200 c3        1 LOC     -0.090400
      9 C9          1.5640    0.4470   -4.8800 c3        1 LOC     -0.036100
     10 C8          0.0770    0.5620   -4.8620 ca        1 LOC     -0.036300
     11 C7         -0.5120    1.6430   -5.5170 ca        1 LOC     -0.220000
     12 C5         -1.9010    1.8100   -5.4890 ca        1 LOC      0.158100
     13 C3         -2.7120    0.8960   -4.7760 ca        1 LOC      0.014100
     14 C1         -2.1110   -0.1910   -4.1160 ca        1 LOC      0.165100
     15 O1         -2.8000   -1.1370   -3.3900 os        1 LOC     -0.343900
     16 C2         -4.1010   -0.8030   -2.9040 c3        1 LOC      0.122700
     17 O2         -4.0660    1.1310   -4.6260 os        1 LOC     -0.332900
     18 C4         -4.8300    0.9780   -5.8270 c3        1 LOC      0.110700
     19 O3         -2.5720    2.8300   -6.1180 os        1 LOC     -0.306900
     20 C6         -1.7840    3.7440   -6.8790 c3        1 LOC      0.106700
     21 C22        -0.7060   -0.3890   -4.1820 ca        1 LOC     -0.137800
     22 C21        -0.0890   -1.5880   -3.5890 cc        1 LOC     -0.064200
     23 C20        -0.7010   -2.7930   -3.7590 cd        1 LOC     -0.007000
     24 C19        -0.3410   -4.0720   -3.2380 cd        1 LOC     -0.228000
     25 C17         0.9050   -4.4960   -2.9170 cc        1 LOC      0.062900
     26 C16         2.1470   -3.7120   -3.1350 c         1 LOC      0.575500
     27 O5          3.1650   -4.2040   -3.6250 o         1 LOC     -0.460100
     28 O6          1.2120   -5.7240   -2.3890 os        1 LOC     -0.299900
     29 C18         0.1510   -6.6720   -2.2810 c3        1 LOC      0.103700
     30 H13         0.9580   -2.2160   -0.2620 hc        1 LOC      0.116367
     31 H13A        1.8770   -1.6770    1.2240 hc        1 LOC      0.116367
     32 H13B        0.0580   -1.5790    1.1940 hc        1 LOC      0.116367
     33 HN1         2.8220   -0.4810   -0.9930 hn        1 LOC      0.455800
     34 H11         0.3720    0.5560   -2.3040 hx        1 LOC      0.138700
     35 H15         3.0770   -2.0570   -2.1780 ha        1 LOC      0.132000
     36 H10         2.1480    1.8640   -3.3350 hc        1 LOC      0.068200
     37 H10A        3.2450    0.4230   -3.5190 hc        1 LOC      0.068200
     38 H9          2.0060    1.1550   -5.6310 hc        1 LOC      0.081200
     39 H9A         1.8550   -0.5930   -5.1960 hc        1 LOC      0.081200
     40 H7          0.1210    2.3620   -6.0580 ha        1 LOC      0.152000
     41 H2         -4.8420   -0.8680   -3.7380 h1        1 LOC      0.057700
     42 H2A        -4.2940   -1.5960   -2.1370 h1        1 LOC      0.057700
     43 H2B        -4.1140    0.2150   -2.4480 h1        1 LOC      0.057700
     44 H4         -4.7630   -0.0740   -6.1930 h1        1 LOC      0.053033
     45 H4A        -5.8710    1.2250   -5.5010 h1        1 LOC      0.053033
     46 H4B        -4.4780    1.6920   -6.6100 h1        1 LOC      0.053033
     47 H6         -2.5490    4.4460   -7.3000 h1        1 LOC      0.055700
     48 H6A        -1.0700    4.2900   -6.2160 h1        1 LOC      0.055700
     49 H6B        -1.2410    3.2110   -7.6960 h1        1 LOC      0.055700
     50 H20        -1.6510   -2.8030   -4.3370 ha        1 LOC      0.169000
     51 H19        -1.1900   -4.7760   -3.1440 ha        1 LOC      0.160000
     52 H18        -0.2940   -6.8810   -3.2840 h1        1 LOC      0.060367
     53 H18A        0.6670   -7.5810   -1.8770 h1        1 LOC      0.060367
     54 H18B       -0.6270   -6.3070   -1.5680 h1        1 LOC      0.060367
     55 H12         2.3970    1.1330   -1.0010 hn        1 LOC      0.455800
@<TRIPOS>BOND
     1    1    2 2   
     2    2    3 1   
     3    2    4 1   
     4    3   30 1   
     5    3   31 1   
     6    3   32 1   
     7    4    5 1   
     8    4   33 1   
     9    4   55 1   
    10    5    6 1   
    11    5    8 1   
    12    5   34 1   
    13    6    7 2   
    14    6   22 1   
    15    7   26 1   
    16    7   35 1   
    17    8    9 1   
    18    8   36 1   
    19    8   37 1   
    20    9   10 1   
    21    9   38 1   
    22    9   39 1   
    23   10   11 ar  
    24   10   21 ar  
    25   11   12 ar  
    26   11   40 1   
    27   12   13 ar  
    28   12   19 1   
    29   13   14 ar  
    30   13   17 1   
    31   14   15 1   
    32   14   21 ar  
    33   15   16 1   
    34   16   41 1   
    35   16   42 1   
    36   16   43 1   
    37   17   18 1   
    38   18   44 1   
    39   18   45 1   
    40   18   46 1   
    41   19   20 1   
    42   20   47 1   
    43   20   48 1   
    44   20   49 1   
    45   21   22 1   
    46   22   23 2   
    47   23   24 1   
    48   23   50 1   
    49   24   25 2   
    50   24   51 1   
    51   25   26 1   
    52   25   28 1   
    53   26   27 2   
    54   28   29 1   
    55   29   52 1   
    56   29   53 1   
    57   29   54 1   
@<TRIPOS>SUBSTRUCTURE
     1 LOC         1 TEMP              0 ****  ****    0 ROOT
