@<TRIPOS>MOLECULE
LOC
   55    57     1     0     0
SMALL
bcc


@<TRIPOS>ATOM
      1 O4          0.5330    0.9170    0.4040 o         1 LOC     -0.404100
      2 C12         1.1300   -0.0770    0.0240 c         1 LOC      0.561100
      3 C13         1.0560   -1.4690    0.5440 c3        1 LOC     -0.188100
      4 N1          2.0960    0.1540   -1.1270 n4        1 LOC     -0.688800
      5 C11         1.4060    0.0190   -2.4640 c3        1 LOC      0.152700
      6 C14         1.1580   -1.4150   -2.8930 cc        1 LOC     -0.019200
      7 C15         2.1210   -2.3430   -2.7140 cd        1 LOC     -0.263200
      8 C10         2.1880    0.7320   -3.5790 c3        1 LOC     -0.090400
      9 C9          1.5470    0.4220   -4.9250 c3        1 LOC     -0.036100
     10 C8          0.0610    0.5520   -4.8770 ca        1 LOC     -0.036300
     11 C7         -0.5310    1.6370   -5.5230 ca        1 LOC     -0.220000
     12 C5         -1.9170    1.8170   -5.4670 ca        1 LOC      0.158100
     13 C3         -2.7220    0.9140   -4.7340 ca        1 LOC      0.014100
     14 C1         -2.1180   -0.1770   -4.0830 ca        1 LOC      0.165100
     15 O1         -2.8010   -1.1130   -3.3400 os        1 LOC     -0.343900
     16 C2         -4.0890   -0.7660   -2.8290 c3        1 LOC      0.122700
     17 O2         -4.0700    1.1630   -4.5560 os        1 LOC     -0.332900
     18 C4         -4.8600    1.0140   -5.7410 c3        1 LOC      0.110700
     19 O3         -2.5910    2.8420   -6.0850 os        1 LOC     -0.306900
     20 C6         -1.8090    3.7460   -6.8650 c3        1 LOC      0.106700
     21 C22        -0.7170   -0.3890   -4.1780 ca        1 LOC     -0.137800
     22 C21        -0.0990   -1.5920   -3.5940 cc        1 LOC     -0.064200
     23 C20        -0.7260   -2.7910   -3.7460 cd        1 LOC     -0.007000
     24 C19        -0.3680   -4.0720   -3.2280 cd        1 LOC     -0.228000
     25 C17         0.8800   -4.5080   -2.9320 cc        1 LOC      0.062900
     26 C16         2.1250   -3.7360   -3.1790 c         1 LOC      0.575500
     27 O5          3.1270   -4.2400   -3.6890 o         1 LOC     -0.460100
     28 O6          1.1860   -5.7370   -2.4070 os        1 LOC     -0.299900
     29 C18         0.1180   -6.6740   -2.2720 c3        1 LOC      0.103700
     30 H13         1.0000   -2.2160   -0.2890 hc        1 LOC      0.116367
     31 H13A        1.9560   -1.6870    1.1770 hc        1 LOC      0.116367
     32 H13B        0.1380   -1.5630    1.1840 hc        1 LOC      0.116367
     33 HN1         2.8740   -0.5070   -1.0610 hn        1 LOC      0.455800
     34 H11         0.4090    0.5510   -2.3260 hx        1 LOC      0.138700
     35 H15         3.0910   -2.0870   -2.2470 ha        1 LOC      0.132000
     36 H10         3.2550    0.3860   -3.5990 hc        1 LOC      0.068200
     37 H10A        2.1760    1.8390   -3.3970 hc        1 LOC      0.068200
     38 H9          1.9790    1.1240   -5.6880 hc        1 LOC      0.081200
     39 H9A         1.8200   -0.6220   -5.2430 hc        1 LOC      0.081200
     40 H7          0.0980    2.3480   -6.0800 ha        1 LOC      0.152000
     41 H2         -4.8470   -0.8260   -3.6470 h1        1 LOC      0.057700
     42 H2A        -4.2730   -1.5540   -2.0550 h1        1 LOC      0.057700
     43 H2B        -4.0820    0.2540   -2.3750 h1        1 LOC      0.057700
     44 H4         -4.5180    1.7230   -6.5330 h1        1 LOC      0.053033
     45 H4A        -4.8110   -0.0400   -6.1060 h1        1 LOC      0.053033
     46 H4B        -5.8920    1.2720   -5.3940 h1        1 LOC      0.053033
     47 H6         -1.2890    3.2050   -7.6920 h1        1 LOC      0.055700
     48 H6A        -1.0770    4.2870   -6.2200 h1        1 LOC      0.055700
     49 H6B        -2.5760    4.4540   -7.2730 h1        1 LOC      0.055700
     50 H20        -1.6880   -2.7940   -4.3040 ha        1 LOC      0.169000
     51 H19        -1.2220   -4.7670   -3.1140 ha        1 LOC      0.160000
     52 H18        -0.6410   -6.2990   -1.5440 h1        1 LOC      0.060367
     53 H18A       -0.3490   -6.8810   -3.2650 h1        1 LOC      0.060367
     54 H18B        0.6340   -7.5870   -1.8770 h1        1 LOC      0.060367
     55 H12         2.4680    1.1110   -1.0670 hn        1 LOC      0.455800
@<TRIPOS>BOND
     1    1    2 2   
     2    2    3 1   
     3    2    4 1   
     4    3   30 1   
     5    3   31 1   
     6    3   32 1   
     7    4    5 1   
     8    4   33 1   
     9    4   55 1   
    10    5    6 1   
    11    5    8 1   
    12    5   34 1   
    13    6    7 2   
    14    6   22 1   
    15    7   26 1   
    16    7   35 1   
    17    8    9 1   
    18    8   36 1   
    19    8   37 1   
    20    9   10 1   
    21    9   38 1   
    22    9   39 1   
    23   10   11 ar  
    24   10   21 ar  
    25   11   12 ar  
    26   11   40 1   
    27   12   13 ar  
    28   12   19 1   
    29   13   14 ar  
    30   13   17 1   
    31   14   15 1   
    32   14   21 ar  
    33   15   16 1   
    34   16   41 1   
    35   16   42 1   
    36   16   43 1   
    37   17   18 1   
    38   18   44 1   
    39   18   45 1   
    40   18   46 1   
    41   19   20 1   
    42   20   47 1   
    43   20   48 1   
    44   20   49 1   
    45   21   22 1   
    46   22   23 2   
    47   23   24 1   
    48   23   50 1   
    49   24   25 2   
    50   24   51 1   
    51   25   26 1   
    52   25   28 1   
    53   26   27 2   
    54   28   29 1   
    55   29   52 1   
    56   29   53 1   
    57   29   54 1   
@<TRIPOS>SUBSTRUCTURE
     1 LOC         1 TEMP              0 ****  ****    0 ROOT
