@<TRIPOS>MOLECULE
LOC
   54    56     1     0     0
SMALL
bcc


@<TRIPOS>ATOM
      1 O4         -0.9400    2.5570   -2.4650 o         1 LOC     -0.603100
      2 C12        -1.7730    3.0650   -1.6900 c         1 LOC      0.662100
      3 C13        -2.8560    3.9900   -2.1900 c3        1 LOC     -0.176100
      4 N1         -1.7280    2.8320   -0.3250 n         1 LOC     -0.572900
      5 C11        -0.8090    1.8970    0.2750 c3        1 LOC      0.124900
      6 C14        -1.4230    0.5520    0.6600 cc        1 LOC     -0.003200
      7 C15        -2.6610    0.5170    1.1950 cd        1 LOC     -0.256200
      8 C10        -0.1340    2.4710    1.5390 c3        1 LOC     -0.078400
      9 C9          0.6350    1.3940    2.2850 c3        1 LOC     -0.040100
     10 C8          1.4920    0.5890    1.3690 ca        1 LOC     -0.031300
     11 C7          2.8760    0.7750    1.4130 ca        1 LOC     -0.202000
     12 C5          3.7110    0.0900    0.5250 ca        1 LOC      0.121100
     13 C3          3.1510   -0.7770   -0.4360 ca        1 LOC      0.043100
     14 C1          1.7580   -0.9720   -0.4610 ca        1 LOC      0.133100
     15 O1          1.2180   -1.8760   -1.3640 os        1 LOC     -0.347900
     16 C2          1.2410   -1.4170   -2.7210 c3        1 LOC      0.113700
     17 O2          3.9230   -1.3510   -1.4310 os        1 LOC     -0.327900
     18 C4          4.7920   -2.3850   -0.9630 c3        1 LOC      0.117700
     19 O3          5.0880    0.1850    0.5190 os        1 LOC     -0.318900
     20 C6          5.6560    1.1480    1.4000 c3        1 LOC      0.111700
     21 C22         0.9110   -0.3160    0.4590 ca        1 LOC     -0.080800
     22 C21        -0.5370   -0.5860    0.4870 cc        1 LOC     -0.041200
     23 C20        -0.9550   -1.8710    0.3380 cd        1 LOC     -0.051000
     24 C19        -2.2880   -2.3840    0.2710 cd        1 LOC     -0.210000
     25 C17        -3.3890   -1.8470    0.8420 cc        1 LOC      0.044900
     26 C16        -3.3980   -0.6370    1.7070 c         1 LOC      0.585500
     27 O5         -4.0430   -0.5950    2.7600 o         1 LOC     -0.509100
     28 O6         -4.6610   -2.3660    0.7440 os        1 LOC     -0.305900
     29 C18        -4.8220   -3.5240   -0.0680 c3        1 LOC      0.106700
     30 H13        -2.7390    4.1120   -3.2940 hc        1 LOC      0.067033
     31 H13A       -3.8640    3.5600   -1.9770 hc        1 LOC      0.067033
     32 H13B       -2.7750    4.9910   -1.7030 hc        1 LOC      0.067033
     33 HN1        -2.4560    3.1890    0.2450 hn        1 LOC      0.304500
     34 H11        -0.0030    1.7040   -0.5030 h1        1 LOC      0.112700
     35 H15        -3.2330    1.4530    1.3390 ha        1 LOC      0.143000
     36 H10         0.5610    3.2960    1.2330 hc        1 LOC      0.051700
     37 H10A       -0.9020    2.9060    2.2290 hc        1 LOC      0.051700
     38 H9          1.2630    1.8860    3.0750 hc        1 LOC      0.059200
     39 H9A        -0.0860    0.7130    2.8140 hc        1 LOC      0.059200
     40 H7          3.3010    1.4740    2.1470 ha        1 LOC      0.142000
     41 H2          0.6250   -0.4920   -2.8240 h1        1 LOC      0.051367
     42 H2A         2.2920   -1.2330   -3.0510 h1        1 LOC      0.051367
     43 H2B         0.7850   -2.2670   -3.2880 h1        1 LOC      0.051367
     44 H4          5.3280   -2.7140   -1.8890 h1        1 LOC      0.044033
     45 H4A         5.5090   -1.9790   -0.2100 h1        1 LOC      0.044033
     46 H4B         4.1970   -3.2240   -0.5290 h1        1 LOC      0.044033
     47 H6          5.4520    0.8750    2.4640 h1        1 LOC      0.046367
     48 H6A         6.7520    1.0840    1.1790 h1        1 LOC      0.046367
     49 H6B         5.2680    2.1700    1.1750 h1        1 LOC      0.046367
     50 H20        -0.1780   -2.6510    0.1910 ha        1 LOC      0.154000
     51 H19        -2.3740   -3.3350   -0.2870 ha        1 LOC      0.142000
     52 H18        -4.4990   -3.3200   -1.1170 h1        1 LOC      0.048367
     53 H18A       -4.2520   -4.3850    0.3590 h1        1 LOC      0.048367
     54 H18B       -5.9240   -3.7190   -0.0220 h1        1 LOC      0.048367
@<TRIPOS>BOND
     1    1    2 2   
     2    2    3 1   
     3    2    4 1   
     4    3   30 1   
     5    3   31 1   
     6    3   32 1   
     7    4    5 1   
     8    4   33 1   
     9    5    6 1   
    10    5    8 1   
    11    5   34 1   
    12    6    7 2   
    13    6   22 1   
    14    7   26 1   
    15    7   35 1   
    16    8    9 1   
    17    8   36 1   
    18    8   37 1   
    19    9   10 1   
    20    9   38 1   
    21    9   39 1   
    22   10   11 ar  
    23   10   21 ar  
    24   11   12 ar  
    25   11   40 1   
    26   12   13 ar  
    27   12   19 1   
    28   13   14 ar  
    29   13   17 1   
    30   14   15 1   
    31   14   21 ar  
    32   15   16 1   
    33   16   41 1   
    34   16   42 1   
    35   16   43 1   
    36   17   18 1   
    37   18   44 1   
    38   18   45 1   
    39   18   46 1   
    40   19   20 1   
    41   20   47 1   
    42   20   48 1   
    43   20   49 1   
    44   21   22 1   
    45   22   23 2   
    46   23   24 1   
    47   23   50 1   
    48   24   25 2   
    49   24   51 1   
    50   25   26 1   
    51   25   28 1   
    52   26   27 2   
    53   28   29 1   
    54   29   52 1   
    55   29   53 1   
    56   29   54 1   
@<TRIPOS>SUBSTRUCTURE
     1 LOC         1 TEMP              0 ****  ****    0 ROOT
