@<TRIPOS>MOLECULE
LOC
   55    57     1     0     0
SMALL
bcc


@<TRIPOS>ATOM
      1 O4          0.4910    0.9410    0.4030 o         1 LOC     -0.404100
      2 C12         1.0950   -0.0530    0.0380 c         1 LOC      0.561100
      3 C13         1.0210   -1.4410    0.5700 c3        1 LOC     -0.188100
      4 N1          2.0720    0.1710   -1.1050 n4        1 LOC     -0.688800
      5 C11         1.3970    0.0260   -2.4470 c3        1 LOC      0.152700
      6 C14         1.1520   -1.4110   -2.8680 cc        1 LOC     -0.019200
      7 C15         2.1120   -2.3390   -2.6720 cd        1 LOC     -0.263200
      8 C10         2.1910    0.7300   -3.5600 c3        1 LOC     -0.090400
      9 C9          1.5640    0.4100   -4.9100 c3        1 LOC     -0.036100
     10 C8          0.0780    0.5410   -4.8790 ca        1 LOC     -0.036300
     11 C7         -0.5060    1.6220   -5.5400 ca        1 LOC     -0.220000
     12 C5         -1.8930    1.8040   -5.5000 ca        1 LOC      0.158100
     13 C3         -2.7060    0.9060   -4.7690 ca        1 LOC      0.014100
     14 C1         -2.1100   -0.1800   -4.1030 ca        1 LOC      0.165100
     15 O1         -2.8020   -1.1100   -3.3600 os        1 LOC     -0.343900
     16 C2         -4.0950   -0.7570   -2.8640 c3        1 LOC      0.122700
     17 O2         -4.0560    1.1580   -4.6070 os        1 LOC     -0.332900
     18 C4         -4.8340    1.0000   -5.7990 c3        1 LOC      0.110700
     19 O3         -2.5590    2.8240   -6.1330 os        1 LOC     -0.306900
     20 C6         -1.7690    3.7210   -6.9120 c3        1 LOC      0.106700
     21 C22        -0.7080   -0.3930   -4.1810 ca        1 LOC     -0.137800
     22 C21        -0.0980   -1.5930   -3.5810 cc        1 LOC     -0.064200
     23 C20        -0.7240   -2.7920   -3.7320 cd        1 LOC     -0.007000
     24 C19        -0.3730   -4.0690   -3.2000 cd        1 LOC     -0.228000
     25 C17         0.8720   -4.5040   -2.8870 cc        1 LOC      0.062900
     26 C16         2.1200   -3.7350   -3.1260 c         1 LOC      0.575500
     27 O5          3.1270   -4.2430   -3.6200 o         1 LOC     -0.460100
     28 O6          1.1710   -5.7290   -2.3490 os        1 LOC     -0.299900
     29 C18         0.1010   -6.6650   -2.2190 c3        1 LOC      0.103700
     30 H13         1.9150   -1.6500    1.2130 hc        1 LOC      0.116367
     31 H13A        0.0970   -1.5320    1.2000 hc        1 LOC      0.116367
     32 H13B        0.9760   -2.1960   -0.2580 hc        1 LOC      0.116367
     33 HN1         2.4430    1.1290   -1.0480 hn        1 LOC      0.455800
     34 H11         0.3980    0.5600   -2.3240 hx        1 LOC      0.138700
     35 H15         3.0760   -2.0800   -2.1960 ha        1 LOC      0.132000
     36 H10         3.2580    0.3830   -3.5660 hc        1 LOC      0.068200
     37 H10A        2.1780    1.8380   -3.3870 hc        1 LOC      0.068200
     38 H9          2.0050    1.1060   -5.6740 hc        1 LOC      0.081200
     39 H9A         1.8400   -0.6360   -5.2170 hc        1 LOC      0.081200
     40 H7          0.1290    2.3280   -6.0950 ha        1 LOC      0.152000
     41 H2         -4.2870   -1.5390   -2.0860 h1        1 LOC      0.057700
     42 H2A        -4.8450   -0.8230   -3.6900 h1        1 LOC      0.057700
     43 H2B        -4.0910    0.2660   -2.4190 h1        1 LOC      0.057700
     44 H4         -5.8690    1.2610   -5.4650 h1        1 LOC      0.053033
     45 H4A        -4.7820   -0.0570   -6.1540 h1        1 LOC      0.053033
     46 H4B        -4.4830    1.7030   -6.5920 h1        1 LOC      0.053033
     47 H6         -1.2400    3.1730   -7.7290 h1        1 LOC      0.055700
     48 H6A        -1.0420    4.2670   -6.2630 h1        1 LOC      0.055700
     49 H6B        -2.5310    4.4260   -7.3330 h1        1 LOC      0.055700
     50 H20        -1.6800   -2.7990   -4.3000 ha        1 LOC      0.169000
     51 H19        -1.2290   -4.7630   -3.0900 ha        1 LOC      0.160000
     52 H18        -0.6660   -6.2830   -1.5030 h1        1 LOC      0.060367
     53 H18A       -0.3560   -6.8790   -3.2160 h1        1 LOC      0.060367
     54 H18B        0.6120   -7.5750   -1.8110 h1        1 LOC      0.060367
     55 H12         2.8500   -0.4890   -1.0260 hn        1 LOC      0.455800
@<TRIPOS>BOND
     1    1    2 2   
     2    2    3 1   
     3    2    4 1   
     4    3   30 1   
     5    3   31 1   
     6    3   32 1   
     7    4    5 1   
     8    4   33 1   
     9    4   55 1   
    10    5    6 1   
    11    5    8 1   
    12    5   34 1   
    13    6    7 2   
    14    6   22 1   
    15    7   26 1   
    16    7   35 1   
    17    8    9 1   
    18    8   36 1   
    19    8   37 1   
    20    9   10 1   
    21    9   38 1   
    22    9   39 1   
    23   10   11 ar  
    24   10   21 ar  
    25   11   12 ar  
    26   11   40 1   
    27   12   13 ar  
    28   12   19 1   
    29   13   14 ar  
    30   13   17 1   
    31   14   15 1   
    32   14   21 ar  
    33   15   16 1   
    34   16   41 1   
    35   16   42 1   
    36   16   43 1   
    37   17   18 1   
    38   18   44 1   
    39   18   45 1   
    40   18   46 1   
    41   19   20 1   
    42   20   47 1   
    43   20   48 1   
    44   20   49 1   
    45   21   22 1   
    46   22   23 2   
    47   23   24 1   
    48   23   50 1   
    49   24   25 2   
    50   24   51 1   
    51   25   26 1   
    52   25   28 1   
    53   26   27 2   
    54   28   29 1   
    55   29   52 1   
    56   29   53 1   
    57   29   54 1   
@<TRIPOS>SUBSTRUCTURE
     1 LOC         1 TEMP              0 ****  ****    0 ROOT
