@<TRIPOS>MOLECULE
LOC
   54    50     1     0     0
SMALL
bcc


@<TRIPOS>ATOM
      1 O4         -0.4500    0.9640    4.1430 o         1 LOC     -0.362000
      2 C12         0.7510    0.6550    4.1820 c1        1 LOC      0.307000
      3 C13         1.5070    0.6550    5.5320 c2        1 LOC     -0.243000
      4 N1          1.4740    0.3590    2.9370 n3        1 LOC     -0.383000
      5 C11         0.7970    0.4290    1.6890 c3        1 LOC      0.043000
      6 C14         1.3660   -0.6180    0.7400 c2        1 LOC      0.002000
      7 C15         2.4050   -1.6760    1.2650 c1        1 LOC     -0.234000
      8 C10         1.0560    1.7470    1.0550 c3        1 LOC     -0.158000
      9 C9          1.3570    1.5770   -0.4520 c3        1 LOC     -0.126000
     10 C8          0.0340    1.2290   -1.2420 c2        1 LOC     -0.023000
     11 C7         -0.6790    2.1730   -1.9820 c2        1 LOC     -0.203000
     12 C5         -2.0850    2.0590   -2.1040 c1        1 LOC      0.077000
     13 C3         -2.7580    0.9980   -1.4810 c1        1 LOC     -0.002000
     14 C1         -2.0470    0.0590   -0.7460 c1        1 LOC      0.090000
     15 O1         -2.7160   -1.1410   -0.2610 o         1 LOC     -0.231000
     16 C2         -3.7470   -0.8900    0.6510 c3        1 LOC     -0.076000
     17 O2         -4.1720    0.9010   -1.5770 os        1 LOC     -0.210000
     18 C4         -4.6360    0.4300   -2.8330 c3        1 LOC     -0.073000
     19 O3         -2.7940    2.9780   -2.8570 os        1 LOC     -0.201000
     20 C6         -2.9540    4.2580   -2.2220 c3        1 LOC     -0.078000
     21 C22        -0.6410    0.1740   -0.6240 c2        1 LOC     -0.074000
     22 C21         0.3440   -1.0170   -0.3140 c2        1 LOC     -0.044000
     23 C20         0.7340   -1.9790   -1.4070 c1        1 LOC     -0.063000
     24 C19         1.7360   -3.0690   -1.1230 c1        1 LOC     -0.142000
     25 C17         3.2040   -2.7130   -0.8800 c1        1 LOC     -0.001000
     26 C16         3.6210   -2.0360    0.4190 c1        1 LOC      0.286000
     27 O5          4.8140   -1.7060    0.6990 o         1 LOC     -0.306000
     28 O6          4.1810   -3.1070   -1.8040 os        1 LOC     -0.215000
     29 C18         4.5930   -4.4440   -1.6620 c3        1 LOC     -0.074000
     30 H13         1.7710   -0.2550    5.7540 ha        1 LOC      0.106333
     31 H13A        0.9350    1.0000    6.2200 ha        1 LOC      0.106333
     32 H13B        2.3400    1.2400    5.4570 ha        1 LOC      0.106333
     33 HN1         2.3030    0.0440    2.9720 hn        1 LOC      0.218000
     34 H11        -0.1530    0.2740    1.9820 h1        1 LOC      0.153000
     35 H15         2.2650   -2.1140    2.1310 ha        1 LOC      0.141000
     36 H10         0.2520    2.3050    1.1520 hc        1 LOC      0.091000
     37 H10A        1.8720    2.1740    1.5090 hc        1 LOC      0.091000
     38 H9          1.7240    2.4300   -0.8000 hc        1 LOC      0.098500
     39 H9A         1.9850    0.8460   -0.5620 hc        1 LOC      0.098500
     40 H7         -0.2130    2.9040   -2.4120 ha        1 LOC      0.142000
     41 H2         -3.9710    0.0460    0.6340 h1        1 LOC      0.091333
     42 H2A        -4.5580   -1.4360    0.3980 h1        1 LOC      0.091333
     43 H2B        -3.4610   -1.1330    1.5290 h1        1 LOC      0.091333
     44 H4         -5.1260    1.1740   -3.3140 h1        1 LOC      0.083667
     45 H4A        -3.8820    0.1410   -3.3710 h1        1 LOC      0.083667
     46 H4B        -5.2730   -0.3590   -2.6850 h1        1 LOC      0.083667
     47 H6         -2.1050    4.7320   -2.2300 h1        1 LOC      0.086000
     48 H6A        -3.2560    4.1260   -1.2720 h1        1 LOC      0.086000
     49 H6B        -3.5810    4.7470   -2.6770 h1        1 LOC      0.086000
     50 H20         0.3350   -1.9070   -2.2790 ha        1 LOC      0.157000
     51 H19         1.4400   -3.9640   -1.0010 ha        1 LOC      0.154000
     52 H18         3.9950   -5.0280   -2.1730 h1        1 LOC      0.089667
     53 H18A        5.5030   -4.5400   -1.9970 h1        1 LOC      0.089667
     54 H18B        4.5640   -4.6970   -0.7070 h1        1 LOC      0.089667
@<TRIPOS>BOND
     1    1    2 1   
     2    2    4 1   
     3    3   30 1   
     4    3   31 1   
     5    3   32 1   
     6    4    5 1   
     7    4   33 1   
     8    5    6 1   
     9    5    8 1   
    10    5   34 1   
    11    6    7 1   
    12    6   22 1   
    13    7   35 1   
    14    8    9 1   
    15    8   36 1   
    16    8   37 1   
    17    9   10 1   
    18    9   38 1   
    19    9   39 1   
    20   10   11 1   
    21   10   21 1   
    22   11   12 1   
    23   11   40 1   
    24   12   19 1   
    25   13   14 1   
    26   13   17 1   
    27   14   21 1   
    28   15   16 1   
    29   16   41 1   
    30   16   42 1   
    31   16   43 1   
    32   17   18 1   
    33   18   44 1   
    34   18   45 1   
    35   18   46 1   
    36   19   20 1   
    37   20   47 1   
    38   20   48 1   
    39   20   49 1   
    40   21   22 1   
    41   22   23 1   
    42   23   50 1   
    43   24   25 1   
    44   24   51 1   
    45   25   28 1   
    46   26   27 1   
    47   28   29 1   
    48   29   52 1   
    49   29   53 1   
    50   29   54 1   
@<TRIPOS>SUBSTRUCTURE
     1 LOC         1 TEMP              0 ****  ****    0 ROOT
