@<TRIPOS>MOLECULE
LOF
   21    21     1     0     0
SMALL
bcc


@<TRIPOS>ATOM
      1 C1         -0.1220    0.2360    2.7420 c         1 LOF      0.893600
      2 O1          0.6190   -0.2740    3.6320 o         1 LOF     -0.833300
      3 O2         -1.2640    0.7270    2.9420 o         1 LOF     -0.833300
      4 C2          0.4450    0.2470    1.2950 c3        1 LOF      0.016100
      5 O3          1.7760   -0.2420    1.2530 oh        1 LOF     -0.654800
      6 C3         -0.4520   -0.5960    0.3910 c3        1 LOF     -0.057100
      7 C1'        -0.3210   -0.2900   -1.0580 ca        1 LOF     -0.041300
      8 C2'         0.9420   -0.1730   -1.6570 ca        1 LOF     -0.132500
      9 C3'         1.0550    0.0830   -3.0210 ca        1 LOF     -0.143500
     10 C4'        -0.0880    0.2260   -3.8080 ca        1 LOF     -0.159000
     11 C5'        -1.3470    0.1170   -3.2200 ca        1 LOF     -0.143500
     12 C6'        -1.4640   -0.1390   -1.8550 ca        1 LOF     -0.132500
     13 H2          0.4870    1.3050    0.9200 h1        1 LOF      0.043700
     14 HO3         1.9640   -0.6290    2.1250 ho        1 LOF      0.427000
     15 H31        -0.2020   -1.6800    0.5490 hc        1 LOF      0.061200
     16 H32        -1.5120   -0.4310    0.7260 hc        1 LOF      0.061200
     17 H2'         1.8390   -0.2760   -1.0230 ha        1 LOF      0.146500
     18 H3'         2.0500    0.1740   -3.4790 ha        1 LOF      0.112000
     19 H4'         0.0040    0.4280   -4.8830 ha        1 LOF      0.109000
     20 H5'        -2.2510    0.2350   -3.8340 ha        1 LOF      0.112000
     21 H6'        -2.4600   -0.2160   -1.3940 ha        1 LOF      0.146500
@<TRIPOS>BOND
     1    1    2 1   
     2    1    3 1   
     3    1    4 1   
     4    4    5 1   
     5    4    6 1   
     6    4   13 1   
     7    5   14 1   
     8    6    7 1   
     9    6   15 1   
    10    6   16 1   
    11    7    8 ar  
    12    7   12 ar  
    13    8    9 ar  
    14    8   17 1   
    15    9   10 ar  
    16    9   18 1   
    17   10   11 ar  
    18   10   19 1   
    19   11   12 ar  
    20   11   20 1   
    21   12   21 1   
@<TRIPOS>SUBSTRUCTURE
     1 LOF         1 TEMP              0 ****  ****    0 ROOT
