@<TRIPOS>MOLECULE
LOF
   21    21     1     0     0
SMALL
bcc


@<TRIPOS>ATOM
      1 C1          0.0830    0.2280   -0.4170 c         1 LOF      0.892600
      2 O1         -0.8060    0.3700    0.4720 o         1 LOF     -0.833800
      3 O2         -0.1290    0.1860   -1.6580 o         1 LOF     -0.833800
      4 C2          1.5480    0.0980    0.0830 c3        1 LOF      0.019100
      5 O3          1.6450    0.2820    1.4850 oh        1 LOF     -0.643800
      6 C3          2.1020   -1.2780   -0.2950 c3        1 LOF     -0.058100
      7 C1'         3.5720   -1.2770   -0.5130 ca        1 LOF     -0.032300
      8 C2'         4.4350   -1.9410    0.3680 ca        1 LOF     -0.132500
      9 C3'         5.8100   -1.9480    0.1400 ca        1 LOF     -0.139000
     10 C4'         6.3410   -1.2930   -0.9690 ca        1 LOF     -0.160000
     11 C5'         5.4900   -0.6240   -1.8490 ca        1 LOF     -0.139000
     12 C6'         4.1160   -0.6150   -1.6250 ca        1 LOF     -0.132500
     13 H2          2.1710    0.9070   -0.3870 h1        1 LOF      0.041700
     14 HO3         0.7370    0.2770    1.8330 ho        1 LOF      0.424000
     15 H31         1.8290   -2.0090    0.5100 hc        1 LOF      0.059700
     16 H32         1.5930   -1.5950   -1.2470 hc        1 LOF      0.059700
     17 H2'         4.0200   -2.4490    1.2510 ha        1 LOF      0.138500
     18 H3'         6.4770   -2.4700    0.8410 ha        1 LOF      0.112500
     19 H4'         7.4250   -1.2990   -1.1470 ha        1 LOF      0.109000
     20 H5'         5.9050   -0.1010   -2.7220 ha        1 LOF      0.112500
     21 H6'         3.4390   -0.0850   -2.3130 ha        1 LOF      0.138500
@<TRIPOS>BOND
     1    1    2 1   
     2    1    3 1   
     3    1    4 1   
     4    4    5 1   
     5    4    6 1   
     6    4   13 1   
     7    5   14 1   
     8    6    7 1   
     9    6   15 1   
    10    6   16 1   
    11    7    8 ar  
    12    7   12 ar  
    13    8    9 ar  
    14    8   17 1   
    15    9   10 ar  
    16    9   18 1   
    17   10   11 ar  
    18   10   19 1   
    19   11   12 ar  
    20   11   20 1   
    21   12   21 1   
@<TRIPOS>SUBSTRUCTURE
     1 LOF         1 TEMP              0 ****  ****    0 ROOT
