@<TRIPOS>MOLECULE
LOF
   21    21     1     0     0
SMALL
bcc


@<TRIPOS>ATOM
      1 C1          0.0830    0.2290   -0.4250 c         1 LOF      0.892600
      2 O1         -0.8090    0.3680    0.4600 o         1 LOF     -0.833800
      3 O2         -0.1240    0.1930   -1.6670 o         1 LOF     -0.833800
      4 C2          1.5470    0.0970    0.0800 c3        1 LOF      0.019100
      5 O3          1.6370    0.2750    1.4830 oh        1 LOF     -0.643800
      6 C3          2.1010   -1.2780   -0.3020 c3        1 LOF     -0.058100
      7 C1'         3.5730   -1.2770   -0.5140 ca        1 LOF     -0.032300
      8 C2'         4.4310   -1.9460    0.3670 ca        1 LOF     -0.132500
      9 C3'         5.8070   -1.9530    0.1460 ca        1 LOF     -0.139000
     10 C4'         6.3430   -1.2910   -0.9580 ca        1 LOF     -0.160000
     11 C5'         5.4960   -0.6180   -1.8390 ca        1 LOF     -0.139000
     12 C6'         4.1210   -0.6100   -1.6200 ca        1 LOF     -0.132500
     13 H2          2.1720    0.9070   -0.3840 h1        1 LOF      0.041700
     14 HO3         0.7290    0.2680    1.8270 ho        1 LOF      0.424000
     15 H31         1.8250   -2.0130    0.4980 hc        1 LOF      0.059700
     16 H32         1.5960   -1.5910   -1.2580 hc        1 LOF      0.059700
     17 H2'         4.0120   -2.4580    1.2460 ha        1 LOF      0.138500
     18 H3'         6.4710   -2.4790    0.8460 ha        1 LOF      0.112500
     19 H4'         7.4280   -1.2970   -1.1320 ha        1 LOF      0.109000
     20 H5'         5.9150   -0.0910   -2.7070 ha        1 LOF      0.112500
     21 H6'         3.4480   -0.0750   -2.3080 ha        1 LOF      0.138500
@<TRIPOS>BOND
     1    1    2 1   
     2    1    3 1   
     3    1    4 1   
     4    4    5 1   
     5    4    6 1   
     6    4   13 1   
     7    5   14 1   
     8    6    7 1   
     9    6   15 1   
    10    6   16 1   
    11    7    8 ar  
    12    7   12 ar  
    13    8    9 ar  
    14    8   17 1   
    15    9   10 ar  
    16    9   18 1   
    17   10   11 ar  
    18   10   19 1   
    19   11   12 ar  
    20   11   20 1   
    21   12   21 1   
@<TRIPOS>SUBSTRUCTURE
     1 LOF         1 TEMP              0 ****  ****    0 ROOT
