@<TRIPOS>MOLECULE
LOG
   30    30     1     0     0
SMALL
bcc


@<TRIPOS>ATOM
      1 C2          0.7680    0.3040   -0.0600 c3        1 LOG      0.083400
      2 C3         -0.1130    1.4190    0.5690 c3        1 LOG      0.135100
      3 C4         -1.5140    1.3700   -0.0710 c3        1 LOG      0.076100
      4 C5         -2.1380   -0.0170    0.1060 c3        1 LOG      0.071100
      5 C6         -3.4240   -0.1760   -0.7140 c3        1 LOG      0.137400
      6 C8          4.5730    0.2980    0.2310 c3        1 LOG     -0.173100
      7 N2          2.1140    0.3090    0.4260 n         1 LOG     -0.557900
      8 O1         -0.2360   -3.1110    0.8950 oh        1 LOG     -0.334500
      9 O3          0.5000    2.6640    0.2940 oh        1 LOG     -0.585800
     10 O4         -2.2680    2.3590    0.6140 oh        1 LOG     -0.599800
     11 O5         -1.2610   -1.0360   -0.4000 os        1 LOG     -0.443400
     12 O6         -4.0820   -1.3820   -0.4000 oh        1 LOG     -0.591800
     13 C1          0.0130   -1.0080    0.1720 c2        1 LOG      0.504600
     14 O7          3.0730    0.2410   -1.6570 o         1 LOG     -0.601100
     15 N1          0.5260   -2.0510    0.7670 n2        1 LOG     -0.451200
     16 H2          0.7970    0.4620   -1.1850 h1        1 LOG      0.127700
     17 H3         -0.2050    1.2770    1.6820 h1        1 LOG      0.055700
     18 HA          2.2500    0.3140    1.4070 hn        1 LOG      0.316500
     19 H4         -1.4380    1.6270   -1.1640 h1        1 LOG      0.067700
     20 HB         -0.1090    3.3440    0.6140 ho        1 LOG      0.423000
     21 H5         -2.3430   -0.2160    1.1930 h1        1 LOG      0.078700
     22 HC         -3.1120    2.4420    0.1550 ho        1 LOG      0.414000
     23 H61C       -4.1500    0.6340   -0.4390 h1        1 LOG      0.054200
     24 H62C       -3.1860   -0.1310   -1.8100 h1        1 LOG      0.054200
     25 H6         -3.4590   -2.1010   -0.5760 ho        1 LOG      0.422000
     26 H81C        4.7080    1.2350    0.8230 hc        1 LOG      0.068367
     27 H82C        4.6990   -0.5840    0.9040 hc        1 LOG      0.068367
     28 H83C        5.3510    0.2590   -0.5700 hc        1 LOG      0.068367
     29 H1          0.3610   -3.7960    1.2620 ho        1 LOG      0.439000
     30 C7          3.2120    0.2780   -0.4200 c         1 LOG      0.673100
@<TRIPOS>BOND
     1    1    2 1   
     2    1    7 1   
     3    1   13 1   
     4    1   16 1   
     5    2    3 1   
     6    2    9 1   
     7    2   17 1   
     8    3    4 1   
     9    3   10 1   
    10    3   19 1   
    11    4    5 1   
    12    4   11 1   
    13    4   21 1   
    14    5   12 1   
    15    5   23 1   
    16    5   24 1   
    17    6   26 1   
    18    6   27 1   
    19    6   28 1   
    20    6   30 1   
    21    7   18 1   
    22    7   30 1   
    23    8   15 1   
    24    8   29 1   
    25    9   20 1   
    26   10   22 1   
    27   11   13 1   
    28   12   25 1   
    29   13   15 2   
    30   14   30 2   
@<TRIPOS>SUBSTRUCTURE
     1 LOG         1 TEMP              0 ****  ****    0 ROOT
