@<TRIPOS>MOLECULE
LOG
   30    29     1     0     0
SMALL
bcc


@<TRIPOS>ATOM
      1 C2         -0.4590   -0.1900   -0.7960 c3        1 LOG      0.048000
      2 C3          1.0540   -0.1810   -0.7910 c3        1 LOG      0.015000
      3 C4          1.6270   -0.1800    0.5920 c3        1 LOG      0.007000
      4 C5          1.0580    0.9310    1.4570 c3        1 LOG     -0.035000
      5 C6          1.5720    2.2690    0.9360 c3        1 LOG     -0.042000
      6 C7         -1.7120   -2.2570   -1.3460 c1        1 LOG      0.310000
      7 C8         -2.2930   -3.6110   -0.9300 c2        1 LOG     -0.240000
      8 N2         -0.9820   -1.4880   -0.4160 n3        1 LOG     -0.375000
      9 O1         -2.2610    2.8530    0.5980 oh        1 LOG     -0.244000
     10 O3          1.5110    0.9950   -1.4810 oh        1 LOG     -0.323000
     11 O4          1.3410   -1.4330    1.2070 oh        1 LOG     -0.330000
     12 O5         -0.3830    0.9580    1.4670 os        1 LOG     -0.232000
     13 O6          1.4950    3.2330    1.9590 oh        1 LOG     -0.324000
     14 C1         -0.9670    0.9580    0.1290 c2        1 LOG      0.016000
     15 O7         -1.9050   -1.8300   -2.4710 o         1 LOG     -0.372000
     16 N1         -1.8540    1.8620   -0.2680 n2        1 LOG     -0.055000
     17 H2         -0.8200   -0.0950   -1.7070 h1        1 LOG      0.156000
     18 H3          1.3770   -0.9750   -1.2680 h1        1 LOG      0.112000
     19 HA         -0.8040   -1.8250    0.4110 hn        1 LOG      0.246000
     20 H4          2.5830   -0.0720    0.5340 h1        1 LOG      0.107000
     21 HB          2.0240    0.7580   -2.1550 ho        1 LOG      0.218000
     22 H5          1.3830    0.8050    2.3930 h1        1 LOG      0.129000
     23 HC          2.0580   -1.7180    1.6430 ho        1 LOG      0.212000
     24 H61C        2.5140    2.1710    0.6450 h1        1 LOG      0.103500
     25 H62C        1.0230    2.5560    0.1750 h1        1 LOG      0.103500
     26 H6          2.0330    3.9160    1.7650 ho        1 LOG      0.221000
     27 H81C       -2.9220   -3.4820   -0.1830 ha        1 LOG      0.108333
     28 H82C       -1.5590   -4.2100   -0.6440 ha        1 LOG      0.108333
     29 H83C       -2.7690   -4.0140   -1.6930 ha        1 LOG      0.108333
     30 H1         -2.9590    3.2960    0.2400 ho        1 LOG      0.243000
@<TRIPOS>BOND
     1    1    2 1   
     2    1    8 1   
     3    1   14 1   
     4    1   17 1   
     5    2    3 1   
     6    2   10 1   
     7    2   18 1   
     8    3    4 1   
     9    3   11 1   
    10    3   20 1   
    11    4    5 1   
    12    4   12 1   
    13    4   22 1   
    14    5   13 1   
    15    5   24 1   
    16    5   25 1   
    17    6    8 1   
    18    6   15 1   
    19    7   27 1   
    20    7   28 1   
    21    7   29 1   
    22    8   19 1   
    23    9   16 1   
    24    9   30 1   
    25   10   21 1   
    26   11   23 1   
    27   12   14 1   
    28   13   26 1   
    29   14   16 1   
@<TRIPOS>SUBSTRUCTURE
     1 LOG         1 TEMP              0 ****  ****    0 ROOT
