@<TRIPOS>MOLECULE
LOI
   40    34     1     0     0
SMALL
bcc


@<TRIPOS>ATOM
      1 C4          0.2620   -0.6770   -2.8920 c1        1 LOI     -0.005000
      2 C5          1.6450   -0.8070   -2.7820 c1        1 LOI     -0.236000
      3 C6          0.1040   -0.3520   -0.5130 c1        1 LOI      0.025000
      4 C7          1.5130   -0.0390    5.8700 c1        1 LOI     -0.529000
      5 C8         -4.8110    1.3670   -3.5520 c1        1 LOI     -0.208500
      6 C10        -0.5060   -0.4500   -1.7600 c1        1 LOI     -0.361000
      7 C13         1.5540    0.2200    3.4030 c1        1 LOI     -0.167000
      8 C15         1.9950   -0.3190    1.0180 c1        1 LOI      0.361000
      9 C1          0.3780    2.2350    6.5260 c3        1 LOI     -0.147000
     10 C2          4.5030   -1.5400   -2.3020 c3        1 LOI     -0.081000
     11 C3         -5.4300   -0.8320   -3.2110 c3        1 LOI     -0.080000
     12 C9          0.9570    1.2460    5.5330 c2        1 LOI     -0.052000
     13 C11         2.2550   -0.7090   -1.5390 c1        1 LOI      0.193000
     14 C12         1.4840   -0.4810   -0.4020 c1        1 LOI     -0.226000
     15 C14        -3.1440    0.3250   -2.6250 c1        1 LOI     -0.208500
     16 N16        -3.8180    2.2560   -3.3580 n2        1 LOI     -0.086500
     17 N17         0.9860    1.4050    3.9650 n2        1 LOI     -0.153000
     18 N18        -2.7900    1.6100   -2.7850 n2        1 LOI     -0.086500
     19 N19         3.7070   -0.6840   -1.4460 n3        1 LOI     -0.313000
     20 N20         1.0680   -0.0590    2.0870 n2        1 LOI     -0.283000
     21 N21        -4.3970    0.1770   -3.1010 n3        1 LOI     -0.154000
     22 O22         3.1770   -0.3020    1.2310 o         1 LOI     -0.383000
     23 S23         1.9090   -0.7350    4.5660 ss        1 LOI      0.592000
     24 S24        -2.2090   -0.9070   -1.7710 s         1 LOI      0.411000
     25 H4         -0.1670   -0.7460   -3.7660 ha        1 LOI      0.143000
     26 H5          2.1850   -0.9670   -3.5800 ha        1 LOI      0.143000
     27 H6         -0.4420   -0.1900    0.2920 ha        1 LOI      0.159000
     28 H7          1.6190   -0.4030    6.7720 DU        1 LOI      0.193500
     29 H8         -5.6790    1.5570   -3.9520 DU        1 LOI      0.193500
     30 H1         -0.5320    1.9620    6.7660 hc        1 LOI      0.090000
     31 H1A         0.9330    2.2550    7.3270 hc        1 LOI      0.090000
     32 H1B         0.3550    3.1320    6.1200 hc        1 LOI      0.090000
     33 H2          4.2790   -1.3610   -3.2450 h1        1 LOI      0.082667
     34 H2A         5.4600   -1.3570   -2.1510 h1        1 LOI      0.082667
     35 H2B         4.3130   -2.4800   -2.0930 h1        1 LOI      0.082667
     36 H3         -5.6660   -0.9590   -4.1590 h1        1 LOI      0.101667
     37 H3A        -5.0990   -1.6840   -2.8380 h1        1 LOI      0.101667
     38 H3B        -6.2220   -0.5440   -2.7140 h1        1 LOI      0.101667
     39 HN19        4.1150   -0.1220   -0.8580 hn        1 LOI      0.254000
     40 HN20        0.1570   -0.0430    1.9170 hn        1 LOI      0.270000
@<TRIPOS>BOND
     1    1    6 1   
     2    1   25 1   
     3    2   13 1   
     4    2   26 1   
     5    3   14 1   
     6    3   27 1   
     7    4   12 1   
     8    4   23 1   
     9    5   16 1   
    10    5   21 1   
    11    6   24 1   
    12    7   17 1   
    13    7   23 1   
    14    8   20 1   
    15    8   22 1   
    16    9   12 1   
    17    9   30 1   
    18    9   31 1   
    19    9   32 1   
    20   10   19 1   
    21   10   33 1   
    22   10   34 1   
    23   10   35 1   
    24   11   21 1   
    25   11   36 1   
    26   11   37 1   
    27   11   38 1   
    28   12   17 1   
    29   13   19 1   
    30   15   18 1   
    31   15   21 1   
    32   16   18 1   
    33   19   39 1   
    34   20   40 1   
@<TRIPOS>SUBSTRUCTURE
     1 LOI         1 TEMP              0 ****  ****    0 ROOT
