@<TRIPOS>MOLECULE
LOI
   40    42     1     0     0
SMALL
bcc


@<TRIPOS>ATOM
      1 C4         -2.4510   -2.0750   -0.2160 ca        1 LOI      0.015000
      2 C5         -1.4780   -2.9660    0.1930 ca        1 LOI     -0.232000
      3 C6         -0.7630   -0.4560   -0.7830 ca        1 LOI      0.001000
      4 C7          5.6030    1.3590   -0.5300 cc        1 LOI     -0.323400
      5 C8         -5.5790    1.8990    1.2280 cc        1 LOI      0.350400
      6 C10        -2.1090   -0.8120   -0.7240 ca        1 LOI     -0.132100
      7 C13         3.2600    0.9050   -0.1710 cc        1 LOI      0.487300
      8 C2          0.5730   -4.8470    0.9310 c3        1 LOI      0.193100
      9 C9          4.8870    2.4260    0.0070 cd        1 LOI      0.371600
     10 C11        -0.0950   -2.6340    0.1110 ca        1 LOI      0.272600
     11 C12         0.2430   -1.3380   -0.3860 ca        1 LOI     -0.251600
     12 C14        -4.2390    0.6970   -0.0830 cc        1 LOI      0.395800
     13 N16        -5.4280    0.6550    1.7660 nd        1 LOI     -0.345000
     14 N17         3.5380    2.1740    0.2160 nd        1 LOI     -0.688000
     15 N18        -4.6440   -0.0590    0.9900 nd        1 LOI     -0.346000
     16 N19         0.8790   -3.5030    0.5500 nh        1 LOI     -0.756600
     17 N20         1.9800    0.3550   -0.0810 n         1 LOI     -0.522400
     18 N21        -4.8210    1.9750    0.0540 na        1 LOI     -0.308700
     19 O22         2.5580   -1.6830   -0.9520 o         1 LOI     -0.614100
     20 S23         4.6310    0.0350   -0.7820 ss        1 LOI      0.017700
     21 S24        -3.2500    0.2570   -1.3810 ss        1 LOI     -0.146200
     22 H4         -3.5150   -2.3600   -0.1410 ha        1 LOI      0.162000
     23 H5         -1.7830   -3.9470    0.5850 ha        1 LOI      0.146000
     24 H6         -0.4950    0.5400   -1.1780 ha        1 LOI      0.144000
     25 H7          6.6660    1.3830   -0.7590 h4        1 LOI      0.179000
     26 H8         -6.1790    2.7230    1.6220 h5        1 LOI      0.072100
     27 H1          4.9870    4.5560   -0.2430 hc        1 LOI      0.050367
     28 H1A         5.3590    3.9620    1.4300 hc        1 LOI      0.050367
     29 H1B         6.5740    3.7350    0.0970 hc        1 LOI      0.050367
     30 H2          1.5260   -5.3640    1.2210 h1        1 LOI      0.044367
     31 H2A        -0.1220   -4.8480    1.8140 h1        1 LOI      0.044367
     32 H2B         0.0880   -5.4220    0.0950 h1        1 LOI      0.044367
     33 H3         -3.7770    2.9820   -1.4450 h1        1 LOI      0.063367
     34 H3A        -5.6010    3.0590   -1.5670 h1        1 LOI      0.063367
     35 H3B        -4.7340    4.0330   -0.2840 h1        1 LOI      0.063367
     36 HN19        1.8170   -3.3210    0.2610 hn        1 LOI      0.454800
     37 HN20        1.2620    0.9220    0.3180 hn        1 LOI      0.343500
     38 C15         1.6650   -0.9300   -0.5050 c         1 LOI      0.689700
     39 C1          5.4840    3.7400    0.3410 c3        1 LOI     -0.123400
     40 C3         -4.7310    3.0670   -0.8550 c3        1 LOI      0.016600
@<TRIPOS>BOND
     1    1    2 ar  
     2    1    6 ar  
     3    1   22 1   
     4    2   10 ar  
     5    2   23 1   
     6    3    6 ar  
     7    3   11 ar  
     8    3   24 1   
     9    4    9 2   
    10    4   20 1   
    11    4   25 1   
    12    5   13 2   
    13    5   18 1   
    14    5   26 1   
    15    6   21 1   
    16    7   14 2   
    17    7   17 1   
    18    7   20 1   
    19    8   16 1   
    20    8   30 1   
    21    8   31 1   
    22    8   32 1   
    23    9   14 1   
    24    9   39 1   
    25   10   11 ar  
    26   10   16 1   
    27   11   38 1   
    28   12   15 2   
    29   12   18 1   
    30   12   21 1   
    31   13   15 1   
    32   16   36 1   
    33   17   37 1   
    34   17   38 1   
    35   18   40 1   
    36   19   38 2   
    37   27   39 1   
    38   28   39 1   
    39   29   39 1   
    40   33   40 1   
    41   34   40 1   
    42   35   40 1   
@<TRIPOS>SUBSTRUCTURE
     1 LOI         1 TEMP              0 ****  ****    0 ROOT
