@<TRIPOS>MOLECULE
LOI
   40    39     1     0     0
SMALL
bcc


@<TRIPOS>ATOM
      1 C4         -0.0890   -1.5270    0.3550 c2        1 LOI     -0.464000
      2 C5          0.0340   -1.3740   -0.9460 c1        1 LOI      0.233000
      3 C6          0.1960    0.1370    2.1690 c2        1 LOI     -0.065000
      4 C7          3.6240    0.1640    7.8010 c2        1 LOI     -0.525000
      5 C8         -4.7060   -3.4250    1.4640 c1        1 LOI      0.148000
      6 C10        -0.5790   -0.6050    1.3540 c2        1 LOI     -0.213000
      7 C13         2.3260   -0.2230    5.8060 c2        1 LOI     -0.182000
      8 C2          4.3520    0.4810   -0.3600 c1        1 LOI     -0.102000
      9 C9          2.5070   -0.6470    7.9920 c2        1 LOI     -0.051000
     10 C11         2.3190    0.3270    0.9500 c2        1 LOI      0.000000
     11 C12         1.6400    0.2690    2.1270 c2        1 LOI     -0.187000
     12 C14        -2.9800   -1.8840    1.4830 c2        1 LOI     -0.307000
     13 N16        -3.4570   -3.9920    1.5050 n7        1 LOI     -0.254000
     14 N17         1.7540   -0.8750    6.8490 n2        1 LOI     -0.156000
     15 N18        -2.4210   -3.0970    1.5210 n2        1 LOI     -0.081000
     16 N19         3.7000    0.5160    0.7770 n7        1 LOI     -0.169000
     17 N20         1.7900   -0.2660    4.5160 ns        1 LOI     -0.281000
     18 N21        -4.4540   -2.0170    1.4450 n3        1 LOI     -0.173000
     19 O22         3.3920    1.0700    3.5650 o         1 LOI     -0.368000
     20 S23         3.7620    0.6530    6.2210 ss        1 LOI      0.616000
     21 S24        -2.2650   -0.3610    1.5000 ss        1 LOI      0.444000
     22 H4          0.2050   -2.5300    0.7570 ha        1 LOI      0.224000
     23 H5          1.7560    0.2120   -0.0040 h4        1 LOI      0.161000
     24 H6         -0.2960    0.7480    2.9560 ha        1 LOI      0.155000
     25 H7          4.3220    0.4450    8.5860 h4        1 LOI      0.182000
     26 H8         -3.2360   -4.9620    1.5330 hn        1 LOI      0.284000
     27 H1          1.1040   -0.8870    9.5980 hc        1 LOI      0.092000
     28 H1A         2.8570   -0.9300   10.0810 hc        1 LOI      0.092000
     29 H1B         2.1070   -2.3530    9.2320 hc        1 LOI      0.092000
     30 H2          5.7930    1.2530    3.0920 ha        1 LOI      0.003750
     31 H2A         3.7640    0.2800   -1.2820 ha        1 LOI      0.047000
     32 H2B         5.6070    1.8840    2.9290 ha        1 LOI      0.003750
     33 H3         -4.9790   -0.0240    1.3960 ha        1 LOI      0.046000
     34 H3A        -6.2620   -0.8350   -0.7960 ha        1 LOI      0.003750
     35 H3B        -5.7050   -0.4770   -0.9460 ha        1 LOI      0.003750
     36 HN19        4.2290    0.7170    1.6140 hn        1 LOI      0.278000
     37 HN20        0.9680   -0.8160    4.3800 hn        1 LOI      0.258000
     38 C15         2.3420    0.4040    3.4360 c2        1 LOI      0.350000
     39 C1          2.1230   -1.2360    9.2960 c3        1 LOI     -0.148000
     40 C3         -5.3700   -1.0680    1.4010 c1        1 LOI      0.010000
@<TRIPOS>BOND
     1    1    2 1   
     2    1    6 1   
     3    1   22 1   
     4    3    6 1   
     5    3   11 1   
     6    3   24 1   
     7    4    9 1   
     8    4   20 1   
     9    4   25 1   
    10    5   13 1   
    11    5   18 1   
    12    6   21 1   
    13    7   14 1   
    14    7   17 1   
    15    7   20 1   
    16    8   16 1   
    17    8   31 1   
    18    9   14 1   
    19    9   39 1   
    20   10   11 1   
    21   10   16 1   
    22   10   23 1   
    23   11   38 1   
    24   12   15 1   
    25   12   18 1   
    26   12   21 1   
    27   13   15 1   
    28   13   26 1   
    29   16   36 1   
    30   17   37 1   
    31   17   38 1   
    32   18   40 1   
    33   19   38 1   
    34   27   39 1   
    35   28   39 1   
    36   29   39 1   
    37   30   32 1   
    38   33   40 1   
    39   34   35 1   
@<TRIPOS>SUBSTRUCTURE
     1 LOI         1 TEMP              0 ****  ****    0 ROOT
