@<TRIPOS>MOLECULE
LOI
   42    43     1     0     0
SMALL
bcc


@<TRIPOS>ATOM
      1 C4          0.4080   -1.8390    1.4900 c2        1 LOI     -0.082000
      2 C5          1.6120   -1.4030    1.0850 c1        1 LOI     -0.164000
      3 C6          0.3850    0.1350    2.9240 c2        1 LOI      0.057000
      4 C7          2.5010    0.0500    7.8920 c2        1 LOI     -0.462000
      5 C8         -3.9920   -3.8790    0.9050 c1        1 LOI      0.249000
      6 C10        -0.3510   -0.9140    2.2640 c2        1 LOI     -0.336000
      7 C13         2.0640    1.1470    5.8290 c2        1 LOI     -0.521000
      8 C2          3.9900   -0.4780   -0.2790 c3        1 LOI     -0.197000
      9 C9          1.6030   -0.6560    7.0510 c2        1 LOI     -0.023000
     10 C11         2.4780   -0.4130    1.6850 c3        1 LOI      0.023000
     11 C12         1.6950    0.4430    2.6640 c2        1 LOI     -0.268000
     12 C14        -2.5950   -2.3460    1.9280 c2        1 LOI     -0.475000
     13 N16        -3.0940   -4.4420    1.8110 n3        1 LOI     -0.254000
     14 N17         1.3540   -0.0240    5.8630 n2        1 LOI     -0.099000
     15 N18        -2.2810   -3.5570    2.4160 n2        1 LOI      0.041000
     16 N19         3.1540    0.3900    0.5850 n4        1 LOI     -0.029000
     17 N20         1.9700    2.0370    4.6850 n4        1 LOI      0.013000
     18 N21        -3.6930   -2.4830    0.9410 n3        1 LOI     -0.175000
     19 O22         3.6340    1.7620    3.1130 o         1 LOI     -0.233000
     20 S23         3.0040    1.4430    7.2170 ss        1 LOI      0.853000
     21 S24        -1.9760   -0.8580    2.4060 ss        1 LOI      0.759000
     22 H4         -0.0290   -2.7880    1.1350 ha        1 LOI      0.212000
     23 H5          3.3200   -0.9370    2.2530 hx        1 LOI      0.197000
     24 H6         -0.1710    0.6580    3.7280 ha        1 LOI      0.169000
     25 H7          2.8020   -0.3200    8.8810 h4        1 LOI      0.237000
     26 H8         -3.0250   -5.4110    2.0590 hn        1 LOI      0.312000
     27 H1         -0.0850   -1.7820    7.7330 hc        1 LOI      0.121333
     28 H1A         1.5340   -2.3970    8.2900 hc        1 LOI      0.121333
     29 H1B         0.9970   -2.6710    6.5740 hc        1 LOI      0.121333
     30 H2          4.3620    0.1280   -1.1490 hx        1 LOI      0.159667
     31 H2A         4.8610   -0.8700    0.3110 hx        1 LOI      0.159667
     32 H2B         2.4300    0.8340    0.0080 hn        1 LOI      0.251500
     33 H3         -3.9090    0.3080    2.5930 ha        1 LOI      0.022000
     34 H3A        -3.7800    0.2180    3.2610 ha        1 LOI      0.022000
     35 H3B        -3.9790   -0.5080    0.3880 ha        1 LOI      0.044000
     36 HN19        3.7350    1.1200    1.0140 hn        1 LOI      0.251500
     37 HN20        0.9880    2.3140    4.5470 hn        1 LOI      0.270000
     38 C15         2.5050    1.3850    3.4250 c2        1 LOI      0.320000
     39 C1          0.9810   -1.9470    7.4270 c3        1 LOI     -0.170000
     40 C3         -4.3110   -1.5600    0.2290 c1        1 LOI      0.073000
     41 H192        3.3690   -1.3420   -0.6530 hx        1 LOI      0.159667
     42 H202        2.5310    2.8810    4.8840 hn        1 LOI      0.270000
@<TRIPOS>BOND
     1    1    2 1   
     2    1    6 1   
     3    1   22 1   
     4    2   10 1   
     5    3    6 1   
     6    3   11 1   
     7    3   24 1   
     8    4    9 1   
     9    4   20 1   
    10    4   25 1   
    11    5   13 1   
    12    5   18 1   
    13    6   21 1   
    14    7   14 1   
    15    7   17 1   
    16    7   20 1   
    17    8   16 1   
    18    8   30 1   
    19    8   31 1   
    20    8   41 1   
    21    9   14 1   
    22    9   39 1   
    23   10   11 1   
    24   10   16 1   
    25   10   23 1   
    26   11   38 1   
    27   12   15 1   
    28   12   18 1   
    29   12   21 1   
    30   13   15 1   
    31   13   26 1   
    32   16   32 1   
    33   16   36 1   
    34   17   37 1   
    35   17   38 1   
    36   17   42 1   
    37   18   40 1   
    38   19   38 1   
    39   27   39 1   
    40   28   39 1   
    41   29   39 1   
    42   33   34 1   
    43   35   40 1   
@<TRIPOS>SUBSTRUCTURE
     1 LOI         1 TEMP              0 ****  ****    0 ROOT
