@<TRIPOS>MOLECULE
LOI
   40    39     1     0     0
SMALL
bcc


@<TRIPOS>ATOM
      1 C4          0.0360   -1.5600    0.5320 c2        1 LOI     -0.464000
      2 C5          0.2150   -1.4110   -0.7620 c1        1 LOI      0.233000
      3 C6          0.3110    0.0850    2.3660 c2        1 LOI     -0.063000
      4 C7          3.4940    0.0100    8.1430 c2        1 LOI     -0.525000
      5 C8         -4.6980   -3.2670    1.4510 c1        1 LOI      0.148000
      6 C10        -0.4580   -0.6210    1.5140 c2        1 LOI     -0.215000
      7 C13         2.2680   -0.3430    6.0970 c2        1 LOI     -0.183000
      8 C2          4.5980    0.2390    0.0370 c1        1 LOI     -0.098000
      9 C9          2.3470   -0.7670    8.2890 c2        1 LOI     -0.051000
     10 C11         2.4970    0.1740    1.2470 c2        1 LOI      0.003000
     11 C12         1.7600    0.1560    2.3900 c2        1 LOI     -0.190000
     12 C14        -2.9120   -1.7970    1.5400 c2        1 LOI     -0.306000
     13 N16        -3.4760   -3.8840    1.5430 n3        1 LOI     -0.254000
     14 N17         1.6350   -0.9750    7.1160 n2        1 LOI     -0.156000
     15 N18        -2.4060   -3.0320    1.6020 n2        1 LOI     -0.082000
     16 N19         3.8900    0.2980    1.1420 n3        1 LOI     -0.172000
     17 N20         1.7860   -0.3730    4.7850 n         1 LOI     -0.281000
     18 N21        -4.3880   -1.8700    1.4420 n3        1 LOI     -0.173000
     19 O22         3.4680    0.9100    3.9050 o         1 LOI     -0.368000
     20 S23         3.7110    0.4920    6.5700 ss        1 LOI      0.617000
     21 S24        -2.1370   -0.3050    1.5870 ss        1 LOI      0.443000
     22 H4          0.2750   -2.5730    0.9440 ha        1 LOI      0.224000
     23 H5          1.9760    0.0760    0.2670 h4        1 LOI      0.162000
     24 H6         -0.1890    0.7130    3.1340 ha        1 LOI      0.155000
     25 H7          4.1670    0.2730    8.9560 h4        1 LOI      0.182000
     26 H8         -3.2960   -4.8620    1.5800 hn        1 LOI      0.284000
     27 H1          0.8720   -0.9620    9.8370 hc        1 LOI      0.091667
     28 H1A         2.6020   -1.0570   10.3910 hc        1 LOI      0.091667
     29 H1B         1.8450   -2.4580    9.5130 hc        1 LOI      0.091667
     30 H2          5.2580    2.4380   -0.6960 ha        1 LOI      0.004500
     31 H2A         4.6350    2.5200   -0.9510 ha        1 LOI      0.004500
     32 H2B         4.0450    0.0670   -0.9120 ha        1 LOI      0.046000
     33 H3         -5.4740   -0.2850   -1.0000 ha        1 LOI      0.004500
     34 H3A        -6.0510   -0.6200   -0.8730 ha        1 LOI      0.004500
     35 H3B        -4.8280    0.1430    1.3700 ha        1 LOI      0.046000
     36 HN19        4.3840    0.4690    2.0050 hn        1 LOI      0.275000
     37 HN20        0.9540   -0.8980    4.6150 hn        1 LOI      0.259000
     38 C15         2.4060    0.2750    3.7290 c2        1 LOI      0.351000
     39 C1          1.8920   -1.3420    9.5760 c3        1 LOI     -0.148000
     40 C3         -5.2610   -0.8840    1.3600 c1        1 LOI      0.010000
@<TRIPOS>BOND
     1    1    2 1   
     2    1    6 1   
     3    1   22 1   
     4    3    6 1   
     5    3   11 1   
     6    3   24 1   
     7    4    9 1   
     8    4   20 1   
     9    4   25 1   
    10    5   13 1   
    11    5   18 1   
    12    6   21 1   
    13    7   14 1   
    14    7   17 1   
    15    7   20 1   
    16    8   16 1   
    17    8   32 1   
    18    9   14 1   
    19    9   39 1   
    20   10   11 1   
    21   10   16 1   
    22   10   23 1   
    23   11   38 1   
    24   12   15 1   
    25   12   18 1   
    26   12   21 1   
    27   13   15 1   
    28   13   26 1   
    29   16   36 1   
    30   17   37 1   
    31   17   38 1   
    32   18   40 1   
    33   19   38 1   
    34   27   39 1   
    35   28   39 1   
    36   29   39 1   
    37   30   31 1   
    38   33   34 1   
    39   35   40 1   
@<TRIPOS>SUBSTRUCTURE
     1 LOI         1 TEMP              0 ****  ****    0 ROOT
