@<TRIPOS>MOLECULE
LOL
   24    23     1     0     0
SMALL
bcc


@<TRIPOS>ATOM
      1 CD1        -3.1290   -0.5580   -0.7670 c3        1 LOL     -0.092600
      2 CD2        -2.2050    0.0290    1.4640 c3        1 LOL     -0.092600
      3 CG         -2.0370    0.1940   -0.0320 c3        1 LOL     -0.067700
      4 CB         -0.6780   -0.2960   -0.5060 c3        1 LOL     -0.115400
      5 N           0.5080    1.8720    0.0180 n3        1 LOL     -0.892800
      6 CA          0.5060    0.4300    0.1490 c3        1 LOL      0.143500
      7 C           1.8190   -0.1650   -0.4370 c3        1 LOL      0.335900
      8 O           2.8360    0.0410    0.5160 oh        1 LOL     -0.625800
      9 OXT         1.7750   -1.5620   -0.6040 oh        1 LOL     -0.625800
     10 HD11       -3.0190   -0.4270   -1.8700 hc        1 LOL      0.036200
     11 HD12       -3.0800   -1.6490   -0.5340 hc        1 LOL      0.036200
     12 HD13       -4.1330   -0.1760   -0.4630 hc        1 LOL      0.036200
     13 HD21       -2.0050   -1.0270    1.7680 hc        1 LOL      0.036200
     14 HD22       -1.5020    0.6970    2.0170 hc        1 LOL      0.036200
     15 HD23       -3.2480    0.2910    1.7660 hc        1 LOL      0.036200
     16 HG         -2.1420    1.2870   -0.2830 hc        1 LOL      0.038700
     17 HB3        -0.5860   -1.3930   -0.2860 hc        1 LOL      0.053200
     18 HB2        -0.6120   -0.1780   -1.6200 hc        1 LOL      0.053200
     19 H           0.3780    2.1420   -0.9370 hn        1 LOL      0.349800
     20 H2         -0.2270    2.2670    0.5720 hn        1 LOL      0.349800
     21 HA          0.5060    0.1950    1.2560 h1        1 LOL      0.076700
     22 HC          2.0680    0.2520   -1.4510 h2        1 LOL      0.072700
     23 HO          3.6770   -0.1710    0.0930 ho        1 LOL      0.412500
     24 HXT         1.6150   -1.9620    0.2600 ho        1 LOL      0.412500
@<TRIPOS>BOND
     1    1    3 1   
     2    1   10 1   
     3    1   11 1   
     4    1   12 1   
     5    2    3 1   
     6    2   13 1   
     7    2   14 1   
     8    2   15 1   
     9    3    4 1   
    10    3   16 1   
    11    4    6 1   
    12    4   17 1   
    13    4   18 1   
    14    5    6 1   
    15    5   19 1   
    16    5   20 1   
    17    6    7 1   
    18    6   21 1   
    19    7    8 1   
    20    7    9 1   
    21    7   22 1   
    22    8   23 1   
    23    9   24 1   
@<TRIPOS>SUBSTRUCTURE
     1 LOL         1 TEMP              0 ****  ****    0 ROOT
