@<TRIPOS>MOLECULE
LOL
   24    23     1     0     0
SMALL
bcc


@<TRIPOS>ATOM
      1 CD1        -2.4110    0.3500   -1.1730 c3        1 LOL     -0.091100
      2 CD2        -0.3930    1.5850   -1.8860 c3        1 LOL     -0.091100
      3 CG         -0.8980    0.3500   -1.1730 c3        1 LOL     -0.067700
      4 CB         -0.3930    0.3500    0.2530 c3        1 LOL     -0.069400
      5 N           0.0040   -1.9270    0.8870 n3        1 LOL     -0.888800
      6 CA          0.6390   -0.7410    0.4230 c3        1 LOL      0.148500
      7 C           1.6780   -0.3000    1.4270 c3        1 LOL      0.283900
      8 O           1.1630   -0.4460    2.7300 oh        1 LOL     -0.634800
      9 OXT         2.8330   -1.0940    1.2870 oh        1 LOL     -0.634800
     10 HD11       -2.7360   -0.4900   -0.7970 hc        1 LOL      0.033033
     11 HD12       -2.7360    0.4440   -2.0890 hc        1 LOL      0.033033
     12 HD13       -2.7360    1.0960   -0.6340 hc        1 LOL      0.033033
     13 HD21       -0.7210    1.5870   -2.8060 hc        1 LOL      0.033033
     14 HD22        0.5830    1.5840   -1.8890 hc        1 LOL      0.033033
     15 HD23       -0.7160    2.3820   -1.4250 hc        1 LOL      0.033033
     16 HG         -0.5720   -0.4470   -1.6330 hc        1 LOL      0.068700
     17 HB3         0.0110    1.2150    0.4550 hc        1 LOL      0.046700
     18 HB2        -1.1390    0.1900    0.8620 hc        1 LOL      0.046700
     19 H          -0.2170   -2.4520    0.1750 hn        1 LOL      0.350800
     20 H2          0.5730   -2.3820    1.4360 hn        1 LOL      0.350800
     21 HA          1.0700   -0.9180   -0.4350 h1        1 LOL      0.075700
     22 HC          1.9060    0.6360    1.2700 h2        1 LOL      0.076700
     23 HO          1.6560    0.0270    3.2980 ho        1 LOL      0.414000
     24 HXT         3.5540   -0.5970    1.4350 ho        1 LOL      0.414000
@<TRIPOS>BOND
     1    1    3 1   
     2    1   10 1   
     3    1   11 1   
     4    1   12 1   
     5    2    3 1   
     6    2   13 1   
     7    2   14 1   
     8    2   15 1   
     9    3    4 1   
    10    3   16 1   
    11    4    6 1   
    12    4   17 1   
    13    4   18 1   
    14    5    6 1   
    15    5   19 1   
    16    5   20 1   
    17    6    7 1   
    18    6   21 1   
    19    7    8 1   
    20    7    9 1   
    21    7   22 1   
    22    8   23 1   
    23    9   24 1   
@<TRIPOS>SUBSTRUCTURE
     1 LOL         1 TEMP              0 ****  ****    0 ROOT
