@<TRIPOS>MOLECULE
LOM
    8     8     1     0     0
SMALL
bcc


@<TRIPOS>ATOM
      1 C1          1.1810   -0.0000    0.0830 cc        1 LOM      0.369300
      2 N1          0.8820   -0.0000   -1.2120 nd        1 LOM     -0.628000
      3 C2         -0.4980    0.0000   -1.3620 cd        1 LOM      0.327200
      4 C3         -1.2150    0.0000   -0.1740 cc        1 LOM     -0.248400
      5 S1         -0.1680    0.0000    1.1350 ss        1 LOM     -0.101300
      6 H1          2.2160   -0.0000    0.4350 h5        1 LOM      0.054100
      7 H2         -0.9170    0.0000   -2.3740 h4        1 LOM      0.045100
      8 H3         -2.2990    0.0000   -0.0880 h4        1 LOM      0.181000
@<TRIPOS>BOND
     1    1    2 2   
     2    1    5 1   
     3    1    6 1   
     4    2    3 1   
     5    3    4 2   
     6    3    7 1   
     7    4    5 1   
     8    4    8 1   
@<TRIPOS>SUBSTRUCTURE
     1 LOM         1 TEMP              0 ****  ****    0 ROOT
