@<TRIPOS>MOLECULE
LOM
    8     5     1     0     0
SMALL
bcc


@<TRIPOS>ATOM
      1 C1         -0.8380   -0.0000   -1.2040 c1        1 LOM      0.205900
      2 N1          0.5900   -0.0000   -1.2040 n1        1 LOM     -0.507600
      3 C2          1.0860   -0.0000    0.2850 cg        1 LOM     -0.058200
      4 C3         -0.0700   -0.0000    1.1490 c1        1 LOM     -0.227900
      5 S1         -1.3130   -0.0000    0.2650 ss        1 LOM      0.032800
      6 H1         -1.4130    0.0000   -1.9930 DU        1 LOM      0.184667
      7 H2          2.0180    0.0000    0.5770 DU        1 LOM      0.184667
      8 H3         -0.0590   -0.0000    2.1250 DU        1 LOM      0.184667
@<TRIPOS>BOND
     1    1    2 3   
     2    1    5 1   
     3    2    3 1   
     4    3    4 3   
     5    4    5 1   
@<TRIPOS>SUBSTRUCTURE
     1 LOM         1 TEMP              0 ****  ****    0 ROOT
