@<TRIPOS>MOLECULE
LOP
  112   111     1     0     0
SMALL
bcc


@<TRIPOS>ATOM
      1 N1          8.0160    3.5170    0.8480 n3        1 LOP     -0.907800
      2 C1          7.6640    2.2210    1.3720 c3        1 LOP      0.132800
      3 C2          6.4550    2.1440    2.3240 c3        1 LOP      0.161400
      4 O1          5.2570    2.4080    1.6660 os        1 LOP     -0.591200
      5 P1          4.5360    3.8560    2.0630 p5        1 LOP      1.427800
      6 O2          3.5290    3.9320    0.7590 os        1 LOP     -0.560200
      7 O3          5.6100    4.8550    1.9070 o         1 LOP     -0.827000
      8 O4          3.6960    3.6350    3.2520 o         1 LOP     -0.827000
      9 C3          2.4310    3.0760    0.8860 c3        1 LOP      0.181400
     10 C4          1.6770    3.0700   -0.4500 c3        1 LOP      0.136100
     11 C5          2.4850    2.4600   -1.5920 c3        1 LOP      0.126400
     12 O5          0.4910    2.2850   -0.1970 os        1 LOP     -0.425900
     13 O6          3.0580    1.2310   -1.1280 os        1 LOP     -0.442900
     14 C6         -0.5860    2.4680   -1.0050 c         1 LOP      0.633100
     15 O7         -0.5320    3.2870   -1.9280 o         1 LOP     -0.563000
     16 C7         -1.7330    1.5770   -0.6290 c3        1 LOP     -0.130400
     17 C8         -3.0590    2.2700   -0.8580 c3        1 LOP     -0.078400
     18 C9         -4.2120    1.3220   -0.6110 c3        1 LOP     -0.078400
     19 C10        -5.5420    2.0140   -0.8210 c3        1 LOP     -0.079400
     20 C11        -6.6980    1.0680   -0.5790 c3        1 LOP     -0.079400
     21 C12        -8.0270    1.7590   -0.7910 c3        1 LOP     -0.077400
     22 C13        -9.1820    0.8100   -0.5480 c3        1 LOP     -0.050200
     23 C14       -10.4980    1.4600   -0.7510 c2        1 LOP     -0.168200
     24 C15       -11.6690    0.8310   -0.6010 c2        1 LOP     -0.180200
     25 C16       -11.7920   -0.5940   -0.2140 c3        1 LOP     -0.048200
     26 C17       -13.2360   -1.0400   -0.1180 c3        1 LOP     -0.076400
     27 C18       -13.3320   -2.4980    0.2790 c3        1 LOP     -0.079400
     28 C19       -14.7740   -2.9470    0.3750 c3        1 LOP     -0.078400
     29 C20       -14.8710   -4.4050    0.7720 c3        1 LOP     -0.079400
     30 C21       -16.3130   -4.8550    0.8680 c3        1 LOP     -0.079400
     31 C22       -16.4100   -6.3120    1.2650 c3        1 LOP     -0.080400
     32 C23       -17.8440   -6.7650    1.3620 c3        1 LOP     -0.092100
     33 C24         4.3370    0.9460   -1.5320 c         1 LOP      0.653100
     34 O8          4.7550    1.4740   -2.5650 o         1 LOP     -0.559000
     35 C25         5.0220   -0.0020   -0.6030 c3        1 LOP     -0.149400
     36 C26         6.2570   -0.6080   -1.2310 c3        1 LOP     -0.074400
     37 C27         7.0100   -1.4500   -0.2240 c3        1 LOP     -0.080400
     38 C28         8.2380   -2.0800   -0.8480 c3        1 LOP     -0.078400
     39 C29         8.9940   -2.9210    0.1580 c3        1 LOP     -0.079400
     40 C30        10.2220   -3.5500   -0.4650 c3        1 LOP     -0.078400
     41 C31        10.9780   -4.3920    0.5410 c3        1 LOP     -0.079400
     42 C32        12.2060   -5.0210   -0.0810 c3        1 LOP     -0.078400
     43 C33        12.9630   -5.8630    0.9240 c3        1 LOP     -0.079400
     44 C34        14.1910   -6.4930    0.3030 c3        1 LOP     -0.080400
     45 C35        14.9470   -7.3320    1.3010 c3        1 LOP     -0.092100
     46 HN11        7.3580    3.7910    0.1410 hn        1 LOP      0.361800
     47 HN12        7.9620    4.2100    1.5750 hn        1 LOP      0.361800
     48 H11         8.5570    1.8330    1.9410 h1        1 LOP      0.027200
     49 H12         7.4720    1.5230    0.5080 h1        1 LOP      0.027200
     50 H21         6.5940    2.8600    3.1820 h1        1 LOP      0.014700
     51 H22         6.4010    1.0930    2.7300 h1        1 LOP      0.014700
     52 H31         1.7640    3.4460    1.7110 h1        1 LOP      0.051200
     53 H32         2.7890    2.0410    1.1380 h1        1 LOP      0.051200
     54 H4          1.3810    4.1130   -0.7460 h1        1 LOP      0.080700
     55 H51         3.2900    3.1810   -1.8950 h1        1 LOP      0.068200
     56 H52         1.8240    2.2150   -2.4630 h1        1 LOP      0.068200
     57 H71        -1.6590    0.6530   -1.2630 hc        1 LOP      0.075200
     58 H72        -1.6290    1.2650    0.4430 hc        1 LOP      0.075200
     59 H81        -3.1420    3.1550   -0.1740 hc        1 LOP      0.056700
     60 H82        -3.0990    2.6610   -1.9090 hc        1 LOP      0.056700
     61 H91        -4.1330    0.4420   -1.3030 hc        1 LOP      0.039200
     62 H92        -4.1560    0.9250    0.4370 hc        1 LOP      0.039200
     63 H101       -5.6220    2.8920   -0.1270 hc        1 LOP      0.042200
     64 H102       -5.5950    2.4140   -1.8680 hc        1 LOP      0.042200
     65 H111       -6.6160    0.1890   -1.2720 hc        1 LOP      0.038700
     66 H112       -6.6440    0.6690    0.4690 hc        1 LOP      0.038700
     67 H121       -8.1090    2.6380   -0.0980 hc        1 LOP      0.042200
     68 H122       -8.0810    2.1570   -1.8390 hc        1 LOP      0.042200
     69 H131       -9.0930   -0.0750   -1.2360 hc        1 LOP      0.047200
     70 H132       -9.1230    0.4080    0.5010 hc        1 LOP      0.047200
     71 H14       -10.4710    2.5240   -1.0410 ha        1 LOP      0.122000
     72 H15       -12.6160    1.3710   -0.7670 ha        1 LOP      0.119000
     73 H161      -11.2500   -1.2330   -0.9640 hc        1 LOP      0.047700
     74 H162      -11.2820   -0.7570    0.7750 hc        1 LOP      0.047700
     75 H171      -13.7770   -0.4090    0.6350 hc        1 LOP      0.040200
     76 H172      -13.7450   -0.8850   -1.1060 hc        1 LOP      0.040200
     77 H181      -12.7910   -3.1300   -0.4740 hc        1 LOP      0.040200
     78 H182      -12.8230   -2.6530    1.2670 hc        1 LOP      0.040200
     79 H191      -15.3160   -2.3160    1.1280 hc        1 LOP      0.038700
     80 H192      -15.2830   -2.7920   -0.6130 hc        1 LOP      0.038700
     81 H201      -14.3290   -5.0360    0.0190 hc        1 LOP      0.039700
     82 H202      -14.3620   -4.5600    1.7600 hc        1 LOP      0.039700
     83 H211      -16.8540   -4.2230    1.6210 hc        1 LOP      0.038700
     84 H212      -16.8220   -4.7000   -0.1200 hc        1 LOP      0.038700
     85 H221      -15.8660   -6.9420    0.5120 hc        1 LOP      0.038700
     86 H222      -15.8990   -6.4650    2.2520 hc        1 LOP      0.038700
     87 H231      -18.3960   -6.1650    2.1260 hc        1 LOP      0.031367
     88 H232      -18.3630   -6.6430    0.3800 hc        1 LOP      0.031367
     89 H233      -17.8930   -7.8410    1.6560 hc        1 LOP      0.031367
     90 H251        4.3020   -0.7990   -0.2840 hc        1 LOP      0.101700
     91 H252        5.2950    0.6000    0.3170 hc        1 LOP      0.101700
     92 H261        6.9200    0.2150   -1.6120 hc        1 LOP      0.050200
     93 H262        5.9670   -1.2340   -2.1150 hc        1 LOP      0.050200
     94 H271        6.3370   -2.2530    0.1760 hc        1 LOP      0.043200
     95 H272        7.3150   -0.8080    0.6450 hc        1 LOP      0.043200
     96 H281        8.9100   -1.2740   -1.2460 hc        1 LOP      0.039200
     97 H282        7.9330   -2.7170   -1.7190 hc        1 LOP      0.039200
     98 H291        8.3210   -3.7240    0.5580 hc        1 LOP      0.040200
     99 H292        9.2990   -2.2810    1.0280 hc        1 LOP      0.040200
    100 H301       10.8950   -2.7460   -0.8640 hc        1 LOP      0.038200
    101 H302        9.9170   -4.1880   -1.3360 hc        1 LOP      0.038200
    102 H311       10.3050   -5.1950    0.9410 hc        1 LOP      0.039200
    103 H312       11.2830   -3.7530    1.4110 hc        1 LOP      0.039200
    104 H321       12.8790   -4.2170   -0.4800 hc        1 LOP      0.038200
    105 H322       11.9010   -5.6590   -0.9520 hc        1 LOP      0.038200
    106 H331       12.2900   -6.6670    1.3240 hc        1 LOP      0.039200
    107 H332       13.2670   -5.2250    1.7950 hc        1 LOP      0.039200
    108 H341       14.8620   -5.6870   -0.0970 hc        1 LOP      0.037700
    109 H342       13.8840   -7.1290   -0.5690 hc        1 LOP      0.037700
    110 H351       15.2830   -6.7090    2.1660 hc        1 LOP      0.030367
    111 H352       14.3020   -8.1550    1.6930 hc        1 LOP      0.030367
    112 H353       15.8480   -7.7870    0.8230 hc        1 LOP      0.030367
@<TRIPOS>BOND
     1    1    2 1   
     2    1   46 1   
     3    1   47 1   
     4    2    3 1   
     5    2   48 1   
     6    2   49 1   
     7    3    4 1   
     8    3   50 1   
     9    3   51 1   
    10    4    5 1   
    11    5    6 1   
    12    5    7 1   
    13    5    8 1   
    14    6    9 1   
    15    9   10 1   
    16    9   52 1   
    17    9   53 1   
    18   10   11 1   
    19   10   12 1   
    20   10   54 1   
    21   11   13 1   
    22   11   55 1   
    23   11   56 1   
    24   12   14 1   
    25   13   33 1   
    26   14   15 2   
    27   14   16 1   
    28   16   17 1   
    29   16   57 1   
    30   16   58 1   
    31   17   18 1   
    32   17   59 1   
    33   17   60 1   
    34   18   19 1   
    35   18   61 1   
    36   18   62 1   
    37   19   20 1   
    38   19   63 1   
    39   19   64 1   
    40   20   21 1   
    41   20   65 1   
    42   20   66 1   
    43   21   22 1   
    44   21   67 1   
    45   21   68 1   
    46   22   23 1   
    47   22   69 1   
    48   22   70 1   
    49   23   24 2   
    50   23   71 1   
    51   24   25 1   
    52   24   72 1   
    53   25   26 1   
    54   25   73 1   
    55   25   74 1   
    56   26   27 1   
    57   26   75 1   
    58   26   76 1   
    59   27   28 1   
    60   27   77 1   
    61   27   78 1   
    62   28   29 1   
    63   28   79 1   
    64   28   80 1   
    65   29   30 1   
    66   29   81 1   
    67   29   82 1   
    68   30   31 1   
    69   30   83 1   
    70   30   84 1   
    71   31   32 1   
    72   31   85 1   
    73   31   86 1   
    74   32   87 1   
    75   32   88 1   
    76   32   89 1   
    77   33   34 2   
    78   33   35 1   
    79   35   36 1   
    80   35   90 1   
    81   35   91 1   
    82   36   37 1   
    83   36   92 1   
    84   36   93 1   
    85   37   38 1   
    86   37   94 1   
    87   37   95 1   
    88   38   39 1   
    89   38   96 1   
    90   38   97 1   
    91   39   40 1   
    92   39   98 1   
    93   39   99 1   
    94   40   41 1   
    95   40  100 1   
    96   40  101 1   
    97   41   42 1   
    98   41  102 1   
    99   41  103 1   
   100   42   43 1   
   101   42  104 1   
   102   42  105 1   
   103   43   44 1   
   104   43  106 1   
   105   43  107 1   
   106   44   45 1   
   107   44  108 1   
   108   44  109 1   
   109   45  110 1   
   110   45  111 1   
   111   45  112 1   
@<TRIPOS>SUBSTRUCTURE
     1 LOP         1 TEMP              0 ****  ****    0 ROOT
