@<TRIPOS>MOLECULE
LOR
   41    39     1     0     0
SMALL
bcc


@<TRIPOS>ATOM
      1 CL         -5.8210    0.1600   -2.2890 cl        1 LOR     -0.131000
      2 C1          0.4140    2.5370   -2.1500 c1        1 LOR      0.190000
      3 O1          0.1740    3.6480   -1.6790 o         1 LOR     -0.292000
      4 C2          0.0070    1.2900   -1.3890 c2        1 LOR     -0.046000
      5 N2          0.5870    1.3150   -0.0980 n         1 LOR     -0.310000
      6 C3         -1.5150    1.2440   -1.2630 c3        1 LOR     -0.078000
      7 C4         -2.2320    1.6370   -2.6950 c3        1 LOR     -0.178000
      8 C5         -3.4230    1.5480   -2.7200 c3        1 LOR     -0.166000
      9 C6         -4.0150    0.1130   -2.3520 c3        1 LOR     -0.065000
     10 C7         -3.4720   -0.4050   -1.1040 c2        1 LOR     -0.050000
     11 C8         -4.0900   -1.6550   -0.4540 c2        1 LOR      0.384000
     12 N8         -1.9310    0.0060   -0.7790 n2        1 LOR     -0.198000
     13 C21         1.6030    0.3650    0.2510 c2        1 LOR      0.319000
     14 O21         1.9500   -0.4720   -0.5520 o         1 LOR     -0.349000
     15 C22         2.2740    0.4400    1.6030 c3        1 LOR     -0.032000
     16 N22         3.5420    1.1130    1.4750 n3        1 LOR     -0.329000
     17 C23         2.4980   -0.9540    2.1320 c2        1 LOR     -0.112000
     18 C24         1.5900   -1.5120    3.0390 c2        1 LOR     -0.093000
     19 C25         1.8530   -2.7580    3.6130 c1        1 LOR     -0.129000
     20 C26         3.0190   -3.4460    3.2840 c1        1 LOR     -0.145500
     21 C27         3.9310   -2.8880    2.3750 c1        1 LOR     -0.145500
     22 C28         3.6690   -1.6450    1.8020 c1        1 LOR     -0.119000
     23 O81        -4.6540   -1.5670    0.6820 o         1 LOR     -0.535500
     24 O82        -4.0010   -2.7810   -1.0340 o         1 LOR     -0.535500
     25 H1          0.9530    2.4580   -2.9710 ha        1 LOR      0.076000
     26 H2          0.3180    0.4990   -1.8710 h4        1 LOR      0.134000
     27 HN2         0.2770    1.9010    0.5300 hn        1 LOR      0.215000
     28 H3         -1.6640    1.9340   -0.6070 h1        1 LOR      0.098000
     29 H4         -1.8700    1.0510   -3.3870 hc        1 LOR      0.080000
     30 H4A        -1.9890    2.5590   -2.9150 hc        1 LOR      0.080000
     31 H5         -3.7860    2.1920   -2.1000 hc        1 LOR      0.083000
     32 H5A        -3.7270    1.7820   -3.6170 hc        1 LOR      0.083000
     33 H6         -3.8690   -0.5260   -3.0910 h1        1 LOR      0.155000
     34 H22         1.6970    0.9410    2.2280 h1        1 LOR      0.162000
     35 HN22        3.4000    2.0110    1.3310 hn        1 LOR      0.141500
     36 HN2A        4.0290    1.0000    2.2470 hn        1 LOR      0.141500
     37 H24         0.7760   -1.0220    3.2820 ha        1 LOR      0.209000
     38 H25         1.2010   -3.1580    4.2640 ha        1 LOR      0.141000
     39 H26         3.2050   -4.3290    3.6920 ha        1 LOR      0.113000
     40 H27         4.7720   -3.3850    2.1370 ha        1 LOR      0.113000
     41 H28         4.3210   -1.2450    1.1520 ha        1 LOR      0.117000
@<TRIPOS>BOND
     1    1    9 1   
     2    2    3 1   
     3    2   25 1   
     4    4    5 1   
     5    4    6 1   
     6    4   26 1   
     7    5   13 1   
     8    5   27 1   
     9    6    7 1   
    10    6   12 1   
    11    6   28 1   
    12    7    8 1   
    13    7   29 1   
    14    7   30 1   
    15    8    9 1   
    16    8   31 1   
    17    8   32 1   
    18    9   10 1   
    19    9   33 1   
    20   10   11 1   
    21   10   12 1   
    22   11   23 1   
    23   11   24 1   
    24   13   14 1   
    25   13   15 1   
    26   15   16 1   
    27   15   17 1   
    28   15   34 1   
    29   16   35 1   
    30   16   36 1   
    31   17   18 1   
    32   17   22 1   
    33   18   19 1   
    34   18   37 1   
    35   19   38 1   
    36   20   21 1   
    37   20   39 1   
    38   21   40 1   
    39   22   41 1   
@<TRIPOS>SUBSTRUCTURE
     1 LOR         1 TEMP              0 ****  ****    0 ROOT
