@<TRIPOS>MOLECULE
LOR
   43    44     1     0     0
SMALL
bcc


@<TRIPOS>ATOM
      1 CL          2.4150   -2.0360   -0.9190 cl        1 LOR     -0.070400
      2 C1          3.6440    3.7070    2.2720 c         1 LOR      0.553900
      3 O1          3.3120    3.9820    3.4190 o         1 LOR     -0.475100
      4 C2          4.5510    2.5210    1.9250 c3        1 LOR     -0.032300
      5 N2          5.1640    1.9360    3.0960 n         1 LOR     -0.537900
      6 C3          3.7000    1.5410    1.0220 c3        1 LOR     -0.009000
      7 C4          4.4180    1.3700   -0.3280 c3        1 LOR     -0.108400
      8 C5          3.7880    0.2690   -1.1520 c3        1 LOR     -0.104400
      9 C6          3.7840   -1.0610   -0.4100 c3        1 LOR     -0.056600
     10 C7          3.6870   -0.9120    1.0790 ce        1 LOR      0.292300
     11 C8          4.0400   -2.1550    2.0160 c         1 LOR      0.840300
     12 N8          3.4760    0.2480    1.6600 nh        1 LOR     -0.221100
     13 C21         6.1120    0.9560    3.0140 c         1 LOR      0.653100
     14 O21         6.5560    0.5250    1.9290 o         1 LOR     -0.613100
     15 C22         6.6830    0.3550    4.3260 c3        1 LOR      0.131800
     16 N22         6.8100   -1.1340    4.1550 n4        1 LOR     -0.847600
     17 C23         5.9040    0.6860    5.5580 ca        1 LOR     -0.204300
     18 C24         4.5920    0.2210    5.7290 ca        1 LOR     -0.110000
     19 C25         3.8920    0.5370    6.8910 ca        1 LOR     -0.116500
     20 C26         4.4910    1.3200    7.8810 ca        1 LOR     -0.075000
     21 C27         5.7960    1.7860    7.7090 ca        1 LOR     -0.116500
     22 C28         6.5060    1.4670    6.5530 ca        1 LOR     -0.110000
     23 O81         4.1850   -3.2460    1.4660 o         1 LOR     -0.739300
     24 O82         4.2410   -1.8170    3.2190 o         1 LOR     -0.739300
     25 H1          3.3230    4.2910    1.3830 h4        1 LOR      0.045200
     26 H2          5.3860    2.9220    1.2670 h1        1 LOR      0.112700
     27 HN2         3.3220    0.2420    2.6590 hn        1 LOR      0.328700
     28 H3          2.6830    2.0060    0.8450 h1        1 LOR      0.099700
     29 H4          4.3540    2.3410   -0.8850 hc        1 LOR      0.088200
     30 H4A         5.5040    1.1410   -0.1480 hc        1 LOR      0.088200
     31 H5          2.7400    0.5630   -1.4310 hc        1 LOR      0.088700
     32 H5A         4.3610    0.1490   -2.1110 hc        1 LOR      0.088700
     33 H6          4.7040   -1.6680   -0.6390 h1        1 LOR      0.143700
     34 H22         7.7370    0.7720    4.4110 hx        1 LOR      0.125700
     35 HN22        7.2010   -1.3390    3.2270 hn        1 LOR      0.480133
     36 HN2A        5.8720   -1.5860    4.2190 hn        1 LOR      0.480133
     37 H24         4.1070   -0.4030    4.9550 ha        1 LOR      0.156500
     38 H25         2.8640    0.1650    7.0290 ha        1 LOR      0.163000
     39 H26         3.9330    1.5690    8.7990 ha        1 LOR      0.164000
     40 H27         6.2690    2.4040    8.4890 ha        1 LOR      0.163000
     41 H28         7.5370    1.8360    6.4280 ha        1 LOR      0.156500
     42 H221        4.8440    2.2550    3.9890 hn        1 LOR      0.363500
     43 H223        7.4150   -1.5110    4.8860 hn        1 LOR      0.480133
@<TRIPOS>BOND
     1    1    9 1   
     2    2    3 2   
     3    2    4 1   
     4    2   25 1   
     5    4    5 1   
     6    4    6 1   
     7    4   26 1   
     8    5   13 1   
     9    5   42 1   
    10    6    7 1   
    11    6   12 1   
    12    6   28 1   
    13    7    8 1   
    14    7   29 1   
    15    7   30 1   
    16    8    9 1   
    17    8   31 1   
    18    8   32 1   
    19    9   10 1   
    20    9   33 1   
    21   10   11 1   
    22   10   12 2   
    23   11   23 1   
    24   11   24 1   
    25   12   27 1   
    26   13   14 2   
    27   13   15 1   
    28   15   16 1   
    29   15   17 1   
    30   15   34 1   
    31   16   35 1   
    32   16   36 1   
    33   16   43 1   
    34   17   18 ar  
    35   17   22 ar  
    36   18   19 ar  
    37   18   37 1   
    38   19   20 ar  
    39   19   38 1   
    40   20   21 ar  
    41   20   39 1   
    42   21   22 ar  
    43   21   40 1   
    44   22   41 1   
@<TRIPOS>SUBSTRUCTURE
     1 LOR         1 TEMP              0 ****  ****    0 ROOT
