@<TRIPOS>MOLECULE
LOR
   43    44     1     0     0
SMALL
bcc


@<TRIPOS>ATOM
      1 Cl          2.3310   -1.9270   -0.9420 cl        1 LOR     -0.070400
      2 C1          3.7050    3.7420    2.3240 c         1 LOR      0.553900
      3 O1          3.3870    4.0070    3.4780 o         1 LOR     -0.475100
      4 C2          4.5840    2.5410    1.9530 c3        1 LOR     -0.032300
      5 N2          5.1930    1.9270    3.1110 ns        1 LOR     -0.537900
      6 C3          3.7060    1.5930    1.0420 c3        1 LOR     -0.009000
      7 C4          4.4100    1.4270   -0.3150 c3        1 LOR     -0.108400
      8 C5          3.7520    0.3520   -1.1510 c3        1 LOR     -0.104400
      9 C6          3.7240   -0.9880   -0.4290 c3        1 LOR     -0.056600
     10 C7          3.6410   -0.8590    1.0640 ce        1 LOR      0.292300
     11 C8          3.9730   -2.1230    1.9800 c         1 LOR      0.840300
     12 N8          3.4590    0.2960    1.6620 nu        1 LOR     -0.221100
     13 C21         6.1190    0.9280    3.0090 c         1 LOR      0.653100
     14 O21         6.5460    0.5030    1.9140 o         1 LOR     -0.613100
     15 C22         6.6860    0.2950    4.3070 c3        1 LOR      0.131800
     16 N22         6.7790   -1.1930    4.1140 nz        1 LOR     -0.847600
     17 C23         5.9210    0.6250    5.5490 ca        1 LOR     -0.204300
     18 C24         4.6020    0.1850    5.7220 ca        1 LOR     -0.110000
     19 C25         3.9170    0.4990    6.8940 ca        1 LOR     -0.116500
     20 C26         4.5380    1.2540    7.8910 ca        1 LOR     -0.075000
     21 C27         5.8520    1.6940    7.7170 ca        1 LOR     -0.116500
     22 C28         6.5470    1.3770    6.5510 ca        1 LOR     -0.110000
     23 O81         4.0920   -3.2090    1.4130 o         1 LOR     -0.739300
     24 O82         4.1890   -1.8080    3.1860 o         1 LOR     -0.739300
     25 H1          3.3910    4.3450    1.4450 h4        1 LOR      0.045200
     26 H2          5.4220    2.9340    1.2950 h1        1 LOR      0.112700
     27 HN2         3.3110    0.2790    2.6630 hn        1 LOR      0.328700
     28 H3          2.6980    2.0820    0.8800 h1        1 LOR      0.099700
     29 H4          4.3640    2.4070   -0.8580 hc        1 LOR      0.088200
     30 H4A         5.4930    1.1720   -0.1470 hc        1 LOR      0.088200
     31 H5          4.3150    0.2340   -2.1160 hc        1 LOR      0.088700
     32 H5A         2.7080    0.6720   -1.4180 hc        1 LOR      0.088700
     33 H6          4.6300   -1.6120   -0.6730 h1        1 LOR      0.143700
     34 H22         7.7490    0.6880    4.3910 hx        1 LOR      0.125700
     35 HN22        5.8320   -1.6260    4.1770 hn        1 LOR      0.480133
     36 HN2A        7.1600   -1.3930    3.1800 hn        1 LOR      0.480133
     37 H24         4.0980   -0.4170    4.9440 ha        1 LOR      0.156500
     38 H25         2.8820    0.1460    7.0340 ha        1 LOR      0.163000
     39 H26         3.9930    1.5020    8.8160 ha        1 LOR      0.164000
     40 H27         6.3430    2.2910    8.5020 ha        1 LOR      0.163000
     41 H28         7.5840    1.7260    6.4250 ha        1 LOR      0.156500
     42 H221        4.8850    2.2390    4.0110 hn        1 LOR      0.363500
     43 H223        7.3800   -1.5940    4.8350 hn        1 LOR      0.480133
@<TRIPOS>BOND
     1    1    9 1   
     2    2    3 2   
     3    2    4 1   
     4    2   25 1   
     5    4    5 1   
     6    4    6 1   
     7    4   26 1   
     8    5   13 1   
     9    5   42 1   
    10    6    7 1   
    11    6   12 1   
    12    6   28 1   
    13    7    8 1   
    14    7   29 1   
    15    7   30 1   
    16    8    9 1   
    17    8   31 1   
    18    8   32 1   
    19    9   10 1   
    20    9   33 1   
    21   10   11 1   
    22   10   12 2   
    23   11   23 1   
    24   11   24 1   
    25   12   27 1   
    26   13   14 2   
    27   13   15 1   
    28   15   16 1   
    29   15   17 1   
    30   15   34 1   
    31   16   35 1   
    32   16   36 1   
    33   16   43 1   
    34   17   18 ar  
    35   17   22 ar  
    36   18   19 ar  
    37   18   37 1   
    38   19   20 ar  
    39   19   38 1   
    40   20   21 ar  
    41   20   39 1   
    42   21   22 ar  
    43   21   40 1   
    44   22   41 1   
@<TRIPOS>SUBSTRUCTURE
     1 LOR         1 TEMP              0 ****  ****    0 ROOT
