@<TRIPOS>MOLECULE
LOR
   43    44     1     0     0
SMALL
bcc


@<TRIPOS>ATOM
      1 CL          2.2330   -1.9370   -0.8720 cl        1 LOR     -0.070400
      2 C1          3.7660    3.7530    2.2840 c         1 LOR      0.553900
      3 O1          3.4670    4.0450    3.4360 o         1 LOR     -0.475100
      4 C2          4.6140    2.5280    1.9240 c3        1 LOR     -0.032300
      5 N2          5.2220    1.9190    3.0850 n         1 LOR     -0.537900
      6 C3          3.7060    1.5850    1.0380 c3        1 LOR     -0.009000
      7 C4          4.3910    1.3800   -0.3240 c3        1 LOR     -0.108400
      8 C5          3.7010    0.3060   -1.1350 c3        1 LOR     -0.104400
      9 C6          3.6510   -1.0210   -0.3900 c3        1 LOR     -0.056600
     10 C7          3.5870   -0.8650    1.1010 ce        1 LOR      0.292300
     11 C8          3.9020   -2.1210    2.0350 c         1 LOR      0.840300
     12 N8          3.4370    0.3040    1.6820 nh        1 LOR     -0.221100
     13 C21         6.1250    0.8980    2.9900 c         1 LOR      0.653100
     14 O21         6.5300    0.4460    1.8980 o         1 LOR     -0.613100
     15 C22         6.6910    0.2740    4.2930 c3        1 LOR      0.131800
     16 N22         6.7500   -1.2190    4.1230 n4        1 LOR     -0.847600
     17 C23         5.9490    0.6410    5.5370 ca        1 LOR     -0.204300
     18 C24         4.6210    0.2350    5.7310 ca        1 LOR     -0.110000
     19 C25         3.9570    0.5830    6.9050 ca        1 LOR     -0.116500
     20 C26         4.6060    1.3410    7.8830 ca        1 LOR     -0.075000
     21 C27         5.9270    1.7480    7.6870 ca        1 LOR     -0.116500
     22 C28         6.6020    1.3960    6.5190 ca        1 LOR     -0.110000
     23 O81         3.9920   -3.2180    1.4850 o         1 LOR     -0.739300
     24 O82         4.1360   -1.7900    3.2330 o         1 LOR     -0.739300
     25 H1          3.4560    4.3490    1.3980 h4        1 LOR      0.045200
     26 H2          5.4540    2.8910    1.2500 h1        1 LOR      0.112700
     27 HN2         3.3000    0.3060    2.6840 hn        1 LOR      0.328700
     28 H3          2.7070    2.0930    0.8780 h1        1 LOR      0.099700
     29 H4          4.3610    2.3520   -0.8820 hc        1 LOR      0.088200
     30 H4A         5.4700    1.1050   -0.1630 hc        1 LOR      0.088200
     31 H5          4.2500    0.1600   -2.1030 hc        1 LOR      0.088700
     32 H5A         2.6610    0.6450   -1.3950 hc        1 LOR      0.088700
     33 H6          4.5410   -1.6680   -0.6330 h1        1 LOR      0.143700
     34 H22         7.7640    0.6440    4.3580 hx        1 LOR      0.125700
     35 HN22        7.1150   -1.4420    3.1890 hn        1 LOR      0.480133
     36 HN2A        5.7940   -1.6290    4.2030 hn        1 LOR      0.480133
     37 H24         4.0960   -0.3680    4.9680 ha        1 LOR      0.156500
     38 H25         2.9160    0.2560    7.0620 ha        1 LOR      0.163000
     39 H26         4.0760    1.6150    8.8090 ha        1 LOR      0.164000
     40 H27         6.4400    2.3460    8.4570 ha        1 LOR      0.163000
     41 H28         7.6450    1.7190    6.3760 ha        1 LOR      0.156500
     42 H221        4.9310    2.2530    3.9820 hn        1 LOR      0.363500
     43 H223        7.3490   -1.6220    4.8450 hn        1 LOR      0.480133
@<TRIPOS>BOND
     1    1    9 1   
     2    2    3 2   
     3    2    4 1   
     4    2   25 1   
     5    4    5 1   
     6    4    6 1   
     7    4   26 1   
     8    5   13 1   
     9    5   42 1   
    10    6    7 1   
    11    6   12 1   
    12    6   28 1   
    13    7    8 1   
    14    7   29 1   
    15    7   30 1   
    16    8    9 1   
    17    8   31 1   
    18    8   32 1   
    19    9   10 1   
    20    9   33 1   
    21   10   11 1   
    22   10   12 2   
    23   11   23 1   
    24   11   24 1   
    25   12   27 1   
    26   13   14 2   
    27   13   15 1   
    28   15   16 1   
    29   15   17 1   
    30   15   34 1   
    31   16   35 1   
    32   16   36 1   
    33   16   43 1   
    34   17   18 ar  
    35   17   22 ar  
    36   18   19 ar  
    37   18   37 1   
    38   19   20 ar  
    39   19   38 1   
    40   20   21 ar  
    41   20   39 1   
    42   21   22 ar  
    43   21   40 1   
    44   22   41 1   
@<TRIPOS>SUBSTRUCTURE
     1 LOR         1 TEMP              0 ****  ****    0 ROOT
