@<TRIPOS>MOLECULE
LOR
   41    42     1     0     0
SMALL
bcc


@<TRIPOS>ATOM
      1 CL          4.5470   -0.7110   -1.3500 cl        1 LOR     -0.199400
      2 C1          0.0080    3.7680    0.0550 c         1 LOR      0.565900
      3 O1         -0.2000    4.4270   -0.9630 o         1 LOR     -0.530100
      4 C2         -0.1670    2.2570    0.1710 c3        1 LOR      0.000700
      5 N2         -1.3600    1.7880   -0.4960 n         1 LOR     -0.513900
      6 C3          1.1510    1.6120   -0.3800 c3        1 LOR      0.103500
      7 C4          2.3080    2.0040    0.5480 c3        1 LOR     -0.101400
      8 C5          3.5860    1.3410    0.0790 c3        1 LOR     -0.088400
      9 C6          3.4230   -0.1610   -0.0930 c3        1 LOR     -0.030600
     10 C7          2.0150   -0.5970   -0.4310 ce        1 LOR      0.386300
     11 C8          1.8490   -2.1490   -0.4780 c         1 LOR      0.848300
     12 N8          0.9990    0.1810   -0.5560 n2        1 LOR     -0.613900
     13 C21        -2.5080    1.5120    0.2200 c         1 LOR      0.615100
     14 O21        -2.7250    2.0180    1.3410 o         1 LOR     -0.636100
     15 C22        -3.5810    0.6140   -0.4660 c3        1 LOR      0.156800
     16 N22        -4.9310    1.0370   -0.1580 n3        1 LOR     -0.883800
     17 C23        -3.2500   -0.8130   -0.0980 ca        1 LOR     -0.101300
     18 C24        -3.9830   -1.5490    0.8380 ca        1 LOR     -0.116500
     19 C25        -3.6000   -2.8530    1.1560 ca        1 LOR     -0.126000
     20 C26        -2.4780   -3.4250    0.5610 ca        1 LOR     -0.129000
     21 C27        -1.7410   -2.6980   -0.3740 ca        1 LOR     -0.126000
     22 C28        -2.1400   -1.4070   -0.7150 ca        1 LOR     -0.116500
     23 O81         2.3110   -2.7500    0.5250 o         1 LOR     -0.799800
     24 O82         1.2810   -2.6600   -1.4720 o         1 LOR     -0.799800
     25 H1          0.3680    4.2500    0.9930 h4        1 LOR     -0.013800
     26 H2         -0.2540    2.0130    1.2750 h1        1 LOR      0.085700
     27 HN2        -1.2030    1.2570   -1.3260 hn        1 LOR      0.325500
     28 H3          1.3390    2.0670   -1.4000 h1        1 LOR      0.061700
     29 H4          2.4380    3.1160    0.5450 hc        1 LOR      0.041700
     30 H4A         2.0760    1.6890    1.5990 hc        1 LOR      0.041700
     31 H5          3.8940    1.8100   -0.8940 hc        1 LOR      0.045200
     32 H5A         4.4060    1.5440    0.8170 hc        1 LOR      0.045200
     33 H6          3.7260   -0.7210    0.8330 h1        1 LOR      0.112700
     34 H22        -3.4750    0.7110   -1.5910 h1        1 LOR      0.075700
     35 HN22       -5.1230    0.9080    0.8180 hn        1 LOR      0.351800
     36 HN2A       -5.0250    2.0140   -0.3660 hn        1 LOR      0.351800
     37 H24        -4.8610   -1.1230    1.3410 ha        1 LOR      0.133500
     38 H25        -4.1840   -3.4230    1.8920 ha        1 LOR      0.158000
     39 H26        -2.1620   -4.4420    0.8360 ha        1 LOR      0.128000
     40 H27        -0.8150   -3.1120   -0.8240 ha        1 LOR      0.158000
     41 H28        -1.5440   -0.8570   -1.4600 ha        1 LOR      0.133500
@<TRIPOS>BOND
     1    1    9 1   
     2    2    3 2   
     3    2    4 1   
     4    2   25 1   
     5    4    5 1   
     6    4    6 1   
     7    4   26 1   
     8    5   13 1   
     9    5   27 1   
    10    6    7 1   
    11    6   12 1   
    12    6   28 1   
    13    7    8 1   
    14    7   29 1   
    15    7   30 1   
    16    8    9 1   
    17    8   31 1   
    18    8   32 1   
    19    9   10 1   
    20    9   33 1   
    21   10   11 1   
    22   10   12 2   
    23   11   23 1   
    24   11   24 1   
    25   13   14 2   
    26   13   15 1   
    27   15   16 1   
    28   15   17 1   
    29   15   34 1   
    30   16   35 1   
    31   16   36 1   
    32   17   18 ar  
    33   17   22 ar  
    34   18   19 ar  
    35   18   37 1   
    36   19   20 ar  
    37   19   38 1   
    38   20   21 ar  
    39   20   39 1   
    40   21   22 ar  
    41   21   40 1   
    42   22   41 1   
@<TRIPOS>SUBSTRUCTURE
     1 LOR         1 TEMP              0 ****  ****    0 ROOT
