@<TRIPOS>MOLECULE
LOV
   40    39     1     0     0
SMALL
bcc


@<TRIPOS>ATOM
      1 CD1        -2.7010    3.3720   -2.1940 c3        1 LOV     -0.086600
      2 CD2        -1.4960    1.9830   -3.8450 c3        1 LOV     -0.086600
      3 C1G        -1.9750    2.0630   -2.4110 c3        1 LOV     -0.062700
      4 C1B        -0.7870    1.9850   -1.4780 c3        1 LOV     -0.072400
      5 C1A        -1.0230    0.9010   -0.4520 c3        1 LOV      0.157500
      6 CS          0.3020    0.4430    0.1120 c3        1 LOV      0.115100
      7 N          -1.8340    1.4120    0.6000 n3        1 LOV     -0.893800
      8 OS          0.8000    1.4210    0.9930 oh        1 LOV     -0.656800
      9 CT          0.1100   -0.8580    0.8590 c3        1 LOV     -0.081400
     10 CA          1.4570   -1.5020    1.1040 c3        1 LOV     -0.183700
     11 CB          1.4340   -2.2290    2.4310 c3        1 LOV     -0.029700
     12 CG1         1.4320   -3.7220    2.1880 c3        1 LOV     -0.092600
     13 CG2         2.6600   -1.8500    3.2330 c3        1 LOV     -0.092600
     14 C           1.7530   -2.4880   -0.0060 c         1 LOV      0.913600
     15 O           0.8410   -3.2390   -0.4410 o         1 LOV     -0.846800
     16 OXT         2.9120   -2.5570   -0.4930 o         1 LOV     -0.846800
     17 HD11       -2.0610    4.1130   -2.2440 hc        1 LOV      0.026200
     18 HD12       -3.1270    3.3670   -1.3120 hc        1 LOV      0.026200
     19 HD13       -3.3850    3.4850   -2.8870 hc        1 LOV      0.026200
     20 HD21       -1.0310    1.1320   -3.9870 hc        1 LOV      0.026200
     21 HD22       -2.2660    2.0410   -4.4490 hc        1 LOV      0.026200
     22 HD23       -0.8820    2.7260   -4.0260 hc        1 LOV      0.026200
     23 H1G        -2.5810    1.3200   -2.2290 hc        1 LOV      0.055700
     24 H1B1        0.0190    1.7760   -1.9930 hc        1 LOV      0.050200
     25 H1B2       -0.6710    2.8440   -1.0250 hc        1 LOV      0.050200
     26 H1A        -1.4760    0.1450   -0.8740 h1        1 LOV      0.046700
     27 HS1         0.9380    0.3080   -0.6180 h1        1 LOV      0.069700
     28 H          -2.6230    0.9480    0.6290 hn        1 LOV      0.340800
     29 H2         -1.3950    1.3180    1.3980 hn        1 LOV      0.340800
     30 HOS         1.5870    1.7120    0.6990 ho        1 LOV      0.460000
     31 HT1        -0.4480   -1.4600    0.3270 hc        1 LOV      0.024200
     32 HT2        -0.3270   -0.6800    1.7160 hc        1 LOV      0.024200
     33 HA          2.1490   -0.8140    1.1210 hc        1 LOV      0.039700
     34 HB          0.6310   -1.9780    2.9260 hc        1 LOV     -0.000300
     35 HG11        2.2320   -3.9720    1.6810 hc        1 LOV      0.031033
     36 HG12        1.4290   -4.1920    3.0480 hc        1 LOV      0.031033
     37 HG13        0.6320   -3.9690    1.6790 hc        1 LOV      0.031033
     38 HG21        3.4660   -2.0440    2.7100 hc        1 LOV      0.031033
     39 HG22        2.6300   -0.8940    3.4440 hc        1 LOV      0.031033
     40 HG23        2.6780   -2.3680    4.0650 hc        1 LOV      0.031033
@<TRIPOS>BOND
     1    1    3 1   
     2    1   17 1   
     3    1   18 1   
     4    1   19 1   
     5    2    3 1   
     6    2   20 1   
     7    2   21 1   
     8    2   22 1   
     9    3    4 1   
    10    3   23 1   
    11    4    5 1   
    12    4   24 1   
    13    4   25 1   
    14    5    6 1   
    15    5    7 1   
    16    5   26 1   
    17    6    8 1   
    18    6    9 1   
    19    6   27 1   
    20    7   28 1   
    21    7   29 1   
    22    8   30 1   
    23    9   10 1   
    24    9   31 1   
    25    9   32 1   
    26   10   11 1   
    27   10   14 1   
    28   10   33 1   
    29   11   12 1   
    30   11   13 1   
    31   11   34 1   
    32   12   35 1   
    33   12   36 1   
    34   12   37 1   
    35   13   38 1   
    36   13   39 1   
    37   13   40 1   
    38   14   15 1   
    39   14   16 1   
@<TRIPOS>SUBSTRUCTURE
     1 LOV         1 TEMP              0 ****  ****    0 ROOT
