@<TRIPOS>MOLECULE
LOV
   40    39     1     0     0
SMALL
bcc


@<TRIPOS>ATOM
      1 CD1         5.3090    0.8620   -0.4940 c3        1 LOV     -0.086600
      2 CD2         4.2730    0.3970    1.7130 c3        1 LOV     -0.086600
      3 C1G         4.2530    0.0560    0.2370 c3        1 LOV     -0.067700
      4 C1B         2.8880    0.3230   -0.3770 c3        1 LOV     -0.069400
      5 C1A         1.7940   -0.6550    0.0730 c3        1 LOV      0.156500
      6 CS          0.4360   -0.1370   -0.4830 c3        1 LOV      0.114100
      7 N           2.1040   -2.0350   -0.2680 n3        1 LOV     -0.893800
      8 OS          0.3730   -0.4980   -1.8540 oh        1 LOV     -0.656800
      9 CT         -0.7350   -0.7180    0.3060 c3        1 LOV     -0.080400
     10 CA         -2.0790   -0.3350   -0.2910 c3        1 LOV     -0.185700
     11 CB         -3.2310   -0.6980    0.6400 c3        1 LOV     -0.052700
     12 CG1        -4.5560   -0.4560   -0.0550 c3        1 LOV     -0.083600
     13 CG2        -3.1540   -2.1320    1.1220 c3        1 LOV     -0.083600
     14 C          -2.0990    1.1780   -0.6280 c         1 LOV      0.909600
     15 O          -2.5370    2.0040    0.2180 o         1 LOV     -0.844800
     16 OXT        -1.6510    1.5120   -1.7680 o         1 LOV     -0.844800
     17 HD11        6.3160    0.6800   -0.0490 hc        1 LOV      0.026200
     18 HD12        5.3400    0.5750   -1.5730 hc        1 LOV      0.026200
     19 HD13        5.0850    1.9540   -0.4270 hc        1 LOV      0.026200
     20 HD21        3.9960    1.4660    1.8740 hc        1 LOV      0.026200
     21 HD22        3.5490   -0.2440    2.2700 hc        1 LOV      0.026200
     22 HD23        5.2930    0.2280    2.1360 hc        1 LOV      0.026200
     23 H1G         4.5020   -1.0360    0.1220 hc        1 LOV      0.059700
     24 H1B1        2.5600    1.3600   -0.1010 hc        1 LOV      0.048700
     25 H1B2        2.9650    0.2850   -1.4960 hc        1 LOV      0.048700
     26 H1A         1.7190   -0.6110    1.2000 h1        1 LOV      0.047700
     27 HS1         0.4010    0.9880   -0.3930 h1        1 LOV      0.070700
     28 H           1.2980   -2.6020   -0.0730 hn        1 LOV      0.341300
     29 H2          2.2800   -2.0960   -1.2550 hn        1 LOV      0.341300
     30 HOS        -0.3450    0.0400   -2.2380 ho        1 LOV      0.460000
     31 HT1        -0.6540   -1.8360    0.3350 hc        1 LOV      0.023200
     32 HT2        -0.6730   -0.3410    1.3600 hc        1 LOV      0.023200
     33 HA         -2.2050   -0.8920   -1.2600 hc        1 LOV      0.039700
     34 HB         -3.1720   -0.0070    1.5300 hc        1 LOV      0.067700
     35 HG11       -4.6670   -1.1270   -0.9410 hc        1 LOV      0.021033
     36 HG12       -5.4050   -0.6490    0.6430 hc        1 LOV      0.021033
     37 HG13       -4.6010    0.6070   -0.3990 hc        1 LOV      0.021033
     38 HG21       -3.0370   -2.8310    0.2590 hc        1 LOV      0.021033
     39 HG22       -2.2850   -2.2710    1.8090 hc        1 LOV      0.021033
     40 HG23       -4.0850   -2.4080    1.6750 hc        1 LOV      0.021033
@<TRIPOS>BOND
     1    1    3 1   
     2    1   17 1   
     3    1   18 1   
     4    1   19 1   
     5    2    3 1   
     6    2   20 1   
     7    2   21 1   
     8    2   22 1   
     9    3    4 1   
    10    3   23 1   
    11    4    5 1   
    12    4   24 1   
    13    4   25 1   
    14    5    6 1   
    15    5    7 1   
    16    5   26 1   
    17    6    8 1   
    18    6    9 1   
    19    6   27 1   
    20    7   28 1   
    21    7   29 1   
    22    8   30 1   
    23    9   10 1   
    24    9   31 1   
    25    9   32 1   
    26   10   11 1   
    27   10   14 1   
    28   10   33 1   
    29   11   12 1   
    30   11   13 1   
    31   11   34 1   
    32   12   35 1   
    33   12   36 1   
    34   12   37 1   
    35   13   38 1   
    36   13   39 1   
    37   13   40 1   
    38   14   15 1   
    39   14   16 1   
@<TRIPOS>SUBSTRUCTURE
     1 LOV         1 TEMP              0 ****  ****    0 ROOT
