@<TRIPOS>MOLECULE
LOX
   21    21     1     0     0
SMALL
bcc


@<TRIPOS>ATOM
      1 C1          1.2390   -0.0810   -0.2090 c2        1 LOX      0.513200
      2 C2          0.1170    0.9520   -0.4060 c3        1 LOX      0.093800
      3 C3         -1.1960    0.4640    0.2320 c3        1 LOX      0.109100
      4 C4         -1.5560   -0.9270   -0.3080 c3        1 LOX      0.145100
      5 C5         -0.4050   -1.9000   -0.0050 c3        1 LOX      0.185800
      6 N1          0.8750   -1.4220   -0.4690 nh        1 LOX     -0.813200
      7 O22         3.4180   -0.5030    0.1920 oh        1 LOX     -0.364500
      8 N2          2.4530    0.3810    0.0390 n2        1 LOX     -0.521200
      9 O2          0.3610    2.2070    0.2030 oh        1 LOX     -0.598800
     10 O3         -2.2650    1.3240   -0.1230 oh        1 LOX     -0.608800
     11 O4         -2.6960   -1.4440    0.3570 oh        1 LOX     -0.596800
     12 H2         -0.0210    1.0900   -1.5180 h1        1 LOX      0.070700
     13 H3         -1.0890    0.4370    1.3520 h1        1 LOX      0.068700
     14 H4         -1.7580   -0.8660   -1.4130 h1        1 LOX      0.062700
     15 H51        -0.6120   -2.8730   -0.5350 h1        1 LOX      0.058200
     16 H52        -0.4050   -2.1060    1.1060 h1        1 LOX      0.058200
     17 HN1         1.6080   -2.0810   -0.2880 hn        1 LOX      0.415800
     18 HO22        4.2130    0.0410    0.3640 ho        1 LOX      0.441000
     19 HO2         1.1740    2.5690   -0.1700 ho        1 LOX      0.429000
     20 HO3        -2.0190    2.2100    0.1770 ho        1 LOX      0.428000
     21 HO4        -3.3920   -0.7790    0.2570 ho        1 LOX      0.426000
@<TRIPOS>BOND
     1    1    2 1   
     2    1    6 1   
     3    1    8 2   
     4    2    3 1   
     5    2    9 1   
     6    2   12 1   
     7    3    4 1   
     8    3   10 1   
     9    3   13 1   
    10    4    5 1   
    11    4   11 1   
    12    4   14 1   
    13    5    6 1   
    14    5   15 1   
    15    5   16 1   
    16    6   17 1   
    17    7    8 1   
    18    7   18 1   
    19    9   19 1   
    20   10   20 1   
    21   11   21 1   
@<TRIPOS>SUBSTRUCTURE
     1 LOX         1 TEMP              0 ****  ****    0 ROOT
