@<TRIPOS>MOLECULE
LOX
   21    20     1     0     0
SMALL
bcc


@<TRIPOS>ATOM
      1 C1         -1.0120    0.3140   -0.8860 c1        1 LOX     -0.009000
      2 C2          0.5840    0.3140   -0.8860 c2        1 LOX      0.020000
      3 C3          1.0710    0.3140    0.5030 c3        1 LOX      0.004000
      4 C4          0.4260   -0.7820    1.3550 c3        1 LOX     -0.002000
      5 C5         -1.0400   -0.7340    1.3180 c3        1 LOX     -0.049000
      6 N1         -1.6060   -0.6980   -0.0590 n3        1 LOX     -0.266000
      7 O22        -1.0930    2.1060   -2.3490 oh        1 LOX     -0.264000
      8 N2         -1.7190    1.1640   -1.5800 n2        1 LOX     -0.110000
      9 O2          1.1360   -0.7800   -1.6640 oh        1 LOX     -0.324000
     10 O3          0.7790    1.5940    1.0970 oh        1 LOX     -0.333000
     11 O4          0.8620   -2.0680    0.8660 oh        1 LOX     -0.328000
     12 H2          0.9300    1.0850   -1.3740 h4        1 LOX      0.105000
     13 H3          2.0380    0.1820    0.4980 h1        1 LOX      0.108000
     14 H4          0.7220   -0.6790    2.2800 h1        1 LOX      0.110000
     15 H51        -1.3890   -1.5220    1.7770 h1        1 LOX      0.109500
     16 H52        -1.3370    0.0630    1.7970 h1        1 LOX      0.109500
     17 HN1        -1.9350   -1.4600   -0.4370 hn        1 LOX      0.213000
     18 HO22       -1.7020    2.6020   -2.7620 ho        1 LOX      0.242000
     19 HO2         1.5310   -0.4570   -2.3910 ho        1 LOX      0.229000
     20 HO3         1.5350    1.9760    1.3630 ho        1 LOX      0.225000
     21 HO4         1.2190   -2.5330    1.5330 ho        1 LOX      0.211000
@<TRIPOS>BOND
     1    1    6 1   
     2    1    8 1   
     3    2    3 1   
     4    2    9 1   
     5    2   12 1   
     6    3    4 1   
     7    3   10 1   
     8    3   13 1   
     9    4    5 1   
    10    4   11 1   
    11    4   14 1   
    12    5    6 1   
    13    5   15 1   
    14    5   16 1   
    15    6   17 1   
    16    7    8 1   
    17    7   18 1   
    18    9   19 1   
    19   10   20 1   
    20   11   21 1   
@<TRIPOS>SUBSTRUCTURE
     1 LOX         1 TEMP              0 ****  ****    0 ROOT
