@<TRIPOS>MOLECULE
LOZ
   52    55     1     0     0
SMALL
bcc


@<TRIPOS>ATOM
      1 C27        -0.2350   -5.9710    0.9180 ca        1 LOZ     -0.142000
      2 C29        -1.4250   -5.2490    0.9650 ca        1 LOZ     -0.142000
      3 C25         0.9840   -5.3220    0.6850 ca        1 LOZ     -0.128000
      4 C31        -1.4260   -3.8610    0.7760 ca        1 LOZ     -0.121000
      5 C7         -2.7990   -0.4670   -0.5800 ca        1 LOZ     -0.158000
      6 C9         -3.8040    0.5130   -0.5490 ca        1 LOZ     -0.136000
      7 C5         -1.0960    1.1060   -1.3900 ca        1 LOZ     -0.077600
      8 C24         0.9870   -3.9480    0.5000 ca        1 LOZ     -0.075300
      9 C23        -0.2230   -3.2140    0.5420 ca        1 LOZ     -0.074300
     10 C6         -1.4900   -0.1970   -0.9950 ca        1 LOZ     -0.057300
     11 C11        -3.4260    1.7730   -0.9630 ca        1 LOZ      0.027100
     12 C17        -2.1000    2.0610   -1.3740 ca        1 LOZ      0.078100
     13 C33         2.1440   -3.0440    0.2560 c3        1 LOZ     -0.058100
     14 C13        -3.3330    3.9720   -1.5290 c3        1 LOZ      0.317200
     15 C21         0.0160   -1.7490    0.3000 c3        1 LOZ     -0.024400
     16 C36         1.5670   -1.6160    0.5180 c3        1 LOZ      0.114700
     17 C18        -0.5380   -1.3480   -1.0650 c3        1 LOZ     -0.045100
     18 C42         3.7510    1.3630   -0.3960 c3        1 LOZ     -0.170400
     19 C45         4.6020    2.2720    0.4580 c3        1 LOZ     -0.102400
     20 C48         5.2060    3.3890   -0.3940 c3        1 LOZ      0.138800
     21 N38         2.2440   -0.5750   -0.1890 n         1 LOZ     -0.562900
     22 N51         5.9990    4.3650    0.3140 n3        1 LOZ     -0.905800
     23 O3          0.8630    2.4480   -1.1740 o         1 LOZ     -0.822800
     24 O1          0.9470    0.7520   -2.6060 o         1 LOZ     -0.822800
     25 O41         3.6320   -0.0610    1.5690 o         1 LOZ     -0.670100
     26 O12        -4.2060    2.9260   -1.0500 os        1 LOZ     -0.356900
     27 O16        -2.0270    3.4060   -1.7420 os        1 LOZ     -0.304900
     28 H27        -0.2490   -7.0600    1.0660 ha        1 LOZ      0.117000
     29 H29        -2.3740   -5.7700    1.1520 ha        1 LOZ      0.118000
     30 H25         1.9210   -5.8940    0.6520 ha        1 LOZ      0.125000
     31 H31        -2.3680   -3.2960    0.8110 ha        1 LOZ      0.132000
     32 H7         -3.0600   -1.4900   -0.2710 ha        1 LOZ      0.117000
     33 H9         -4.8240    0.2860   -0.2220 ha        1 LOZ      0.132000
     34 H331        2.9960   -3.2490    0.9470 hc        1 LOZ      0.060200
     35 H332        2.5100   -3.1540   -0.7960 hc        1 LOZ      0.060200
     36 H21        -0.4930   -1.1370    1.0930 hc        1 LOZ      0.070700
     37 H181       -1.0990   -2.2250   -1.4950 hc        1 LOZ      0.075200
     38 H182        0.2750   -1.1190   -1.8060 hc        1 LOZ      0.075200
     39 H421        4.3550    0.9460   -1.2440 hc        1 LOZ      0.102700
     40 H422        2.8860    1.9420   -0.8460 hc        1 LOZ      0.102700
     41 H38         1.8770   -0.2680   -1.0710 hn        1 LOZ      0.365500
     42 H36         1.7060   -1.4230    1.6290 h1        1 LOZ      0.069700
     43 H131       -3.7270    4.3450   -2.5070 h2        1 LOZ      0.052700
     44 H132       -3.2610    4.7650   -0.7440 h2        1 LOZ      0.052700
     45 H451        3.9680    2.7080    1.2740 hc        1 LOZ      0.043700
     46 H452        5.4130    1.6780    0.9540 hc        1 LOZ      0.043700
     47 H481        5.8630    2.9250   -1.1830 h1        1 LOZ      0.055700
     48 H482        4.3720    3.9310   -0.9240 h1        1 LOZ      0.055700
     49 H511        5.4230    4.8860    0.9480 hn        1 LOZ      0.333800
     50 H512        6.7130    3.9100    0.8500 hn        1 LOZ      0.333800
     51 C2          0.3300    1.4670   -1.7590 c         1 LOZ      0.916200
     52 C40         3.2080    0.2050    0.4200 c         1 LOZ      0.671100
@<TRIPOS>BOND
     1    1    2 ar  
     2    1    3 ar  
     3    1   28 1   
     4    2    4 ar  
     5    2   29 1   
     6    3    8 ar  
     7    3   30 1   
     8    4    9 ar  
     9    4   31 1   
    10    5    6 ar  
    11    5   10 ar  
    12    5   32 1   
    13    6   11 ar  
    14    6   33 1   
    15    7   10 ar  
    16    7   12 ar  
    17    7   51 1   
    18    8    9 ar  
    19    8   13 1   
    20    9   15 1   
    21   10   17 1   
    22   11   12 ar  
    23   11   26 1   
    24   12   27 1   
    25   13   16 1   
    26   13   34 1   
    27   13   35 1   
    28   14   26 1   
    29   14   27 1   
    30   14   43 1   
    31   14   44 1   
    32   15   16 1   
    33   15   17 1   
    34   15   36 1   
    35   16   21 1   
    36   16   42 1   
    37   17   37 1   
    38   17   38 1   
    39   18   19 1   
    40   18   39 1   
    41   18   40 1   
    42   18   52 1   
    43   19   20 1   
    44   19   45 1   
    45   19   46 1   
    46   20   22 1   
    47   20   47 1   
    48   20   48 1   
    49   21   41 1   
    50   21   52 1   
    51   22   49 1   
    52   22   50 1   
    53   23   51 1   
    54   24   51 1   
    55   25   52 2   
@<TRIPOS>SUBSTRUCTURE
     1 LOZ         1 TEMP              0 ****  ****    0 ROOT
