@<TRIPOS>MOLECULE
LOZ
   54    52     1     0     0
SMALL
bcc


@<TRIPOS>ATOM
      1 C27        -2.1280   -1.1310    1.4080 c3        1 LOZ     -0.219000
      2 C29        -1.9800   -0.2320    0.2550 c2        1 LOZ      0.005000
      3 C25        -1.2170   -0.8670    2.5260 c2        1 LOZ      0.060000
      4 C31        -1.0620    0.7750    0.2490 c2        1 LOZ     -0.214000
      5 C7          6.8120    1.7470    0.7530 ca        1 LOZ     -0.024000
      6 C9          8.1190    1.5910    1.2770 ca        1 LOZ     -0.076000
      7 C5          5.9470    0.8910    2.8740 ca        1 LOZ     -0.258000
      8 C24        -0.2910    0.1530    2.4980 c2        1 LOZ     -0.137000
      9 C23        -0.2010    1.0000    1.3630 c2        1 LOZ      0.204000
     10 C6          5.7460    1.4010    1.5440 ca        1 LOZ     -0.199000
     11 C11         8.3200    1.0990    2.5560 ca        1 LOZ     -0.072000
     12 C17         7.2170    0.7330    3.3920 ca        1 LOZ      0.166000
     13 C33         0.6210    0.3640    3.6620 c3        1 LOZ     -0.178000
     14 C13        10.1560    0.2440    3.8570 c1        1 LOZ      0.020000
     15 C21         0.7650    2.1030    1.3110 c3        1 LOZ     -0.262000
     16 C36         0.5570   -0.8210    4.5670 c1        1 LOZ     -0.148000
     17 C18         4.2770    1.4510    1.3020 c1        1 LOZ      0.151000
     18 C42        -0.8480   -5.5840    7.6390 c2        1 LOZ     -0.435000
     19 C45         0.0480   -6.2090    8.6360 c3        1 LOZ     -0.141000
     20 C48        -0.5880   -4.5510    6.8850 c1        1 LOZ      0.087000
     21 N38         1.4920   -1.0750    5.4500 n         1 LOZ     -0.228000
     22 N51        -4.2090   -7.1900    7.5230 n3        1 LOZ     -0.408000
     23 O3          4.1380    0.2250    4.4750 o         1 LOZ     -0.267000
     24 O1          3.6720    1.0070    2.4060 os        1 LOZ     -0.222000
     25 O41         2.2880   -2.4510    7.1000 o         1 LOZ     -0.285000
     26 O12         9.6690    1.0490    3.0120 os        1 LOZ      0.000000
     27 O16         7.5010    0.2510    4.6340 oh        1 LOZ     -0.237000
     28 H27        -1.9880   -2.2070    1.0660 hc        1 LOZ      0.203500
     29 H29        -0.9660    1.4420   -0.6270 ha        1 LOZ      0.182000
     30 H25        -3.2000   -1.0870    1.7850 hc        1 LOZ      0.203500
     31 H31        -2.6460   -0.4050   -0.6100 ha        1 LOZ      0.176000
     32 H7          6.6730    2.1400   -0.2670 ha        1 LOZ      0.172000
     33 H9          8.9930    1.8710    0.6650 ha        1 LOZ      0.180000
     34 H331        0.2790    1.2730    4.2360 hc        1 LOZ      0.128500
     35 H332        1.6640    0.5810    3.2880 hc        1 LOZ      0.128500
     36 H21         0.7740    2.6710    2.2790 hc        1 LOZ      0.148333
     37 H181        1.8090    1.6890    1.1650 hc        1 LOZ      0.148333
     38 H182        0.5540    2.8130    0.4720 hc        1 LOZ      0.148333
     39 H421       -1.8490   -6.0700    7.5470 ha        1 LOZ      0.224000
     40 H422        3.0330   -4.4630    8.4170 ha        1 LOZ      0.001000
     41 H38         2.3240   -0.5180    5.5710 hn        1 LOZ      0.206000
     42 H36        -1.2790   -1.5240    3.4240 ha        1 LOZ      0.225000
     43 H131        9.5900   -0.5510    4.3750 ha        1 LOZ      0.080000
     44 H132        6.6670    0.0980    5.1140 ho        1 LOZ      0.258000
     45 H451        1.0270   -5.6720    8.7020 hc        1 LOZ      0.091667
     46 H452        2.8230   -4.0610    8.9190 ha        1 LOZ      0.001000
     47 H481        0.2420   -7.2740    8.3550 hc        1 LOZ      0.091667
     48 H482       -0.4370   -6.1890    9.6450 hc        1 LOZ      0.091667
     49 H511       -4.3400   -7.8930    6.8260 hn        1 LOZ      0.136333
     50 H512       -5.0330   -6.6290    7.5750 hn        1 LOZ      0.136333
     51 C40         1.3760   -2.2200    6.3070 c2        1 LOZ      0.253000
     52 H382        0.4380   -2.8230    6.1770 h5        1 LOZ      0.230000
     53 H513       -4.0660   -7.6350    8.4060 hn        1 LOZ      0.136333
     54 C2          4.6190    0.6370    3.4350 c2        1 LOZ      0.333000
@<TRIPOS>BOND
     1    1    2 1   
     2    1    3 1   
     3    1   28 1   
     4    1   30 1   
     5    2    4 1   
     6    2   31 1   
     7    3    8 1   
     8    3   42 1   
     9    4    9 1   
    10    4   29 1   
    11    5    6 1   
    12    5   10 1   
    13    5   32 1   
    14    6   11 1   
    15    6   33 1   
    16    7   10 1   
    17    7   12 1   
    18    7   54 1   
    19    8    9 1   
    20    8   13 1   
    21    9   15 1   
    22   10   17 1   
    23   11   12 1   
    24   11   26 1   
    25   12   27 1   
    26   13   16 1   
    27   13   34 1   
    28   13   35 1   
    29   14   26 1   
    30   14   43 1   
    31   15   36 1   
    32   15   37 1   
    33   15   38 1   
    34   16   21 1   
    35   17   24 1   
    36   18   19 1   
    37   18   20 1   
    38   18   39 1   
    39   19   45 1   
    40   19   47 1   
    41   19   48 1   
    42   21   41 1   
    43   21   51 1   
    44   22   49 1   
    45   22   50 1   
    46   22   53 1   
    47   23   54 1   
    48   24   54 1   
    49   25   51 1   
    50   27   44 1   
    51   40   46 1   
    52   51   52 1   
@<TRIPOS>SUBSTRUCTURE
     1 LOZ         1 TEMP              0 ****  ****    0 ROOT
