@<TRIPOS>MOLECULE
LOZ
   54    54     1     0     0
SMALL
bcc


@<TRIPOS>ATOM
      1 C27        -3.3290   -0.4060    2.0310 c3        1 LOZ     -0.201000
      2 C29        -3.7220    0.7310    1.1840 c2        1 LOZ     -0.013000
      3 C25        -2.0460   -0.2400    2.6940 c2        1 LOZ      0.086000
      4 C31        -2.9280    1.8260    1.0290 c2        1 LOZ     -0.211000
      5 C7          5.2700   -2.6600    4.3880 ca        1 LOZ     -0.021000
      6 C9          6.6290   -3.0480    4.4630 ca        1 LOZ     -0.080000
      7 C5          5.9980   -0.3450    4.7060 ca        1 LOZ     -0.248000
      8 C24        -1.2380    0.8860    2.4960 c2        1 LOZ     -0.209000
      9 C23        -1.6560    1.9350    1.6790 c2        1 LOZ      0.181000
     10 C6          4.9650   -1.3260    4.5080 ca        1 LOZ     -0.191000
     11 C11         7.6290   -2.1100    4.6540 ca        1 LOZ     -0.062000
     12 C17         7.3250   -0.7160    4.7810 ca        1 LOZ      0.166000
     13 C33         0.0700    0.7620    3.2200 c3        1 LOZ     -0.124000
     14 C13        10.0350   -2.0210    4.5210 c1        1 LOZ      0.026000
     15 C21        -0.8440    3.1420    1.4540 c3        1 LOZ     -0.239000
     16 C36         0.0400   -0.6390    3.7800 c2        1 LOZ      0.026000
     17 C18         3.6790   -0.6010    4.4810 c1        1 LOZ      0.066000
     18 C42         1.8900   -4.4250    4.5970 c3        1 LOZ     -0.407000
     19 C45         0.4280   -4.5760    4.9190 c3        1 LOZ     -0.407000
     20 C48         1.2660   -5.7790    4.7070 c1        1 LOZ      0.210000
     21 N38         1.0390   -1.3030    4.2600 n8        1 LOZ     -0.189000
     22 N51         1.8820   -6.1090    7.4250 n9        1 LOZ     -0.421000
     23 O3          5.6430    2.1220    4.9560 o         1 LOZ     -0.198000
     24 O1          3.9080    0.6930    4.6480 os        1 LOZ     -0.174000
     25 O41        -1.4200   -2.4990    3.2380 o         1 LOZ     -0.565000
     26 O12         8.9540   -2.6190    4.7860 os        1 LOZ      0.003000
     27 O16         8.3690    0.1410    4.9610 oh        1 LOZ     -0.235000
     28 H27        -3.2600   -1.3690    1.4140 hc        1 LOZ      0.225500
     29 H29        -3.2470    2.6670    0.3870 ha        1 LOZ      0.177000
     30 H25        -4.1410   -0.6420    2.7900 hc        1 LOZ      0.225500
     31 H31        -4.6990    0.6580    0.6720 ha        1 LOZ      0.175000
     32 H7          4.4870   -3.4240    4.2430 ha        1 LOZ      0.172000
     33 H9          6.9000   -4.1150    4.3780 ha        1 LOZ      0.185000
     34 H331        0.1510    1.5140    4.0510 hc        1 LOZ      0.140500
     35 H332        0.9360    0.9190    2.5240 hc        1 LOZ      0.140500
     36 H21        -1.4130    4.0510    1.7870 hc        1 LOZ      0.131000
     37 H181        0.1260    3.1060    2.0080 hc        1 LOZ      0.131000
     38 H182       -0.6290    3.2610    0.3590 hc        1 LOZ      0.131000
     39 H421        2.1950   -4.0540    3.6020 hc        1 LOZ      0.152250
     40 H422        2.8100   -1.2690    6.7030 ha        1 LOZ      0.004000
     41 H38         2.0350   -0.9540    4.3310 hn        1 LOZ      0.297500
     42 H36         0.8710   -2.2570    4.5540 hn        1 LOZ      0.297500
     43 H131       10.1230   -0.9880    4.1390 ha        1 LOZ      0.087000
     44 H132        8.0240    1.0420    5.0980 ho        1 LOZ      0.261000
     45 H451       -1.9060   -1.0670    4.6560 h1        1 LOZ      0.061000
     46 H452        2.5860   -4.1010    5.3940 hc        1 LOZ      0.152250
     47 H481        0.0760   -4.3520    5.9460 hc        1 LOZ      0.152250
     48 H482       -0.3380   -4.2860    4.1670 hc        1 LOZ      0.152250
     49 H511        2.7550   -6.2210    7.8960 hn        1 LOZ      0.141667
     50 H512        1.1450   -6.1520    8.0990 hn        1 LOZ      0.141667
     51 C40        -1.4280   -1.2800    3.6440 c3        1 LOZ      0.226000
     52 H382        2.8990   -1.8990    6.4690 ha        1 LOZ      0.004000
     53 H513        1.7670   -6.8610    6.7730 hn        1 LOZ      0.141667
     54 C2          5.3390    0.9590    4.8010 c2        1 LOZ      0.326000
@<TRIPOS>BOND
     1    1    2 1   
     2    1    3 1   
     3    1   28 1   
     4    1   30 1   
     5    2    4 1   
     6    2   31 1   
     7    3    8 1   
     8    3   51 1   
     9    4    9 1   
    10    4   29 1   
    11    5    6 1   
    12    5   10 1   
    13    5   32 1   
    14    6   11 1   
    15    6   33 1   
    16    7   10 1   
    17    7   12 1   
    18    7   54 1   
    19    8    9 1   
    20    8   13 1   
    21    9   15 1   
    22   10   17 1   
    23   11   12 1   
    24   11   26 1   
    25   12   27 1   
    26   13   16 1   
    27   13   34 1   
    28   13   35 1   
    29   14   26 1   
    30   14   43 1   
    31   15   36 1   
    32   15   37 1   
    33   15   38 1   
    34   16   21 1   
    35   16   51 1   
    36   17   24 1   
    37   18   19 1   
    38   18   20 1   
    39   18   39 1   
    40   18   46 1   
    41   19   20 1   
    42   19   47 1   
    43   19   48 1   
    44   21   41 1   
    45   21   42 1   
    46   22   49 1   
    47   22   50 1   
    48   22   53 1   
    49   23   54 1   
    50   24   54 1   
    51   25   51 1   
    52   27   44 1   
    53   40   52 1   
    54   45   51 1   
@<TRIPOS>SUBSTRUCTURE
     1 LOZ         1 TEMP              0 ****  ****    0 ROOT
