@<TRIPOS>MOLECULE
LP3
   89    88     1     0     0
SMALL
bcc


@<TRIPOS>ATOM
      1 C1         -6.4950    0.9410    1.2140 c3        1 LP3      0.131400
      2 C2         -5.1080    0.5010    1.6880 c3        1 LP3      0.141100
      3 C3         -4.0740    1.5840    1.3730 c3        1 LP3      0.136400
      4 C4         -9.7440    0.1120   -1.2620 c3        1 LP3      0.187400
      5 C5        -10.6540   -0.9900   -1.8400 c3        1 LP3      0.086800
      6 C6        -12.2700   -0.6940    0.0030 c3        1 LP3      0.077100
      7 C7        -12.6050   -2.4250   -1.6670 c3        1 LP3      0.077100
      8 C8        -10.8240   -2.6590   -0.0340 c3        1 LP3      0.077100
      9 C11        -1.8190    1.6420    0.5900 c         1 LP3      0.632100
     10 C12        -0.6890    0.8290    0.0380 c3        1 LP3     -0.127400
     11 C13         0.6400    1.3020    0.5880 c3        1 LP3     -0.079400
     12 C14         1.7870    0.5720   -0.0760 c3        1 LP3     -0.078400
     13 C15         3.1180    1.0280    0.4840 c3        1 LP3     -0.079400
     14 C16         4.2690    0.3040   -0.1810 c3        1 LP3     -0.078400
     15 C17         5.6000    0.7580    0.3780 c3        1 LP3     -0.079400
     16 C18         6.7510    0.0350   -0.2860 c3        1 LP3     -0.078400
     17 C19         8.0820    0.4900    0.2730 c3        1 LP3     -0.079400
     18 C20         9.2340   -0.2340   -0.3910 c3        1 LP3     -0.078400
     19 C21        10.5650    0.2220    0.1680 c3        1 LP3     -0.079400
     20 C22        11.7160   -0.5020   -0.4960 c3        1 LP3     -0.078400
     21 C23        13.0470   -0.0460    0.0630 c3        1 LP3     -0.079400
     22 C24        14.1990   -0.7700   -0.6010 c3        1 LP3     -0.078400
     23 C25        15.5300   -0.3150   -0.0410 c3        1 LP3     -0.079400
     24 C26        16.6820   -1.0380   -0.7050 c3        1 LP3     -0.079400
     25 C27        18.0130   -0.5840   -0.1470 c3        1 LP3     -0.080400
     26 C28        19.1630   -1.3010   -0.8050 c3        1 LP3     -0.092100
     27 N         -11.5800   -1.6820   -0.8760 n4        1 LP3     -0.582800
     28 O2         -5.0850    0.3130    3.0950 oh        1 LP3     -0.607800
     29 O3         -2.9380    0.8940    0.8240 os        1 LP3     -0.442900
     30 O11        -1.8590    2.8520    0.8250 o         1 LP3     -0.545000
     31 O1P        -9.9070   -0.5910    1.8790 o         1 LP3     -0.818000
     32 O2P        -9.1540    1.7330    0.9370 o         1 LP3     -0.818000
     33 O3P        -7.4250   -0.0040    1.6840 os        1 LP3     -0.563200
     34 O4P        -8.8730   -0.4020   -0.3240 os        1 LP3     -0.577200
     35 P          -8.9430    0.3030    1.2000 p5        1 LP3      1.428800
     36 H11        -6.7720    1.9500    1.6250 h1        1 LP3      0.050700
     37 H12        -6.5420    0.9690    0.0930 h1        1 LP3      0.050700
     38 H2         -4.8280   -0.4680    1.1860 h1        1 LP3      0.059700
     39 H31        -3.7640    2.1330    2.3000 h1        1 LP3      0.067700
     40 H32        -4.4510    2.3100    0.6070 h1        1 LP3      0.067700
     41 H41       -10.3520    0.9610   -0.8390 h1        1 LP3      0.061700
     42 H42        -9.1560    0.4910   -2.1500 h1        1 LP3      0.061700
     43 H51       -11.2910   -0.5220   -2.6420 hx        1 LP3      0.079200
     44 H52       -10.0000   -1.7870   -2.2930 hx        1 LP3      0.079200
     45 H61       -12.6900    0.1320   -0.6260 hx        1 LP3      0.100367
     46 H62       -13.0910   -1.2100    0.5640 hx        1 LP3      0.100367
     47 H63       -11.5210   -0.2830    0.7550 hx        1 LP3      0.100367
     48 H71       -12.0920   -3.1190   -2.3830 hx        1 LP3      0.100367
     49 H72       -13.2520   -3.0200   -0.9700 hx        1 LP3      0.100367
     50 H73       -13.2410   -1.6980   -2.2360 hx        1 LP3      0.100367
     51 H81       -10.0310   -2.0950    0.5570 hx        1 LP3      0.100367
     52 H82       -11.5320   -3.1440    0.6850 hx        1 LP3      0.100367
     53 H83       -10.3470   -3.4240   -0.6970 hx        1 LP3      0.100367
     54 H121       -0.7110    0.9400   -1.0800 hc        1 LP3      0.075700
     55 H122       -0.8520   -0.2550    0.2790 hc        1 LP3      0.075700
     56 H131        0.6700    1.1300    1.6960 hc        1 LP3      0.058700
     57 H132        0.7400    2.4080    0.4230 hc        1 LP3      0.058700
     58 H141        1.7620    0.7560   -1.1820 hc        1 LP3      0.039700
     59 H142        1.6720   -0.5330    0.0800 hc        1 LP3      0.039700
     60 H151        3.1450    0.8420    1.5900 hc        1 LP3      0.043200
     61 H152        3.2310    2.1340    0.3320 hc        1 LP3      0.043200
     62 H161        4.2420    0.4900   -1.2870 hc        1 LP3      0.038700
     63 H162        4.1560   -0.8020   -0.0300 hc        1 LP3      0.038700
     64 H171        5.6260    0.5720    1.4840 hc        1 LP3      0.040700
     65 H172        5.7130    1.8650    0.2270 hc        1 LP3      0.040700
     66 H181        6.7250    0.2210   -1.3920 hc        1 LP3      0.038700
     67 H182        6.6380   -1.0710   -0.1350 hc        1 LP3      0.038700
     68 H191        8.1090    0.3040    1.3790 hc        1 LP3      0.039700
     69 H192        8.1950    1.5960    0.1220 hc        1 LP3      0.039700
     70 H201        9.2070   -0.0470   -1.4970 hc        1 LP3      0.039200
     71 H202        9.1210   -1.3390   -0.2400 hc        1 LP3      0.039200
     72 H211       10.5910    0.0360    1.2740 hc        1 LP3      0.039700
     73 H212       10.6780    1.3280    0.0170 hc        1 LP3      0.039700
     74 H221       11.6900   -0.3160   -1.6020 hc        1 LP3      0.039700
     75 H222       11.6030   -1.6080   -0.3440 hc        1 LP3      0.039700
     76 H231       13.0740   -0.2330    1.1690 hc        1 LP3      0.039700
     77 H232       13.1600    1.0600   -0.0880 hc        1 LP3      0.039700
     78 H241       14.1730   -0.5840   -1.7070 hc        1 LP3      0.039700
     79 H242       14.0860   -1.8760   -0.4490 hc        1 LP3      0.039700
     80 H251       15.5560   -0.5010    1.0650 hc        1 LP3      0.039700
     81 H252       15.6430    0.7910   -0.1930 hc        1 LP3      0.039700
     82 H261       16.6560   -0.8520   -1.8110 hc        1 LP3      0.039700
     83 H262       16.5690   -2.1440   -0.5540 hc        1 LP3      0.039700
     84 H271       18.0370   -0.7690    0.9600 hc        1 LP3      0.038700
     85 H272       18.1240    0.5230   -0.2980 hc        1 LP3      0.038700
     86 H281       20.1340   -0.9510   -0.3790 hc        1 LP3      0.032700
     87 H282       19.0840   -2.4040   -0.6440 hc        1 LP3      0.032700
     88 H283       19.1710   -1.1090   -1.9050 hc        1 LP3      0.032700
     89 HO2        -5.8690   -0.2080    3.3160 ho        1 LP3      0.427000
@<TRIPOS>BOND
     1    1    2 1   
     2    1   33 1   
     3    1   36 1   
     4    1   37 1   
     5    2    3 1   
     6    2   28 1   
     7    2   38 1   
     8    3   29 1   
     9    3   39 1   
    10    3   40 1   
    11    4    5 1   
    12    4   34 1   
    13    4   41 1   
    14    4   42 1   
    15    5   27 1   
    16    5   43 1   
    17    5   44 1   
    18    6   27 1   
    19    6   45 1   
    20    6   46 1   
    21    6   47 1   
    22    7   27 1   
    23    7   48 1   
    24    7   49 1   
    25    7   50 1   
    26    8   27 1   
    27    8   51 1   
    28    8   52 1   
    29    8   53 1   
    30    9   10 1   
    31    9   29 1   
    32    9   30 2   
    33   10   11 1   
    34   10   54 1   
    35   10   55 1   
    36   11   12 1   
    37   11   56 1   
    38   11   57 1   
    39   12   13 1   
    40   12   58 1   
    41   12   59 1   
    42   13   14 1   
    43   13   60 1   
    44   13   61 1   
    45   14   15 1   
    46   14   62 1   
    47   14   63 1   
    48   15   16 1   
    49   15   64 1   
    50   15   65 1   
    51   16   17 1   
    52   16   66 1   
    53   16   67 1   
    54   17   18 1   
    55   17   68 1   
    56   17   69 1   
    57   18   19 1   
    58   18   70 1   
    59   18   71 1   
    60   19   20 1   
    61   19   72 1   
    62   19   73 1   
    63   20   21 1   
    64   20   74 1   
    65   20   75 1   
    66   21   22 1   
    67   21   76 1   
    68   21   77 1   
    69   22   23 1   
    70   22   78 1   
    71   22   79 1   
    72   23   24 1   
    73   23   80 1   
    74   23   81 1   
    75   24   25 1   
    76   24   82 1   
    77   24   83 1   
    78   25   26 1   
    79   25   84 1   
    80   25   85 1   
    81   26   86 1   
    82   26   87 1   
    83   26   88 1   
    84   28   89 1   
    85   31   35 1   
    86   32   35 1   
    87   33   35 1   
    88   34   35 1   
@<TRIPOS>SUBSTRUCTURE
     1 LP3         1 TEMP              0 ****  ****    0 ROOT
