@<TRIPOS>MOLECULE
LP3
   89    88     1     0     0
SMALL
bcc


@<TRIPOS>ATOM
      1 C1         -0.3580   -1.0890    0.4580 c3        1 LP3      0.131400
      2 C2          1.0100   -1.5530    0.9660 c3        1 LP3      0.141100
      3 C3          1.2480   -1.0370    2.3860 c3        1 LP3      0.136400
      4 C4         -2.4330    1.0840   -2.4310 c3        1 LP3      0.187400
      5 C5         -2.5210    1.4540   -3.9260 c3        1 LP3      0.086800
      6 C6         -4.0930   -0.4030   -4.3450 c3        1 LP3      0.077100
      7 C7         -3.3020    0.9820   -6.1760 c3        1 LP3      0.077100
      8 C8         -1.7820   -0.5790   -5.1070 c3        1 LP3      0.077100
      9 C11         3.0950   -0.1470    3.6120 c         1 LP3      0.632100
     10 C12         4.5100    0.3360    3.5220 c3        1 LP3     -0.127400
     11 C13         5.3030   -0.0810    4.7430 c3        1 LP3     -0.079400
     12 C14         6.6890    0.5250    4.7150 c3        1 LP3     -0.078400
     13 C15         7.4940    0.0970    5.9240 c3        1 LP3     -0.079400
     14 C16         8.8800    0.7050    5.9030 c3        1 LP3     -0.078400
     15 C17         9.6860    0.2760    7.1100 c3        1 LP3     -0.079400
     16 C18        11.0720    0.8840    7.0900 c3        1 LP3     -0.078400
     17 C19        11.8780    0.4550    8.2970 c3        1 LP3     -0.079400
     18 C20        13.2640    1.0620    8.2780 c3        1 LP3     -0.078400
     19 C21        14.0690    0.6330    9.4850 c3        1 LP3     -0.079400
     20 C22        15.4550    1.2410    9.4660 c3        1 LP3     -0.078400
     21 C23        16.2610    0.8120   10.6730 c3        1 LP3     -0.079400
     22 C24        17.6470    1.4200   10.6540 c3        1 LP3     -0.078400
     23 C25        18.4520    0.9910   11.8610 c3        1 LP3     -0.079400
     24 C26        19.8380    1.5980   11.8420 c3        1 LP3     -0.079400
     25 C27        20.6450    1.1700   13.0490 c3        1 LP3     -0.080400
     26 C28        22.0260    1.7730   13.0340 c3        1 LP3     -0.092100
     27 N          -2.9240    0.3570   -4.8750 n4        1 LP3     -0.582800
     28 O2          1.0750   -2.9700    1.0310 oh        1 LP3     -0.607800
     29 O3          2.5980   -0.5390    2.4010 os        1 LP3     -0.442900
     30 O11         2.3590   -0.2080    4.5990 o         1 LP3     -0.545000
     31 O1P        -2.3000   -2.1290   -2.6360 o         1 LP3     -0.818000
     32 O2P        -2.9750   -0.8290   -0.4670 o         1 LP3     -0.818000
     33 O3P        -0.5970   -1.7340   -0.7690 os        1 LP3     -0.563200
     34 O4P        -1.4670    0.1240   -2.2110 os        1 LP3     -0.577200
     35 P          -1.9940   -1.2840   -1.4620 p5        1 LP3      1.428800
     36 H11        -0.3630    0.0220    0.2900 h1        1 LP3      0.050700
     37 H12        -1.1800   -1.3630    1.1730 h1        1 LP3      0.050700
     38 H2          1.8150   -1.1830    0.2710 h1        1 LP3      0.059700
     39 H31         0.5570   -0.1940    2.6440 h1        1 LP3      0.067700
     40 H32         1.1470   -1.8600    3.1410 h1        1 LP3      0.067700
     41 H41        -3.4360    0.7580   -2.0330 h1        1 LP3      0.061700
     42 H42        -2.1310    2.0440   -1.9170 h1        1 LP3      0.061700
     43 H51        -1.5090    1.8190   -4.2600 hx        1 LP3      0.079200
     44 H52        -3.2760    2.2820   -4.0290 hx        1 LP3      0.079200
     45 H61        -4.4930   -1.0720   -5.1500 hx        1 LP3      0.100367
     46 H62        -3.7480   -1.0520   -3.4750 hx        1 LP3      0.100367
     47 H63        -4.8820    0.3170   -4.0110 hx        1 LP3      0.100367
     48 H71        -3.5210    0.1770   -6.9250 hx        1 LP3      0.100367
     49 H72        -2.4540    1.6150   -6.5450 hx        1 LP3      0.100367
     50 H73        -4.2150    1.6190   -6.0370 hx        1 LP3      0.100367
     51 H81        -1.4820   -1.0440   -4.1120 hx        1 LP3      0.100367
     52 H82        -2.1140   -1.3940   -5.8000 hx        1 LP3      0.100367
     53 H83        -0.9250   -0.0110   -5.5470 hx        1 LP3      0.100367
     54 H121        4.4770    1.4560    3.4420 hc        1 LP3      0.075700
     55 H122        4.9860   -0.0620    2.5880 hc        1 LP3      0.075700
     56 H131        5.3780   -1.1990    4.7770 hc        1 LP3      0.058700
     57 H132        4.7590    0.2430    5.6700 hc        1 LP3      0.058700
     58 H141        6.6120    1.6450    4.6930 hc        1 LP3      0.039700
     59 H142        7.2200    0.2110    3.7780 hc        1 LP3      0.039700
     60 H151        6.9610    0.4080    6.8600 hc        1 LP3      0.043200
     61 H152        7.5740   -1.0220    5.9440 hc        1 LP3      0.043200
     62 H161        9.4130    0.3950    4.9650 hc        1 LP3      0.038700
     63 H162        8.8000    1.8240    5.8820 hc        1 LP3      0.038700
     64 H171        9.1530    0.5860    8.0470 hc        1 LP3      0.040700
     65 H172        9.7660   -0.8430    7.1300 hc        1 LP3      0.040700
     66 H181       11.6050    0.5740    6.1530 hc        1 LP3      0.038700
     67 H182       10.9920    2.0030    7.0700 hc        1 LP3      0.038700
     68 H191       11.9580   -0.6640    8.3180 hc        1 LP3      0.039700
     69 H192       11.3450    0.7650    9.2350 hc        1 LP3      0.039700
     70 H201       13.1840    2.1810    8.2570 hc        1 LP3      0.039200
     71 H202       13.7970    0.7520    7.3400 hc        1 LP3      0.039200
     72 H211       13.5360    0.9430   10.4220 hc        1 LP3      0.039700
     73 H212       14.1490   -0.4850    9.5060 hc        1 LP3      0.039700
     74 H221       15.3750    2.3600    9.4450 hc        1 LP3      0.039700
     75 H222       15.9890    0.9310    8.5280 hc        1 LP3      0.039700
     76 H231       16.3410   -0.3070   10.6940 hc        1 LP3      0.039700
     77 H232       15.7270    1.1220   11.6100 hc        1 LP3      0.039700
     78 H241       17.5670    2.5390   10.6330 hc        1 LP3      0.039700
     79 H242       18.1800    1.1100    9.7160 hc        1 LP3      0.039700
     80 H251       17.9190    1.3010   12.7980 hc        1 LP3      0.039700
     81 H252       18.5320   -0.1280   11.8820 hc        1 LP3      0.039700
     82 H261       19.7590    2.7170   11.8210 hc        1 LP3      0.039700
     83 H262       20.3720    1.2880   10.9050 hc        1 LP3      0.039700
     84 H271       20.7220    0.0510   13.0690 hc        1 LP3      0.038700
     85 H272       20.1090    1.4800   13.9850 hc        1 LP3      0.038700
     86 H281       21.9700    2.8880   13.0390 hc        1 LP3      0.032700
     87 H282       22.5850    1.4550   12.1210 hc        1 LP3      0.032700
     88 H283       22.6030    1.4440   13.9320 hc        1 LP3      0.032700
     89 HO2         0.7220   -3.3000    0.1940 ho        1 LP3      0.427000
@<TRIPOS>BOND
     1    1    2 1   
     2    1   33 1   
     3    1   36 1   
     4    1   37 1   
     5    2    3 1   
     6    2   28 1   
     7    2   38 1   
     8    3   29 1   
     9    3   39 1   
    10    3   40 1   
    11    4    5 1   
    12    4   34 1   
    13    4   41 1   
    14    4   42 1   
    15    5   27 1   
    16    5   43 1   
    17    5   44 1   
    18    6   27 1   
    19    6   45 1   
    20    6   46 1   
    21    6   47 1   
    22    7   27 1   
    23    7   48 1   
    24    7   49 1   
    25    7   50 1   
    26    8   27 1   
    27    8   51 1   
    28    8   52 1   
    29    8   53 1   
    30    9   10 1   
    31    9   29 1   
    32    9   30 2   
    33   10   11 1   
    34   10   54 1   
    35   10   55 1   
    36   11   12 1   
    37   11   56 1   
    38   11   57 1   
    39   12   13 1   
    40   12   58 1   
    41   12   59 1   
    42   13   14 1   
    43   13   60 1   
    44   13   61 1   
    45   14   15 1   
    46   14   62 1   
    47   14   63 1   
    48   15   16 1   
    49   15   64 1   
    50   15   65 1   
    51   16   17 1   
    52   16   66 1   
    53   16   67 1   
    54   17   18 1   
    55   17   68 1   
    56   17   69 1   
    57   18   19 1   
    58   18   70 1   
    59   18   71 1   
    60   19   20 1   
    61   19   72 1   
    62   19   73 1   
    63   20   21 1   
    64   20   74 1   
    65   20   75 1   
    66   21   22 1   
    67   21   76 1   
    68   21   77 1   
    69   22   23 1   
    70   22   78 1   
    71   22   79 1   
    72   23   24 1   
    73   23   80 1   
    74   23   81 1   
    75   24   25 1   
    76   24   82 1   
    77   24   83 1   
    78   25   26 1   
    79   25   84 1   
    80   25   85 1   
    81   26   86 1   
    82   26   87 1   
    83   26   88 1   
    84   28   89 1   
    85   31   35 1   
    86   32   35 1   
    87   33   35 1   
    88   34   35 1   
@<TRIPOS>SUBSTRUCTURE
     1 LP3         1 TEMP              0 ****  ****    0 ROOT
