@<TRIPOS>MOLECULE
LP3
   89    88     1     0     0
SMALL
bcc


@<TRIPOS>ATOM
      1 C1         -0.3770   -1.0710    0.4650 c3        1 LP3      0.131400
      2 C2          0.9760   -1.5720    0.9770 c3        1 LP3      0.141100
      3 C3          1.2370   -1.0370    2.3860 c3        1 LP3      0.136400
      4 C4         -2.3920    1.1170   -2.4550 c3        1 LP3      0.187400
      5 C5         -2.4730    1.4630   -3.9550 c3        1 LP3      0.086800
      6 C6         -4.1070   -0.3480   -4.3370 c3        1 LP3      0.077100
      7 C7         -3.2780    0.9790   -6.1940 c3        1 LP3      0.077100
      8 C8         -1.8060   -0.6130   -5.1030 c3        1 LP3      0.077100
      9 C11         3.1130   -0.1740    3.5860 c         1 LP3      0.632100
     10 C12         4.5420    0.2640    3.4810 c3        1 LP3     -0.127400
     11 C13         5.3150   -0.1070    4.7290 c3        1 LP3     -0.079400
     12 C14         6.7190    0.4570    4.6780 c3        1 LP3     -0.078400
     13 C15         7.5030    0.0770    5.9160 c3        1 LP3     -0.079400
     14 C16         8.9060    0.6430    5.8710 c3        1 LP3     -0.078400
     15 C17         9.6890    0.2670    7.1110 c3        1 LP3     -0.079400
     16 C18        11.0920    0.8330    7.0670 c3        1 LP3     -0.078400
     17 C19        11.8740    0.4600    8.3080 c3        1 LP3     -0.079400
     18 C20        13.2770    1.0260    8.2640 c3        1 LP3     -0.078400
     19 C21        14.0590    0.6550    9.5060 c3        1 LP3     -0.079400
     20 C22        15.4620    1.2220    9.4620 c3        1 LP3     -0.078400
     21 C23        16.2440    0.8510   10.7040 c3        1 LP3     -0.079400
     22 C24        17.6470    1.4180   10.6590 c3        1 LP3     -0.078400
     23 C25        18.4280    1.0490   11.9020 c3        1 LP3     -0.079400
     24 C26        19.8310    1.6150   11.8570 c3        1 LP3     -0.079400
     25 C27        20.6140    1.2460   13.0990 c3        1 LP3     -0.080400
     26 C28        22.0120    1.8080   13.0590 c3        1 LP3     -0.092100
     27 N          -2.9160    0.3630   -4.8840 n4        1 LP3     -0.582800
     28 O2          0.9940   -2.9880    1.0690 oh        1 LP3     -0.607800
     29 O3          2.6010   -0.5810    2.3860 os        1 LP3     -0.442900
     30 O11         2.3770   -0.1870    4.5750 o         1 LP3     -0.545000
     31 O1P        -2.3650   -2.1020   -2.6040 o         1 LP3     -0.818000
     32 O2P        -2.9890   -0.7430   -0.4560 o         1 LP3     -0.818000
     33 O3P        -0.6430   -1.7300   -0.7500 os        1 LP3     -0.563200
     34 O4P        -1.4560    0.1300   -2.2210 os        1 LP3     -0.577200
     35 P          -2.0270   -1.2480   -1.4450 p5        1 LP3      1.428800
     36 H11        -1.2060   -1.3040    1.1870 h1        1 LP3      0.050700
     37 H12        -0.3460    0.0350    0.2760 h1        1 LP3      0.050700
     38 H2          1.7910   -1.2420    0.2730 h1        1 LP3      0.059700
     39 H31         0.5740   -0.1690    2.6320 h1        1 LP3      0.067700
     40 H32         1.1140   -1.8420    3.1570 h1        1 LP3      0.067700
     41 H41        -3.4030    0.8310   -2.0480 h1        1 LP3      0.061700
     42 H42        -2.0560    2.0750   -1.9590 h1        1 LP3      0.061700
     43 H51        -1.4510    1.7890   -4.2990 hx        1 LP3      0.079200
     44 H52        -3.2010    2.3140   -4.0710 hx        1 LP3      0.079200
     45 H61        -4.5320   -1.0170   -5.1290 hx        1 LP3      0.100367
     46 H62        -3.7800   -0.9930   -3.4570 hx        1 LP3      0.100367
     47 H63        -4.8710    0.4030   -4.0130 hx        1 LP3      0.100367
     48 H71        -3.5260    0.1680   -6.9280 hx        1 LP3      0.100367
     49 H72        -4.1690    1.6470   -6.0630 hx        1 LP3      0.100367
     50 H73        -2.4110    1.5770   -6.5770 hx        1 LP3      0.100367
     51 H81        -2.1670   -1.4290   -5.7810 hx        1 LP3      0.100367
     52 H82        -0.9320   -0.0810   -5.5560 hx        1 LP3      0.100367
     53 H83        -1.5170   -1.0700   -4.1010 hx        1 LP3      0.100367
     54 H121        5.0110   -0.1990    2.5740 hc        1 LP3      0.075700
     55 H122        4.5420    1.3780    3.3380 hc        1 LP3      0.075700
     56 H131        4.7760    0.2830    5.6330 hc        1 LP3      0.058700
     57 H132        5.3580   -1.2240    4.8260 hc        1 LP3      0.058700
     58 H141        6.6740    1.5740    4.5890 hc        1 LP3      0.039700
     59 H142        7.2470    0.0730    3.7650 hc        1 LP3      0.039700
     60 H151        6.9720    0.4580    6.8280 hc        1 LP3      0.043200
     61 H152        7.5500   -1.0400    6.0040 hc        1 LP3      0.043200
     62 H161        8.8590    1.7600    5.7810 hc        1 LP3      0.038700
     63 H162        9.4370    0.2600    4.9600 hc        1 LP3      0.038700
     64 H171        9.1570    0.6490    8.0220 hc        1 LP3      0.040700
     65 H172        9.7370   -0.8500    7.2010 hc        1 LP3      0.040700
     66 H181       11.0440    1.9500    6.9750 hc        1 LP3      0.038700
     67 H182       11.6240    0.4490    6.1570 hc        1 LP3      0.038700
     68 H191       11.3420    0.8440    9.2180 hc        1 LP3      0.039700
     69 H192       11.9230   -0.6570    8.4000 hc        1 LP3      0.039700
     70 H201       13.8100    0.6410    7.3550 hc        1 LP3      0.039200
     71 H202       13.2290    2.1430    8.1700 hc        1 LP3      0.039200
     72 H211       14.1070   -0.4620    9.6000 hc        1 LP3      0.039700
     73 H212       13.5260    1.0400   10.4150 hc        1 LP3      0.039700
     74 H221       15.9950    0.8360    8.5530 hc        1 LP3      0.039700
     75 H222       15.4140    2.3380    9.3670 hc        1 LP3      0.039700
     76 H231       16.2920   -0.2660   10.7990 hc        1 LP3      0.039700
     77 H232       15.7110    1.2380   11.6130 hc        1 LP3      0.039700
     78 H241       17.5990    2.5350   10.5630 hc        1 LP3      0.039700
     79 H242       18.1800    1.0310    9.7510 hc        1 LP3      0.039700
     80 H251       17.8960    1.4360   12.8100 hc        1 LP3      0.039700
     81 H252       18.4760   -0.0680   11.9980 hc        1 LP3      0.039700
     82 H261       19.7840    2.7310   11.7610 hc        1 LP3      0.039700
     83 H262       20.3640    1.2280   10.9490 hc        1 LP3      0.039700
     84 H271       20.0790    1.6330   14.0070 hc        1 LP3      0.038700
     85 H272       20.6600    0.1290   13.1940 hc        1 LP3      0.038700
     86 H281       22.5720    1.5240   13.9830 hc        1 LP3      0.032700
     87 H282       21.9880    2.9220   12.9890 hc        1 LP3      0.032700
     88 H283       22.5700    1.4150   12.1750 hc        1 LP3      0.032700
     89 HO2         0.6260   -3.3230    0.2390 ho        1 LP3      0.427000
@<TRIPOS>BOND
     1    1    2 1   
     2    1   33 1   
     3    1   36 1   
     4    1   37 1   
     5    2    3 1   
     6    2   28 1   
     7    2   38 1   
     8    3   29 1   
     9    3   39 1   
    10    3   40 1   
    11    4    5 1   
    12    4   34 1   
    13    4   41 1   
    14    4   42 1   
    15    5   27 1   
    16    5   43 1   
    17    5   44 1   
    18    6   27 1   
    19    6   45 1   
    20    6   46 1   
    21    6   47 1   
    22    7   27 1   
    23    7   48 1   
    24    7   49 1   
    25    7   50 1   
    26    8   27 1   
    27    8   51 1   
    28    8   52 1   
    29    8   53 1   
    30    9   10 1   
    31    9   29 1   
    32    9   30 2   
    33   10   11 1   
    34   10   54 1   
    35   10   55 1   
    36   11   12 1   
    37   11   56 1   
    38   11   57 1   
    39   12   13 1   
    40   12   58 1   
    41   12   59 1   
    42   13   14 1   
    43   13   60 1   
    44   13   61 1   
    45   14   15 1   
    46   14   62 1   
    47   14   63 1   
    48   15   16 1   
    49   15   64 1   
    50   15   65 1   
    51   16   17 1   
    52   16   66 1   
    53   16   67 1   
    54   17   18 1   
    55   17   68 1   
    56   17   69 1   
    57   18   19 1   
    58   18   70 1   
    59   18   71 1   
    60   19   20 1   
    61   19   72 1   
    62   19   73 1   
    63   20   21 1   
    64   20   74 1   
    65   20   75 1   
    66   21   22 1   
    67   21   76 1   
    68   21   77 1   
    69   22   23 1   
    70   22   78 1   
    71   22   79 1   
    72   23   24 1   
    73   23   80 1   
    74   23   81 1   
    75   24   25 1   
    76   24   82 1   
    77   24   83 1   
    78   25   26 1   
    79   25   84 1   
    80   25   85 1   
    81   26   86 1   
    82   26   87 1   
    83   26   88 1   
    84   28   89 1   
    85   31   35 1   
    86   32   35 1   
    87   33   35 1   
    88   34   35 1   
@<TRIPOS>SUBSTRUCTURE
     1 LP3         1 TEMP              0 ****  ****    0 ROOT
