@<TRIPOS>MOLECULE
LP3
   89    87     1     0     0
SMALL
bcc


@<TRIPOS>ATOM
      1 C1         -6.9630   -0.6520   -4.5350 c3        1 LP3     -0.017000
      2 C2         -5.5270   -1.1350   -4.6030 c3        1 LP3      0.029000
      3 C3         -4.9780   -1.2840   -3.2030 c3        1 LP3     -0.016000
      4 C4        -10.3760    1.3780   -7.8890 c3        1 LP3      0.068000
      5 C5        -10.2970    2.4920   -8.9520 c3        1 LP3     -0.154000
      6 C6        -12.5610    2.8780   -8.4520 c3        1 LP3     -0.185333
      7 C7        -11.5710    3.9000  -10.3400 c3        1 LP3     -0.185333
      8 C8        -11.9670    1.5680  -10.3280 c3        1 LP3     -0.185333
      9 C11        -2.9250   -1.4250   -1.9660 c1        1 LP3      0.303000
     10 C12        -1.3970   -1.4480   -1.8570 c2        1 LP3     -0.156000
     11 C13        -0.9720   -1.2530   -0.3590 c3        1 LP3     -0.158000
     12 C14         0.5670   -1.2920   -0.2500 c3        1 LP3     -0.157000
     13 C15         0.9850   -1.0720    1.2240 c3        1 LP3     -0.158000
     14 C16         2.5240   -1.0100    1.3160 c3        1 LP3     -0.157000
     15 C17         2.9540   -0.9350    2.8070 c3        1 LP3     -0.158000
     16 C18         4.4870   -0.8600    2.8950 c3        1 LP3     -0.157000
     17 C19         4.9160   -0.6840    4.3840 c3        1 LP3     -0.158000
     18 C20         6.4530   -0.6310    4.4720 c3        1 LP3     -0.157000
     19 C21         6.8880   -0.5340    5.9780 c3        1 LP3     -0.158000
     20 C22         8.4150   -0.4720    6.0640 c3        1 LP3     -0.157000
     21 C23         8.8500   -0.2660    7.5520 c3        1 LP3     -0.158000
     22 C24        10.3910   -0.2140    7.6330 c3        1 LP3     -0.157000
     23 C25        10.8290   -0.1250    9.1140 c3        1 LP3     -0.158000
     24 C26        12.3700   -0.1220    9.1970 c3        1 LP3     -0.158000
     25 C27        12.8080    0.0110   10.6740 c3        1 LP3     -0.159000
     26 C28        14.3200    0.0560   10.7510 c3        1 LP3     -0.210000
     27 N         -11.5950    2.7090   -9.5160 n4        1 LP3      0.040000
     28 O2         -5.4820   -2.3830   -5.2620 oh        1 LP3     -0.339000
     29 O3         -3.5500   -1.3230   -3.2530 os        1 LP3     -0.281000
     30 O11        -3.6050   -1.5230   -0.9660 o         1 LP3     -0.356000
     31 O1P        -9.7070   -1.0340   -6.1460 o         1 LP3     -0.825500
     32 O2P        -9.3990    1.0540   -4.8840 o         1 LP3     -0.825500
     33 O3P        -7.3520   -0.1350   -5.8050 os        1 LP3     -0.737000
     34 O4P        -9.0470    1.0800   -7.4020 os        1 LP3     -0.718000
     35 P          -8.8980    0.2340   -6.0410 p5        1 LP3      1.907000
     36 H11        -7.5510   -1.4030   -4.2920 h1        1 LP3      0.092000
     37 H12        -7.0380    0.0530   -3.8580 h1        1 LP3      0.092000
     38 H2         -4.9930   -0.4910   -5.0930 h1        1 LP3      0.093000
     39 H31        -5.2650   -0.5210   -2.6560 h1        1 LP3      0.107500
     40 H32        -5.3150   -2.1160   -2.8070 h1        1 LP3      0.107500
     41 H41       -10.9390    1.6790   -7.1410 h1        1 LP3      0.079000
     42 H42       -10.7670    0.5730   -8.2880 h1        1 LP3      0.079000
     43 H51        -9.9770    3.3260   -8.5310 hx        1 LP3      0.129500
     44 H52        -9.6750    2.2240   -9.6580 hx        1 LP3      0.129500
     45 H61       -12.7630    2.0080   -8.0530 hx        1 LP3      0.136333
     46 H62       -12.1870    3.4800   -7.7600 hx        1 LP3      0.136333
     47 H63       -13.3850    3.2710   -8.8170 hx        1 LP3      0.136333
     48 H71       -11.2940    4.6730   -9.7930 hx        1 LP3      0.136333
     49 H72       -10.9310    3.7750  -11.0800 hx        1 LP3      0.136333
     50 H73       -12.4630    4.0630  -10.7050 hx        1 LP3      0.136333
     51 H81       -12.3130    0.8550   -9.7510 hx        1 LP3      0.136333
     52 H82       -12.6650    1.8370  -10.9750 hx        1 LP3      0.136333
     53 H83       -11.1770    1.2410  -10.8150 hx        1 LP3      0.136333
     54 H121       -1.0190   -0.7190   -2.4030 ha        1 LP3      0.115500
     55 H122       -1.0600   -2.3060   -2.1840 ha        1 LP3      0.115500
     56 H131       -1.3000   -0.3890   -0.0370 hc        1 LP3      0.097000
     57 H132       -1.3570   -1.9740    0.1870 hc        1 LP3      0.097000
     58 H141        0.9500   -0.5880   -0.8050 hc        1 LP3      0.079000
     59 H142        0.8950   -2.1630   -0.5550 hc        1 LP3      0.079000
     60 H151        0.6530   -1.8160    1.7740 hc        1 LP3      0.082000
     61 H152        0.6060   -0.2340    1.5470 hc        1 LP3      0.082000
     62 H161        2.8460   -0.2190    0.8460 hc        1 LP3      0.078500
     63 H162        2.9100   -1.8170    0.9040 hc        1 LP3      0.078500
     64 H171        2.5670   -0.1430    3.2160 hc        1 LP3      0.079500
     65 H172        2.6380   -1.7360    3.2800 hc        1 LP3      0.079500
     66 H181        4.8040   -0.1040    2.3760 hc        1 LP3      0.078500
     67 H182        4.8770   -1.6900    2.5370 hc        1 LP3      0.078500
     68 H191        4.5410    0.1460    4.7350 hc        1 LP3      0.079500
     69 H192        4.5830   -1.4440    4.9130 hc        1 LP3      0.079500
     70 H201        6.7800    0.1520    3.9880 hc        1 LP3      0.078500
     71 H202        6.8320   -1.4440    4.0730 hc        1 LP3      0.078500
     72 H211        6.5650   -1.3250    6.4640 hc        1 LP3      0.079000
     73 H212        6.5060    0.2740    6.3770 hc        1 LP3      0.079000
     74 H221        8.7400    0.2720    5.5250 hc        1 LP3      0.078500
     75 H222        8.7940   -1.3090    5.7260 hc        1 LP3      0.078500
     76 H231        8.4760    0.5760    7.8880 hc        1 LP3      0.079000
     77 H232        8.5150   -1.0200    8.1020 hc        1 LP3      0.079000
     78 H241       10.7680   -1.0260    7.2290 hc        1 LP3      0.078500
     79 H242       10.7140    0.5650    7.1530 hc        1 LP3      0.078500
     80 H251       10.4750   -0.9010    9.6090 hc        1 LP3      0.079000
     81 H252       10.4810    0.6990    9.5080 hc        1 LP3      0.079000
     82 H261       12.7210   -0.9670    8.8250 hc        1 LP3      0.078500
     83 H262       12.7230    0.6310    8.6830 hc        1 LP3      0.078500
     84 H271       12.4780   -0.7570   11.1820 hc        1 LP3      0.078000
     85 H272       12.4400    0.8280   11.0480 hc        1 LP3      0.078000
     86 H281       14.5970    0.1140   11.6860 hc        1 LP3      0.072000
     87 H282       14.6930   -0.7610   10.3490 hc        1 LP3      0.072000
     88 H283       14.6470    0.8360   10.2650 hc        1 LP3      0.072000
     89 HO2        -4.9690   -2.3180   -5.9870 ho        1 LP3      0.225000
@<TRIPOS>BOND
     1    1    2 1   
     2    1   33 1   
     3    1   36 1   
     4    1   37 1   
     5    2    3 1   
     6    2   28 1   
     7    2   38 1   
     8    3   29 1   
     9    3   39 1   
    10    3   40 1   
    11    4    5 1   
    12    4   34 1   
    13    4   41 1   
    14    4   42 1   
    15    5   27 1   
    16    5   43 1   
    17    5   44 1   
    18    6   27 1   
    19    6   45 1   
    20    6   46 1   
    21    6   47 1   
    22    7   27 1   
    23    7   48 1   
    24    7   49 1   
    25    7   50 1   
    26    8   27 1   
    27    8   51 1   
    28    8   52 1   
    29    8   53 1   
    30    9   29 1   
    31    9   30 1   
    32   10   11 1   
    33   10   54 1   
    34   10   55 1   
    35   11   12 1   
    36   11   56 1   
    37   11   57 1   
    38   12   13 1   
    39   12   58 1   
    40   12   59 1   
    41   13   14 1   
    42   13   60 1   
    43   13   61 1   
    44   14   15 1   
    45   14   62 1   
    46   14   63 1   
    47   15   16 1   
    48   15   64 1   
    49   15   65 1   
    50   16   17 1   
    51   16   66 1   
    52   16   67 1   
    53   17   18 1   
    54   17   68 1   
    55   17   69 1   
    56   18   19 1   
    57   18   70 1   
    58   18   71 1   
    59   19   20 1   
    60   19   72 1   
    61   19   73 1   
    62   20   21 1   
    63   20   74 1   
    64   20   75 1   
    65   21   22 1   
    66   21   76 1   
    67   21   77 1   
    68   22   23 1   
    69   22   78 1   
    70   22   79 1   
    71   23   24 1   
    72   23   80 1   
    73   23   81 1   
    74   24   25 1   
    75   24   82 1   
    76   24   83 1   
    77   25   26 1   
    78   25   84 1   
    79   25   85 1   
    80   26   86 1   
    81   26   87 1   
    82   26   88 1   
    83   28   89 1   
    84   31   35 1   
    85   32   35 1   
    86   33   35 1   
    87   34   35 1   
@<TRIPOS>SUBSTRUCTURE
     1 LP3         1 TEMP              0 ****  ****    0 ROOT
