@<TRIPOS>MOLECULE
LP3
   89    88     1     0     0
SMALL
bcc


@<TRIPOS>ATOM
      1 C1         -0.3860   -1.0510    0.4780 c3        1 LP3      0.131400
      2 C2          0.9650   -1.5530    0.9940 c3        1 LP3      0.141100
      3 C3          1.2300   -1.0070    2.3980 c3        1 LP3      0.136400
      4 C4         -2.3950    1.1210   -2.4570 c3        1 LP3      0.187400
      5 C5         -2.4770    1.4550   -3.9600 c3        1 LP3      0.086800
      6 C6         -4.1190   -0.3530   -4.3240 c3        1 LP3      0.077100
      7 C7         -3.2870    0.9560   -6.1940 c3        1 LP3      0.077100
      8 C8         -1.8200   -0.6330   -5.0920 c3        1 LP3      0.077100
      9 C11         3.1110   -0.1450    3.5900 c         1 LP3      0.632100
     10 C12         4.5420    0.2840    3.4820 c3        1 LP3     -0.127400
     11 C13         5.3140   -0.0840    4.7300 c3        1 LP3     -0.079400
     12 C14         6.7210    0.4720    4.6760 c3        1 LP3     -0.078400
     13 C15         7.5040    0.0940    5.9150 c3        1 LP3     -0.079400
     14 C16         8.9100    0.6530    5.8670 c3        1 LP3     -0.078400
     15 C17         9.6920    0.2770    7.1070 c3        1 LP3     -0.079400
     16 C18        11.0980    0.8370    7.0600 c3        1 LP3     -0.078400
     17 C19        11.8790    0.4630    8.3020 c3        1 LP3     -0.079400
     18 C20        13.2850    1.0230    8.2550 c3        1 LP3     -0.078400
     19 C21        14.0660    0.6510    9.4980 c3        1 LP3     -0.079400
     20 C22        15.4710    1.2110    9.4510 c3        1 LP3     -0.078400
     21 C23        16.2510    0.8410   10.6940 c3        1 LP3     -0.079400
     22 C24        17.6570    1.4010   10.6490 c3        1 LP3     -0.078400
     23 C25        18.4370    1.0310   11.8920 c3        1 LP3     -0.079400
     24 C26        19.8420    1.5910   11.8460 c3        1 LP3     -0.079400
     25 C27        20.6230    1.2230   13.0900 c3        1 LP3     -0.080400
     26 C28        22.0230    1.7780   13.0490 c3        1 LP3     -0.092100
     27 N          -2.9250    0.3490   -4.8790 n4        1 LP3     -0.582800
     28 O2          0.9780   -2.9680    1.0970 oh        1 LP3     -0.607800
     29 O3          2.5960   -0.5590    2.3940 os        1 LP3     -0.442900
     30 O11         2.3750   -0.1450    4.5790 o         1 LP3     -0.545000
     31 O1P        -2.3810   -2.1000   -2.5800 o         1 LP3     -0.818000
     32 O2P        -2.9980   -0.7210   -0.4430 o         1 LP3     -0.818000
     33 O3P        -0.6560   -1.7190   -0.7300 os        1 LP3     -0.563200
     34 O4P        -1.4640    0.1320   -2.2160 os        1 LP3     -0.577200
     35 P          -2.0390   -1.2370   -1.4290 p5        1 LP3      1.428800
     36 H11        -1.2150   -1.2760    1.2030 h1        1 LP3      0.050700
     37 H12        -0.3510    0.0540    0.2810 h1        1 LP3      0.050700
     38 H2          1.7810   -1.2320    0.2860 h1        1 LP3      0.059700
     39 H31         0.5710   -0.1330    2.6360 h1        1 LP3      0.067700
     40 H32         1.1030   -1.8050    3.1750 h1        1 LP3      0.067700
     41 H41        -3.4070    0.8420   -2.0460 h1        1 LP3      0.061700
     42 H42        -2.0550    2.0820   -1.9690 h1        1 LP3      0.061700
     43 H51        -1.4550    1.7740   -4.3080 hx        1 LP3      0.079200
     44 H52        -3.2020    2.3080   -4.0810 hx        1 LP3      0.079200
     45 H61        -4.5470   -1.0270   -5.1110 hx        1 LP3      0.100367
     46 H62        -4.8790    0.4040   -4.0050 hx        1 LP3      0.100367
     47 H63        -3.7930   -0.9920   -3.4400 hx        1 LP3      0.100367
     48 H71        -3.5390    0.1400   -6.9210 hx        1 LP3      0.100367
     49 H72        -2.4180    1.5470   -6.5830 hx        1 LP3      0.100367
     50 H73        -4.1750    1.6280   -6.0670 hx        1 LP3      0.100367
     51 H81        -1.5310   -1.0830   -4.0870 hx        1 LP3      0.100367
     52 H82        -2.1850   -1.4530   -5.7620 hx        1 LP3      0.100367
     53 H83        -0.9440   -0.1090   -5.5500 hx        1 LP3      0.100367
     54 H121        4.5480    1.3970    3.3320 hc        1 LP3      0.075700
     55 H122        5.0080   -0.1870    2.5760 hc        1 LP3      0.075700
     56 H131        5.3510   -1.2010    4.8340 hc        1 LP3      0.058700
     57 H132        4.7770    0.3130    5.6330 hc        1 LP3      0.058700
     58 H141        7.2460    0.0810    3.7650 hc        1 LP3      0.039700
     59 H142        6.6820    1.5890    4.5820 hc        1 LP3      0.039700
     60 H151        7.5460   -1.0240    6.0070 hc        1 LP3      0.043200
     61 H152        6.9750    0.4810    6.8260 hc        1 LP3      0.043200
     62 H161        8.8670    1.7700    5.7740 hc        1 LP3      0.038700
     63 H162        9.4380    0.2650    4.9570 hc        1 LP3      0.038700
     64 H171        9.1630    0.6640    8.0170 hc        1 LP3      0.040700
     65 H172        9.7350   -0.8400    7.2000 hc        1 LP3      0.040700
     66 H181       11.6270    0.4480    6.1510 hc        1 LP3      0.038700
     67 H182       11.0550    1.9540    6.9650 hc        1 LP3      0.038700
     68 H191       11.3490    0.8520    9.2110 hc        1 LP3      0.039700
     69 H192       11.9220   -0.6540    8.3970 hc        1 LP3      0.039700
     70 H201       13.2420    2.1400    8.1580 hc        1 LP3      0.039200
     71 H202       13.8150    0.6330    7.3470 hc        1 LP3      0.039200
     72 H211       14.1090   -0.4660    9.5940 hc        1 LP3      0.039700
     73 H212       13.5350    1.0410   10.4060 hc        1 LP3      0.039700
     74 H221       15.4280    2.3280    9.3530 hc        1 LP3      0.039700
     75 H222       16.0020    0.8200    8.5440 hc        1 LP3      0.039700
     76 H231       15.7200    1.2310   11.6020 hc        1 LP3      0.039700
     77 H232       16.2950   -0.2760   10.7920 hc        1 LP3      0.039700
     78 H241       18.1880    1.0090    9.7410 hc        1 LP3      0.039700
     79 H242       17.6140    2.5180   10.5500 hc        1 LP3      0.039700
     80 H251       17.9050    1.4220   12.7990 hc        1 LP3      0.039700
     81 H252       18.4800   -0.0860   11.9910 hc        1 LP3      0.039700
     82 H261       20.3740    1.2000   10.9390 hc        1 LP3      0.039700
     83 H262       19.7990    2.7080   11.7470 hc        1 LP3      0.039700
     84 H271       20.0890    1.6140   13.9960 hc        1 LP3      0.038700
     85 H272       20.6640    0.1060   13.1880 hc        1 LP3      0.038700
     86 H281       22.5800    1.3800   12.1660 hc        1 LP3      0.032700
     87 H282       22.0030    2.8930   12.9760 hc        1 LP3      0.032700
     88 H283       22.5810    1.4950   13.9740 hc        1 LP3      0.032700
     89 HO2         0.6090   -3.3080    0.2700 ho        1 LP3      0.427000
@<TRIPOS>BOND
     1    1    2 1   
     2    1   33 1   
     3    1   36 1   
     4    1   37 1   
     5    2    3 1   
     6    2   28 1   
     7    2   38 1   
     8    3   29 1   
     9    3   39 1   
    10    3   40 1   
    11    4    5 1   
    12    4   34 1   
    13    4   41 1   
    14    4   42 1   
    15    5   27 1   
    16    5   43 1   
    17    5   44 1   
    18    6   27 1   
    19    6   45 1   
    20    6   46 1   
    21    6   47 1   
    22    7   27 1   
    23    7   48 1   
    24    7   49 1   
    25    7   50 1   
    26    8   27 1   
    27    8   51 1   
    28    8   52 1   
    29    8   53 1   
    30    9   10 1   
    31    9   29 1   
    32    9   30 2   
    33   10   11 1   
    34   10   54 1   
    35   10   55 1   
    36   11   12 1   
    37   11   56 1   
    38   11   57 1   
    39   12   13 1   
    40   12   58 1   
    41   12   59 1   
    42   13   14 1   
    43   13   60 1   
    44   13   61 1   
    45   14   15 1   
    46   14   62 1   
    47   14   63 1   
    48   15   16 1   
    49   15   64 1   
    50   15   65 1   
    51   16   17 1   
    52   16   66 1   
    53   16   67 1   
    54   17   18 1   
    55   17   68 1   
    56   17   69 1   
    57   18   19 1   
    58   18   70 1   
    59   18   71 1   
    60   19   20 1   
    61   19   72 1   
    62   19   73 1   
    63   20   21 1   
    64   20   74 1   
    65   20   75 1   
    66   21   22 1   
    67   21   76 1   
    68   21   77 1   
    69   22   23 1   
    70   22   78 1   
    71   22   79 1   
    72   23   24 1   
    73   23   80 1   
    74   23   81 1   
    75   24   25 1   
    76   24   82 1   
    77   24   83 1   
    78   25   26 1   
    79   25   84 1   
    80   25   85 1   
    81   26   86 1   
    82   26   87 1   
    83   26   88 1   
    84   28   89 1   
    85   31   35 1   
    86   32   35 1   
    87   33   35 1   
    88   34   35 1   
@<TRIPOS>SUBSTRUCTURE
     1 LP3         1 TEMP              0 ****  ****    0 ROOT
