@<TRIPOS>MOLECULE
LP6
   36    36     1     0     0
SMALL
bcc


@<TRIPOS>ATOM
      1 N           3.7850    1.8350   -0.1890 n3        1 LP6     -0.892800
      2 CA          3.4910    0.5410    0.4170 c3        1 LP6      0.018500
      3 CB          2.1990   -0.0910   -0.0990 c3        1 LP6     -0.063400
      4 CG          0.9720    0.7050    0.2860 c3        1 LP6     -0.076400
      5 CD         -0.2970   -0.0020   -0.1480 c3        1 LP6     -0.082400
      6 CE         -1.5180    0.7760    0.3370 c3        1 LP6      0.167800
      7 NZ         -2.7960    0.3140   -0.1960 n3        1 LP6     -0.728600
      8 CM         -3.8900    1.1470    0.2880 c3        1 LP6      0.168800
      9 C           4.6400   -0.5130    0.2780 c         1 LP6      0.887600
     10 C13        -5.2610    0.7130   -0.2280 c3        1 LP6     -0.077400
     11 O           5.7030   -0.1620   -0.3110 o         1 LP6     -0.844800
     12 CCA        -5.5120   -0.7500    0.0650 c3        1 LP6     -0.076400
     13 CCC        -4.3820   -1.5940   -0.4830 c3        1 LP6     -0.077400
     14 CCD        -3.0270   -1.1060    0.0270 c3        1 LP6      0.168800
     15 OXT         4.4490   -1.6540    0.7830 o         1 LP6     -0.844800
     16 HN1         4.7500    2.0430    0.0100 hn        1 LP6      0.329800
     17 HN2         3.7210    1.7400   -1.1880 hn        1 LP6      0.329800
     18 HA          3.3720    0.7310    1.5240 h1        1 LP6      0.039700
     19 HB1C        2.2410   -0.2030   -1.2140 hc        1 LP6      0.046700
     20 HB2C        2.1410   -1.1240    0.3390 hc        1 LP6      0.046700
     21 HG1C        0.9570    0.8540    1.3980 hc        1 LP6      0.036700
     22 HG2C        1.0150    1.7230   -0.1820 hc        1 LP6      0.036700
     23 HD1C       -0.3130   -0.0970   -1.2640 hc        1 LP6      0.042700
     24 HD2C       -0.3070   -1.0390    0.2800 hc        1 LP6      0.042700
     25 HE1C       -1.5180    0.7630    1.4680 h1        1 LP6      0.027700
     26 HE2C       -1.4040    1.8510    0.0130 h1        1 LP6      0.027700
     27 HM1C       -3.9290    1.1660    1.4190 h1        1 LP6      0.029700
     28 HM2C       -3.6900    2.1990   -0.0590 h1        1 LP6      0.029700
     29 HCD1       -2.2190   -1.6660   -0.5240 h1        1 LP6      0.029700
     30 HCD2       -2.9420   -1.3720    1.1230 h1        1 LP6      0.029700
     31 H131       -6.0420    1.3470    0.2650 hc        1 LP6      0.040700
     32 H132       -5.3220    0.8910   -1.3330 hc        1 LP6      0.040700
     33 HCA1       -5.5940   -0.9030    1.1730 hc        1 LP6      0.032700
     34 HCA2       -6.4840   -1.0690   -0.3910 hc        1 LP6      0.032700
     35 HCC1       -4.5130   -2.6620   -0.1720 hc        1 LP6      0.040700
     36 HCC2       -4.3970   -1.5590   -1.6030 hc        1 LP6      0.040700
@<TRIPOS>BOND
     1    1    2 1   
     2    1   16 1   
     3    1   17 1   
     4    2    3 1   
     5    2    9 1   
     6    2   18 1   
     7    3    4 1   
     8    3   19 1   
     9    3   20 1   
    10    4    5 1   
    11    4   21 1   
    12    4   22 1   
    13    5    6 1   
    14    5   23 1   
    15    5   24 1   
    16    6    7 1   
    17    6   25 1   
    18    6   26 1   
    19    7    8 1   
    20    7   14 1   
    21    8   10 1   
    22    8   27 1   
    23    8   28 1   
    24    9   11 1   
    25    9   15 1   
    26   10   12 1   
    27   10   31 1   
    28   10   32 1   
    29   12   13 1   
    30   12   33 1   
    31   12   34 1   
    32   13   14 1   
    33   13   35 1   
    34   13   36 1   
    35   14   29 1   
    36   14   30 1   
@<TRIPOS>SUBSTRUCTURE
     1 LP6         1 TEMP              0 ****  ****    0 ROOT
