@<TRIPOS>MOLECULE
LP7
   30    31     1     0     0
SMALL
bcc


@<TRIPOS>ATOM
      1 C          -0.0220   -0.3480    0.0190 ca        1 LP7     -0.264300
      2 N           2.1500   -0.2340    1.1010 nb        1 LP7     -0.675000
      3 O          -0.7530    1.6350    3.8370 oh        1 LP7     -0.588800
      4 C1          1.3840   -0.3710    0.0090 ca        1 LP7      0.431200
      5 C2         -0.6640   -0.1600    1.2400 ca        1 LP7     -0.048000
      6 C3          0.0980   -0.0120    2.4030 ca        1 LP7     -0.228600
      7 C4          1.5180   -0.0590    2.3030 ca        1 LP7      0.511200
      8 N5          2.3390   -0.0240    3.4930 n         1 LP7     -0.281800
      9 C6          1.6880    0.1990    4.7540 c         1 LP7      0.709500
     10 C7          0.2770   -0.3580    4.8430 c3        1 LP7     -0.231700
     11 C8         -0.5850    0.2340    3.7140 c3        1 LP7      0.220400
     12 O9          3.4660    0.6800    3.3740 oh        1 LP7     -0.389100
     13 O10         2.2930    0.6900    5.7080 o         1 LP7     -0.536500
     14 C11        -0.3340   -0.1050    6.1940 c         1 LP7      0.655100
     15 O12        -1.1730    0.7480    6.4950 o         1 LP7     -0.546000
     16 O13         0.0860   -0.9880    7.1380 os        1 LP7     -0.422900
     17 C14        -0.4050   -0.7780    8.4800 c3        1 LP7      0.140400
     18 C15         0.2660   -1.8230    9.3360 c3        1 LP7     -0.102100
     19 H          -0.5900   -0.4650   -0.9130 ha        1 LP7      0.152000
     20 H1          1.9430   -0.5060   -0.9360 h4        1 LP7      0.031100
     21 H2         -1.7620   -0.1130    1.2980 ha        1 LP7      0.148000
     22 H7          0.3380   -1.4780    4.7000 hc        1 LP7      0.123700
     23 HO9         4.1560    0.0240    3.1410 ho        1 LP7      0.431000
     24 H14        -1.5200   -0.8900    8.4690 h1        1 LP7      0.056700
     25 H14A       -0.1390    0.2640    8.7990 h1        1 LP7      0.056700
     26 H15         1.3760   -1.7100    9.2950 hc        1 LP7      0.051700
     27 H15A        0.0040   -2.8490    8.9840 hc        1 LP7      0.051700
     28 H15B       -0.0760   -1.6990   10.3910 hc        1 LP7      0.051700
     29 H11        -1.2540    1.7990    4.6520 ho        1 LP7      0.436000
     30 H12        -1.5940   -0.2720    3.7370 h1        1 LP7      0.056700
@<TRIPOS>BOND
     1    1    4 ar  
     2    1    5 ar  
     3    1   19 1   
     4    2    4 ar  
     5    2    7 ar  
     6    3   11 1   
     7    3   29 1   
     8    4   20 1   
     9    5    6 ar  
    10    5   21 1   
    11    6    7 ar  
    12    6   11 1   
    13    7    8 1   
    14    8    9 1   
    15    8   12 1   
    16    9   10 1   
    17    9   13 2   
    18   10   11 1   
    19   10   14 1   
    20   10   22 1   
    21   11   30 1   
    22   12   23 1   
    23   14   15 2   
    24   14   16 1   
    25   16   17 1   
    26   17   18 1   
    27   17   24 1   
    28   17   25 1   
    29   18   26 1   
    30   18   27 1   
    31   18   28 1   
@<TRIPOS>SUBSTRUCTURE
     1 LP7         1 TEMP              0 ****  ****    0 ROOT
