@<TRIPOS>MOLECULE
LP7
   30    31     1     0     0
SMALL
bcc


@<TRIPOS>ATOM
      1 C          -4.0680    1.1270    0.6050 ca        1 LP7     -0.265300
      2 N          -3.2080   -1.1280    0.3270 nb        1 LP7     -0.675000
      3 O          -0.1880    1.4600   -1.6180 oh        1 LP7     -0.576800
      4 C1         -4.2110   -0.2720    0.5650 ca        1 LP7      0.433200
      5 C2         -2.8060    1.6610    0.3660 ca        1 LP7     -0.060000
      6 C3         -1.7340    0.8050    0.1020 ca        1 LP7     -0.280600
      7 C4         -1.9620   -0.6030    0.1050 ca        1 LP7      0.519200
      8 N5         -0.8560   -1.5220   -0.0240 n         1 LP7     -0.288800
      9 C6          0.4520   -0.9760   -0.2940 c         1 LP7      0.709500
     10 C7          0.6900    0.3940    0.3180 c3        1 LP7     -0.180700
     11 C8         -0.3790    1.3600   -0.2140 c3        1 LP7      0.209400
     12 O9         -1.1140   -2.6050   -0.7570 oh        1 LP7     -0.390100
     13 O10         1.3050   -1.6440   -0.8760 o         1 LP7     -0.518500
     14 C11         2.0770    0.9250    0.0820 c         1 LP7      0.654100
     15 O12         2.3950    2.0480   -0.3110 o         1 LP7     -0.526000
     16 O13         3.0510    0.0480    0.4510 os        1 LP7     -0.422900
     17 C14         4.4110    0.4680    0.2190 c3        1 LP7      0.142400
     18 C15         5.2800   -0.7010    0.6140 c3        1 LP7     -0.102100
     19 H          -4.9320    1.7710    0.8140 ha        1 LP7      0.152000
     20 H1         -5.1960   -0.7460    0.7350 h4        1 LP7      0.031100
     21 H2         -2.6460    2.7510    0.3780 ha        1 LP7      0.143000
     22 H7          0.5650    0.3070    1.4390 hc        1 LP7      0.119700
     23 HO9        -1.3550   -3.3020   -0.1120 ho        1 LP7      0.430000
     24 H14         4.5260    0.7310   -0.8650 h1        1 LP7      0.053200
     25 H14A        4.6130    1.3770    0.8430 h1        1 LP7      0.053200
     26 H15         5.1440   -0.9450    1.6940 hc        1 LP7      0.050700
     27 H15A        5.0170   -1.6040    0.0130 hc        1 LP7      0.050700
     28 H15B        6.3490   -0.4350    0.4300 hc        1 LP7      0.050700
     29 H11        -0.7920    2.1430   -1.9360 ho        1 LP7      0.415000
     30 H12        -0.2350    2.3720    0.2620 h1        1 LP7      0.069700
@<TRIPOS>BOND
     1    1    4 ar  
     2    1    5 ar  
     3    1   19 1   
     4    2    4 ar  
     5    2    7 ar  
     6    3   11 1   
     7    3   29 1   
     8    4   20 1   
     9    5    6 ar  
    10    5   21 1   
    11    6    7 ar  
    12    6   11 1   
    13    7    8 1   
    14    8    9 1   
    15    8   12 1   
    16    9   10 1   
    17    9   13 2   
    18   10   11 1   
    19   10   14 1   
    20   10   22 1   
    21   11   30 1   
    22   12   23 1   
    23   14   15 2   
    24   14   16 1   
    25   16   17 1   
    26   17   18 1   
    27   17   24 1   
    28   17   25 1   
    29   18   26 1   
    30   18   27 1   
    31   18   28 1   
@<TRIPOS>SUBSTRUCTURE
     1 LP7         1 TEMP              0 ****  ****    0 ROOT
