@<TRIPOS>MOLECULE
LP7
   30    28     1     0     0
SMALL
bcc


@<TRIPOS>ATOM
      1 C           0.1980    0.7500   -4.5100 c1        1 LP7     -0.066000
      2 N           2.3090    0.8170   -3.3040 n1        1 LP7     -0.471800
      3 O          -1.3590    1.2340   -0.4190 oh        1 LP7     -0.584800
      4 C1          1.6060    0.9080   -4.4990 c1        1 LP7      0.344300
      5 C2         -0.4820    0.5050   -3.3250 c1        1 LP7     -0.066000
      6 C3          0.2120    0.4140   -2.1410 c1        1 LP7     -0.172100
      7 C4          1.6430    0.5740   -2.1330 c1        1 LP7      0.090200
      8 N5          2.3740    0.5790   -0.7530 n         1 LP7     -0.207100
      9 C6          1.6100    0.6180    0.3670 c         1 LP7      0.666100
     10 C7          0.3450   -0.1850    0.3900 c3        1 LP7     -0.226700
     11 C8         -0.5150    0.0930   -0.7560 c3        1 LP7      0.183200
     12 O9          3.6340    0.9130   -0.6890 oh        1 LP7     -0.384100
     13 O10         2.0550    1.0320    1.3630 o         1 LP7     -0.494100
     14 C11        -0.4420    0.0420    1.7930 c         1 LP7      0.646100
     15 O12        -0.6440    1.1790    2.2060 o         1 LP7     -0.549000
     16 O13        -0.9490   -1.0820    2.5160 os        1 LP7     -0.420900
     17 C14        -1.6100   -0.7400    3.7210 c3        1 LP7      0.141400
     18 C15        -2.0020   -2.0730    4.5150 c3        1 LP7     -0.103100
     19 H          -0.3250    0.8210   -5.4010 ha        1 LP7      0.098000
     20 H1          2.0830    1.0790   -5.3320 ha        1 LP7      0.109500
     21 H2         -1.4390    0.3960   -3.3330 ha        1 LP7      0.098000
     22 H7          0.5410   -1.1430    0.4390 hc        1 LP7      0.134700
     23 HO9         4.1160    0.2340   -0.8560 ho        1 LP7      0.429000
     24 H14        -1.0120   -0.1870    4.2780 h1        1 LP7      0.054700
     25 H14A       -2.4380   -0.2250    3.5100 h1        1 LP7      0.054700
     26 H15        -1.2160   -2.5090    4.8060 hc        1 LP7      0.054033
     27 H15A       -2.4940   -2.6530    3.9370 hc        1 LP7      0.054033
     28 H15B       -2.5650   -1.8350    5.3070 hc        1 LP7      0.054033
     29 H11        -2.1320    1.1430   -0.8020 ho        1 LP7      0.433000
     30 H12        -1.1020   -0.6960   -0.8920 h1        1 LP7      0.102700
@<TRIPOS>BOND
     1    1    5 3   
     2    1   19 1   
     3    2    4 3   
     4    3   11 1   
     5    3   29 1   
     6    4   20 1   
     7    5   21 1   
     8    6    7 3   
     9    6   11 1   
    10    7    8 1   
    11    8    9 1   
    12    8   12 1   
    13    9   10 1   
    14    9   13 2   
    15   10   11 1   
    16   10   14 1   
    17   10   22 1   
    18   11   30 1   
    19   12   23 1   
    20   14   15 2   
    21   14   16 1   
    22   16   17 1   
    23   17   18 1   
    24   17   24 1   
    25   17   25 1   
    26   18   26 1   
    27   18   27 1   
    28   18   28 1   
@<TRIPOS>SUBSTRUCTURE
     1 LP7         1 TEMP              0 ****  ****    0 ROOT
