@<TRIPOS>MOLECULE
LP7
   30    31     1     0     0
SMALL
bcc


@<TRIPOS>ATOM
      1 C          -0.0280   -0.3370    0.0190 ca        1 LP7     -0.264300
      2 N           2.1460   -0.2140    1.0980 nb        1 LP7     -0.675000
      3 O          -0.7640    1.6310    3.8440 oh        1 LP7     -0.588800
      4 C1          1.3790   -0.3520    0.0070 ca        1 LP7      0.431200
      5 C2         -0.6680   -0.1550    1.2410 ca        1 LP7     -0.048000
      6 C3          0.0930   -0.0070    2.4040 ca        1 LP7     -0.228600
      7 C4          1.5140   -0.0460    2.3020 ca        1 LP7      0.511200
      8 N5          2.3370   -0.0100    3.4910 n         1 LP7     -0.281800
      9 C6          1.6860    0.2050    4.7530 c         1 LP7      0.709500
     10 C7          0.2780   -0.3600    4.8420 c3        1 LP7     -0.231700
     11 C8         -0.5890    0.2310    3.7160 c3        1 LP7      0.220400
     12 O9          3.4590    0.7000    3.3720 oh        1 LP7     -0.389100
     13 O10         2.2900    0.6970    5.7080 o         1 LP7     -0.536500
     14 C11        -0.3320   -0.1140    6.1950 c         1 LP7      0.655100
     15 O12        -1.1760    0.7330    6.5000 o         1 LP7     -0.546000
     16 O13         0.0930   -0.9970    7.1360 os        1 LP7     -0.422900
     17 C14        -0.3970   -0.7940    8.4790 c3        1 LP7      0.140400
     18 C15         0.2810   -1.8380    9.3310 c3        1 LP7     -0.102100
     19 H          -0.5950   -0.4540   -0.9130 ha        1 LP7      0.152000
     20 H1          1.9380   -0.4810   -0.9390 h4        1 LP7      0.031100
     21 H2         -1.7670   -0.1150    1.3000 ha        1 LP7      0.148000
     22 H7          0.3440   -1.4790    4.6960 hc        1 LP7      0.123700
     23 HO9         4.1520    0.0490    3.1360 ho        1 LP7      0.431000
     24 H14        -1.5120   -0.9130    8.4680 h1        1 LP7      0.056700
     25 H14A       -0.1370    0.2480    8.8000 h1        1 LP7      0.056700
     26 H15         1.3900   -1.7190    9.2880 hc        1 LP7      0.051700
     27 H15A        0.0230   -2.8650    8.9760 hc        1 LP7      0.051700
     28 H15B       -0.0610   -1.7190   10.3870 hc        1 LP7      0.051700
     29 H11        -1.2650    1.7890    4.6590 ho        1 LP7      0.436000
     30 H12        -1.5950   -0.2800    3.7390 h1        1 LP7      0.056700
@<TRIPOS>BOND
     1    1    4 ar  
     2    1    5 ar  
     3    1   19 1   
     4    2    4 ar  
     5    2    7 ar  
     6    3   11 1   
     7    3   29 1   
     8    4   20 1   
     9    5    6 ar  
    10    5   21 1   
    11    6    7 ar  
    12    6   11 1   
    13    7    8 1   
    14    8    9 1   
    15    8   12 1   
    16    9   10 1   
    17    9   13 2   
    18   10   11 1   
    19   10   14 1   
    20   10   22 1   
    21   11   30 1   
    22   12   23 1   
    23   14   15 2   
    24   14   16 1   
    25   16   17 1   
    26   17   18 1   
    27   17   24 1   
    28   17   25 1   
    29   18   26 1   
    30   18   27 1   
    31   18   28 1   
@<TRIPOS>SUBSTRUCTURE
     1 LP7         1 TEMP              0 ****  ****    0 ROOT
