@<TRIPOS>MOLECULE
LP7
   30    31     1     0     0
SMALL
bcc


@<TRIPOS>ATOM
      1 C          -0.0280   -0.3660    0.0240 ca        1 LP7     -0.264300
      2 N           2.1440   -0.2380    1.1030 nb        1 LP7     -0.675000
      3 O          -0.7650    1.6270    3.8350 oh        1 LP7     -0.588800
      4 C1          1.3780   -0.3830    0.0130 ca        1 LP7      0.431200
      5 C2         -0.6700   -0.1770    1.2440 ca        1 LP7     -0.048000
      6 C3          0.0920   -0.0210    2.4060 ca        1 LP7     -0.228600
      7 C4          1.5120   -0.0610    2.3050 ca        1 LP7      0.511200
      8 N5          2.3340   -0.0180    3.4940 n         1 LP7     -0.281800
      9 C6          1.6830    0.2060    4.7550 c         1 LP7      0.709500
     10 C7          0.2750   -0.3570    4.8470 c3        1 LP7     -0.231700
     11 C8         -0.5910    0.2270    3.7170 c3        1 LP7      0.220400
     12 O9          3.4580    0.6900    3.3710 oh        1 LP7     -0.389100
     13 O10         2.2870    0.7030    5.7070 o         1 LP7     -0.537500
     14 C11        -0.3360   -0.1020    6.1980 c         1 LP7      0.655100
     15 O12        -1.1790    0.7480    6.4970 o         1 LP7     -0.546000
     16 O13         0.0880   -0.9800    7.1450 os        1 LP7     -0.422900
     17 C14        -0.4030   -0.7670    8.4860 c3        1 LP7      0.140400
     18 C15         0.2730   -1.8070    9.3450 c3        1 LP7     -0.102100
     19 H          -0.5960   -0.4900   -0.9080 ha        1 LP7      0.152000
     20 H1          1.9370   -0.5190   -0.9330 h4        1 LP7      0.031100
     21 H2         -1.7680   -0.1350    1.3020 ha        1 LP7      0.148000
     22 H7          0.3400   -1.4780    4.7080 hc        1 LP7      0.123700
     23 HO9         4.1500    0.0370    3.1400 ho        1 LP7      0.431000
     24 H14        -0.1410    0.2760    8.8010 h1        1 LP7      0.056700
     25 H14A       -1.5170   -0.8840    8.4760 h1        1 LP7      0.056700
     26 H15         1.3820   -1.6900    9.3020 hc        1 LP7      0.051700
     27 H15A        0.0140   -2.8350    8.9960 hc        1 LP7      0.051700
     28 H15B       -0.0690   -1.6810   10.4000 hc        1 LP7      0.051700
     29 H11        -1.2660    1.7920    4.6490 ho        1 LP7      0.436000
     30 H12        -1.5970   -0.2830    3.7420 h1        1 LP7      0.056700
@<TRIPOS>BOND
     1    1    4 ar  
     2    1    5 ar  
     3    1   19 1   
     4    2    4 ar  
     5    2    7 ar  
     6    3   11 1   
     7    3   29 1   
     8    4   20 1   
     9    5    6 ar  
    10    5   21 1   
    11    6    7 ar  
    12    6   11 1   
    13    7    8 1   
    14    8    9 1   
    15    8   12 1   
    16    9   10 1   
    17    9   13 2   
    18   10   11 1   
    19   10   14 1   
    20   10   22 1   
    21   11   30 1   
    22   12   23 1   
    23   14   15 2   
    24   14   16 1   
    25   16   17 1   
    26   17   18 1   
    27   17   24 1   
    28   17   25 1   
    29   18   26 1   
    30   18   27 1   
    31   18   28 1   
@<TRIPOS>SUBSTRUCTURE
     1 LP7         1 TEMP              0 ****  ****    0 ROOT
