@<TRIPOS>MOLECULE
LP8
   32    34     1     0     0
SMALL
bcc


@<TRIPOS>ATOM
      1 C           0.4600    1.1350    0.0260 c         1 LP8      0.717700
      2 N          -0.9120    1.5530    0.0860 n         1 LP8     -0.311800
      3 O          -1.1320    2.8130   -0.2640 oh        1 LP8     -0.362100
      4 C1         -0.3150   -1.1930   -0.0030 cc        1 LP8      0.197900
      5 C2          0.7290   -0.3090    0.0000 cd        1 LP8     -0.197400
      6 O3          1.3140    2.0320    0.0480 o         1 LP8     -0.579500
      7 C4         -1.9860    0.6420    0.0040 ca        1 LP8      0.559200
      8 C5         -1.6970   -0.7630    0.0250 ca        1 LP8     -0.269100
      9 C6         -2.7820   -1.6590    0.0800 ca        1 LP8     -0.050000
     10 C7         -4.0790   -1.1780    0.0710 ca        1 LP8     -0.279300
     11 C8         -4.2690    0.2220    0.0140 ca        1 LP8      0.452200
     12 N9         -3.2820    1.1160   -0.0140 nb        1 LP8     -0.682000
     13 O10        -0.0120   -2.5370   -0.0010 oh        1 LP8     -0.488100
     14 C11         2.1460   -0.7680   -0.0430 c3        1 LP8     -0.007500
     15 C12         2.9220   -0.2520   -1.2590 c3        1 LP8     -0.075400
     16 C13         4.3780   -0.1480   -0.8220 c3        1 LP8     -0.075400
     17 C14         4.4040   -0.2060    0.7010 c3        1 LP8     -0.075400
     18 C15         2.9630   -0.3360    1.1790 c3        1 LP8     -0.075400
     19 H6         -2.6030   -2.7440    0.1430 ha        1 LP8      0.138000
     20 H7         -4.9430   -1.8530    0.1100 ha        1 LP8      0.154000
     21 H8         -5.2900    0.6500   -0.0060 h4        1 LP8      0.033100
     22 H11         2.1480   -1.8950   -0.0820 hc        1 LP8      0.069700
     23 H12         2.8050   -0.9460   -2.1260 hc        1 LP8      0.049950
     24 H12A        2.5400    0.7550   -1.5670 hc        1 LP8      0.049950
     25 H13         4.9760   -0.9900   -1.2530 hc        1 LP8      0.040200
     26 H13A        4.8290    0.8060   -1.1920 hc        1 LP8      0.040200
     27 H14         5.0100   -1.0800    1.0470 hc        1 LP8      0.040200
     28 H14A        4.8740    0.7160    1.1260 hc        1 LP8      0.040200
     29 H15         2.5950    0.6500    1.5620 hc        1 LP8      0.049950
     30 H15A        2.8710   -1.0850    2.0020 hc        1 LP8      0.049950
     31 HO         -1.2540    3.3120    0.5720 ho        1 LP8      0.421000
     32 H151       -0.7430   -3.0170   -0.4170 ho        1 LP8      0.425000
@<TRIPOS>BOND
     1    1    2 1   
     2    1    5 1   
     3    1    6 2   
     4    2    3 1   
     5    2    7 1   
     6    3   31 1   
     7    4    5 2   
     8    4    8 1   
     9    4   13 1   
    10    5   14 1   
    11    7    8 ar  
    12    7   12 ar  
    13    8    9 ar  
    14    9   10 ar  
    15    9   19 1   
    16   10   11 ar  
    17   10   20 1   
    18   11   12 ar  
    19   11   21 1   
    20   13   32 1   
    21   14   15 1   
    22   14   18 1   
    23   14   22 1   
    24   15   16 1   
    25   15   23 1   
    26   15   24 1   
    27   16   17 1   
    28   16   25 1   
    29   16   26 1   
    30   17   18 1   
    31   17   27 1   
    32   17   28 1   
    33   18   29 1   
    34   18   30 1   
@<TRIPOS>SUBSTRUCTURE
     1 LP8         1 TEMP              0 ****  ****    0 ROOT
