@<TRIPOS>MOLECULE
LP8
   32    31     1     0     0
SMALL
bcc


@<TRIPOS>ATOM
      1 C           0.3700    0.0320   -1.1610 c1        1 LP8      0.352000
      2 N           1.8200    0.0630   -1.1190 n3        1 LP8     -0.153000
      3 O           2.5390    0.0130   -2.2850 oh        1 LP8     -0.171000
      4 C1          0.2900    0.0640    1.3730 c1        1 LP8      0.140000
      5 C2         -0.4040    0.0340    0.0950 c1        1 LP8     -0.173000
      6 O3         -0.2070    0.0070   -2.2300 o         1 LP8     -0.299000
      7 C4          2.5380    0.0980    0.2070 c2        1 LP8      0.145000
      8 C5          1.8060    0.0980    1.4080 c1        1 LP8     -0.188000
      9 C6          2.4690    0.0790    2.6190 c2        1 LP8     -0.051000
     10 C7          3.8480    0.0590    2.6490 c1        1 LP8     -0.213000
     11 C8          4.5770    0.0590    1.4480 c2        1 LP8     -0.014000
     12 N9          3.9180    0.0780    0.2410 n2        1 LP8     -0.155000
     13 O10        -0.4360   -0.0590    2.5690 oh        1 LP8     -0.243000
     14 C11        -1.8150   -0.0370    0.0580 c3        1 LP8     -0.051000
     15 C12        -2.1890    1.0370   -0.6360 c3        1 LP8     -0.154000
     16 C13        -3.3250    0.5300   -1.6450 c3        1 LP8     -0.154000
     17 C14        -3.2730   -1.0100   -1.6120 c3        1 LP8     -0.154000
     18 C15        -2.1470   -1.3130   -0.9780 c3        1 LP8     -0.154000
     19 H6          1.9620    0.0800    3.4540 ha        1 LP8      0.138000
     20 H7          4.3190    0.0460    3.5090 DU        1 LP8      0.154000
     21 H8          5.5570    0.0450    1.4710 h4        1 LP8      0.170000
     22 H11        -2.0670   -0.1090    0.9990 hc        1 LP8      0.109000
     23 H12        -2.5500    1.7180   -0.0350 hc        1 LP8      0.089000
     24 H12A       -1.4310    1.3950   -1.1360 hc        1 LP8      0.089000
     25 H13        -4.2050    0.8440   -1.3460 hc        1 LP8      0.079500
     26 H13A       -3.1410    0.8540   -2.5510 hc        1 LP8      0.079500
     27 H14        -3.2550   -1.3680   -2.5240 hc        1 LP8      0.079500
     28 H14A       -4.0450   -1.3650   -1.1210 hc        1 LP8      0.079500
     29 H15        -1.4210   -1.4170   -1.6210 hc        1 LP8      0.089000
     30 H15A       -2.2630   -2.1400   -0.4660 hc        1 LP8      0.089000
     31 HO          2.6820    0.8410   -2.5820 ho        1 LP8      0.221000
     32 H151       -0.5230    0.7440    2.9490 ho        1 LP8      0.224000
@<TRIPOS>BOND
     1    1    2 1   
     2    1    6 1   
     3    2    3 1   
     4    2    7 1   
     5    3   31 1   
     6    4    5 1   
     7    4   13 1   
     8    5   14 1   
     9    7    8 1   
    10    7   12 1   
    11    8    9 1   
    12    9   10 1   
    13    9   19 1   
    14   10   11 1   
    15   11   12 1   
    16   11   21 1   
    17   13   32 1   
    18   14   15 1   
    19   14   18 1   
    20   14   22 1   
    21   15   16 1   
    22   15   23 1   
    23   15   24 1   
    24   16   17 1   
    25   16   25 1   
    26   16   26 1   
    27   17   18 1   
    28   17   27 1   
    29   17   28 1   
    30   18   29 1   
    31   18   30 1   
@<TRIPOS>SUBSTRUCTURE
     1 LP8         1 TEMP              0 ****  ****    0 ROOT
