@<TRIPOS>MOLECULE
LP8
   32    34     1     0     0
SMALL
bcc


@<TRIPOS>ATOM
      1 C           0.1080   -0.0750   -0.1730 c         1 LP8      0.713700
      2 N           1.5250   -0.2760   -0.0330 n         1 LP8     -0.305800
      3 O           2.2280    0.0040   -1.1240 oh        1 LP8     -0.366100
      4 C1         -0.0690   -0.0470    2.2740 cc        1 LP8      0.195900
      5 C2         -0.6950   -0.0530    1.0580 cd        1 LP8     -0.196400
      6 O3         -0.3380   -0.0160   -1.3270 o         1 LP8     -0.574500
      7 C4          2.1750   -0.1410    1.2170 ca        1 LP8      0.553200
      8 C5          1.3730   -0.0620    2.4030 ca        1 LP8     -0.265100
      9 C6          2.0350    0.0280    3.6420 ca        1 LP8     -0.051000
     10 C7          3.4180    0.0150    3.6920 ca        1 LP8     -0.278300
     11 C8          4.1270   -0.0890    2.4730 ca        1 LP8      0.451200
     12 N9          3.5530   -0.1620    1.2730 nb        1 LP8     -0.681000
     13 O10        -0.8610    0.0240    3.3980 oh        1 LP8     -0.488100
     14 C11        -2.1790   -0.0060    0.9400 c3        1 LP8     -0.007500
     15 C12        -2.6950    1.2500    0.2300 c3        1 LP8     -0.075400
     16 C13        -4.0030    0.8520   -0.4420 c3        1 LP8     -0.075400
     17 C14        -4.0480   -0.6710   -0.4880 c3        1 LP8     -0.075400
     18 C15        -2.7710   -1.1870    0.1640 c3        1 LP8     -0.075400
     19 H6          1.4590    0.1250    4.5760 ha        1 LP8      0.138000
     20 H7          3.9610    0.0860    4.6430 ha        1 LP8      0.154000
     21 H8          5.2340   -0.1100    2.4650 h4        1 LP8      0.033100
     22 H11        -2.6150   -0.0210    1.9810 hc        1 LP8      0.069700
     23 H12        -1.9560    1.5920   -0.5390 hc        1 LP8      0.049700
     24 H12A       -2.8470    2.0830    0.9590 hc        1 LP8      0.049700
     25 H13        -4.8750    1.2500    0.1340 hc        1 LP8      0.040200
     26 H13A       -4.0590    1.2820   -1.4730 hc        1 LP8      0.040200
     27 H14        -4.1220   -1.0350   -1.5420 hc        1 LP8      0.040200
     28 H14A       -4.9470   -1.0500    0.0600 hc        1 LP8      0.040200
     29 H15        -2.0530   -1.5370   -0.6200 hc        1 LP8      0.049700
     30 H15A       -2.9800   -2.0440    0.8490 hc        1 LP8      0.049700
     31 HO          2.5230   -0.8590   -1.4840 ho        1 LP8      0.422000
     32 H151       -0.3810   -0.3780    4.1370 ho        1 LP8      0.425000
@<TRIPOS>BOND
     1    1    2 1   
     2    1    5 1   
     3    1    6 2   
     4    2    3 1   
     5    2    7 1   
     6    3   31 1   
     7    4    5 2   
     8    4    8 1   
     9    4   13 1   
    10    5   14 1   
    11    7    8 ar  
    12    7   12 ar  
    13    8    9 ar  
    14    9   10 ar  
    15    9   19 1   
    16   10   11 ar  
    17   10   20 1   
    18   11   12 ar  
    19   11   21 1   
    20   13   32 1   
    21   14   15 1   
    22   14   18 1   
    23   14   22 1   
    24   15   16 1   
    25   15   23 1   
    26   15   24 1   
    27   16   17 1   
    28   16   25 1   
    29   16   26 1   
    30   17   18 1   
    31   17   27 1   
    32   17   28 1   
    33   18   29 1   
    34   18   30 1   
@<TRIPOS>SUBSTRUCTURE
     1 LP8         1 TEMP              0 ****  ****    0 ROOT
