@<TRIPOS>MOLECULE
LP8
   32    34     1     0     0
SMALL
bcc


@<TRIPOS>ATOM
      1 C           0.1050   -0.0830   -0.1740 c         1 LP8      0.713700
      2 N           1.5220   -0.2870   -0.0360 n         1 LP8     -0.305800
      3 O           2.2230   -0.0140   -1.1300 oh        1 LP8     -0.366100
      4 C1         -0.0670   -0.0440    2.2730 cc        1 LP8      0.195900
      5 C2         -0.6950   -0.0530    1.0590 cd        1 LP8     -0.196400
      6 O3         -0.3430   -0.0270   -1.3280 o         1 LP8     -0.574500
      7 C4          2.1750   -0.1470    1.2110 ca        1 LP8      0.553200
      8 C5          1.3770   -0.0610    2.3990 ca        1 LP8     -0.265100
      9 C6          2.0420    0.0320    3.6360 ca        1 LP8     -0.051000
     10 C7          3.4240    0.0150    3.6830 ca        1 LP8     -0.278300
     11 C8          4.1300   -0.0960    2.4620 ca        1 LP8      0.451200
     12 N9          3.5530   -0.1720    1.2640 nb        1 LP8     -0.681000
     13 O10        -0.8560    0.0340    3.3990 oh        1 LP8     -0.488100
     14 C11        -2.1790   -0.0020    0.9440 c3        1 LP8     -0.007500
     15 C12        -2.6930    1.2530    0.2300 c3        1 LP8     -0.075400
     16 C13        -4.0040    0.8560   -0.4370 c3        1 LP8     -0.075400
     17 C14        -4.0530   -0.6670   -0.4770 c3        1 LP8     -0.075400
     18 C15        -2.7770   -1.1840    0.1740 c3        1 LP8     -0.075400
     19 H6          1.4680    0.1350    4.5700 ha        1 LP8      0.138000
     20 H7          3.9690    0.0900    4.6320 ha        1 LP8      0.154000
     21 H8          5.2370   -0.1190    2.4520 h4        1 LP8      0.033100
     22 H11        -2.6120   -0.0110    1.9860 hc        1 LP8      0.069700
     23 H12        -2.8410    2.0890    0.9560 hc        1 LP8      0.049700
     24 H12A       -1.9550    1.5900   -0.5410 hc        1 LP8      0.049700
     25 H13        -4.8740    1.2580    0.1400 hc        1 LP8      0.040200
     26 H13A       -4.0610    1.2830   -1.4690 hc        1 LP8      0.040200
     27 H14        -4.9520   -1.0420    0.0740 hc        1 LP8      0.040200
     28 H14A       -4.1300   -1.0350   -1.5300 hc        1 LP8      0.040200
     29 H15        -2.0610   -1.5390   -0.6110 hc        1 LP8      0.049700
     30 H15A       -2.9870   -2.0380    0.8620 hc        1 LP8      0.049700
     31 HO          2.5160   -0.8790   -1.4870 ho        1 LP8      0.422000
     32 H151       -0.3750   -0.3650    4.1380 ho        1 LP8      0.425000
@<TRIPOS>BOND
     1    1    2 1   
     2    1    5 1   
     3    1    6 2   
     4    2    3 1   
     5    2    7 1   
     6    3   31 1   
     7    4    5 2   
     8    4    8 1   
     9    4   13 1   
    10    5   14 1   
    11    7    8 ar  
    12    7   12 ar  
    13    8    9 ar  
    14    9   10 ar  
    15    9   19 1   
    16   10   11 ar  
    17   10   20 1   
    18   11   12 ar  
    19   11   21 1   
    20   13   32 1   
    21   14   15 1   
    22   14   18 1   
    23   14   22 1   
    24   15   16 1   
    25   15   23 1   
    26   15   24 1   
    27   16   17 1   
    28   16   25 1   
    29   16   26 1   
    30   17   18 1   
    31   17   27 1   
    32   17   28 1   
    33   18   29 1   
    34   18   30 1   
@<TRIPOS>SUBSTRUCTURE
     1 LP8         1 TEMP              0 ****  ****    0 ROOT
