@<TRIPOS>MOLECULE
LP9
   54    56     1     0     0
SMALL
bcc


@<TRIPOS>ATOM
      1 C          -1.1250   -0.7060    0.2300 ca        1 LP9      0.007000
      2 N           0.4040    1.2810    1.5630 nb        1 LP9     -0.668000
      3 O          -3.4410   -1.5910    1.3390 oh        1 LP9     -0.496100
      4 C1          0.0690   -0.2310   -0.2970 ca        1 LP9     -0.140200
      5 C2          0.8050    0.7580    0.4130 ca        1 LP9      0.478200
      6 C3         -0.7920    0.8360    2.1060 ca        1 LP9      0.601200
      7 C4         -1.5780   -0.1710    1.4480 ca        1 LP9     -0.276100
      8 N5         -1.2900    1.4130    3.2800 n         1 LP9     -0.306800
      9 C6         -2.4630    0.9060    3.9590 c         1 LP9      0.731700
     10 C7         -3.2320   -0.1300    3.2710 cc        1 LP9     -0.352400
     11 C8         -2.8060   -0.6390    2.0640 cd        1 LP9      0.325900
     12 C9         -4.4540   -0.6220    3.9110 c         1 LP9      0.670300
     13 O10        -5.2370   -1.4570    3.4240 o         1 LP9     -0.597000
     14 O11        -2.7460    1.4440    5.0310 o         1 LP9     -0.527500
     15 O12        -0.4450    2.0920    4.0460 oh        1 LP9     -0.356100
     16 O13         0.6490   -0.8430   -1.4090 os        1 LP9     -0.205200
     17 C14         0.3480   -0.3050   -2.6400 ca        1 LP9      0.178100
     18 C15        -0.4950    0.7960   -2.8480 ca        1 LP9     -0.159000
     19 C16        -0.7270    1.2530   -4.1380 ca        1 LP9     -0.068500
     20 C17        -0.1170    0.6110   -5.2350 ca        1 LP9     -0.095400
     21 C18         0.7300   -0.4940   -5.0200 ca        1 LP9     -0.068500
     22 C19         0.9630   -0.9520   -3.7330 ca        1 LP9     -0.159000
     23 N20        -0.3790    1.1250   -6.5870 n4        1 LP9     -0.550800
     24 C21         0.7720    1.9390   -7.1150 c3        1 LP9      0.118800
     25 C22         2.0080    1.1570   -7.4970 c3        1 LP9     -0.128600
     26 C23        -0.7930    0.0520   -7.5530 c3        1 LP9      0.118800
     27 C24        -2.1760   -0.4970   -7.2750 c3        1 LP9     -0.128600
     28 O25        -4.7260   -0.1080    5.1340 os        1 LP9     -0.385900
     29 C26        -5.9890    0.1140    7.1100 c3        1 LP9     -0.103100
     30 C27        -5.9280   -0.5930    5.7790 c3        1 LP9      0.140400
     31 H          -1.7090   -1.4940   -0.2750 ha        1 LP9      0.180000
     32 H2          1.7750    1.1260    0.0250 h4        1 LP9      0.049100
     33 HO12       -0.7970    3.0080    4.0930 ho        1 LP9      0.433000
     34 H15        -0.9740    1.2970   -1.9900 ha        1 LP9      0.180500
     35 H16        -1.3940    2.1200   -4.2790 ha        1 LP9      0.153500
     36 H18         1.2220   -1.0130   -5.8600 ha        1 LP9      0.153500
     37 H19         1.6220   -1.8170   -3.5500 ha        1 LP9      0.180500
     38 H21         1.0340    2.6880   -6.3120 hx        1 LP9      0.098950
     39 H21A        0.3830    2.4930   -8.0190 hx        1 LP9      0.098950
     40 H22         2.4610    0.6450   -6.6130 hc        1 LP9      0.076367
     41 H22A        1.7930    0.3980   -8.2880 hc        1 LP9      0.076367
     42 H22B        2.7600    1.8820   -7.9030 hc        1 LP9      0.076367
     43 H23        -0.7630    0.5100   -8.5850 hx        1 LP9      0.098950
     44 H24        -2.2400   -0.9540   -6.2570 hc        1 LP9      0.076367
     45 H24A       -2.3920   -1.2940   -8.0320 hc        1 LP9      0.076367
     46 H26        -6.0300    1.2200    6.9660 hc        1 LP9      0.056033
     47 H26A       -6.9040   -0.2210    7.6540 hc        1 LP9      0.056033
     48 H27        -6.8050   -0.3460    5.1250 h1        1 LP9      0.055700
     49 H20        -4.2480   -1.9080    1.7960 ho        1 LP9      0.494000
     50 H211       -0.0320   -0.7770   -7.5110 hx        1 LP9      0.098950
     51 H221       -2.9610    0.2920   -7.3680 hc        1 LP9      0.076367
     52 H231       -5.0880   -0.1260    7.7230 hc        1 LP9      0.056033
     53 H241       -5.8490   -1.7050    5.8900 h1        1 LP9      0.055700
     54 H201       -1.1790    1.7720   -6.5040 hn        1 LP9      0.444800
@<TRIPOS>BOND
     1    1    4 ar  
     2    1    7 ar  
     3    1   31 1   
     4    2    5 ar  
     5    2    6 ar  
     6    3   11 1   
     7    3   49 1   
     8    4    5 ar  
     9    4   16 1   
    10    5   32 1   
    11    6    7 ar  
    12    6    8 1   
    13    7   11 1   
    14    8    9 1   
    15    8   15 1   
    16    9   10 1   
    17    9   14 2   
    18   10   11 2   
    19   10   12 1   
    20   12   13 2   
    21   12   28 1   
    22   15   33 1   
    23   16   17 1   
    24   17   18 ar  
    25   17   22 ar  
    26   18   19 ar  
    27   18   34 1   
    28   19   20 ar  
    29   19   35 1   
    30   20   21 ar  
    31   20   23 1   
    32   21   22 ar  
    33   21   36 1   
    34   22   37 1   
    35   23   24 1   
    36   23   26 1   
    37   23   54 1   
    38   24   25 1   
    39   24   38 1   
    40   24   39 1   
    41   25   40 1   
    42   25   41 1   
    43   25   42 1   
    44   26   27 1   
    45   26   43 1   
    46   26   50 1   
    47   27   44 1   
    48   27   45 1   
    49   27   51 1   
    50   28   30 1   
    51   29   30 1   
    52   29   46 1   
    53   29   47 1   
    54   29   52 1   
    55   30   48 1   
    56   30   53 1   
@<TRIPOS>SUBSTRUCTURE
     1 LP9         1 TEMP              0 ****  ****    0 ROOT
