@<TRIPOS>MOLECULE
LP9
   53    55     1     0     0
SMALL
bcc


@<TRIPOS>ATOM
      1 C          -0.0140   -1.0630   -0.0180 ca        1 LP9     -0.084000
      2 N          -1.7630   -3.2910    0.0710 nb        1 LP9     -0.668000
      3 O          -1.0610    1.4510   -0.0830 oh        1 LP9     -0.489100
      4 C1          0.4770   -2.3580    0.0280 ca        1 LP9     -0.034200
      5 C2         -0.4450   -3.4470    0.0740 ca        1 LP9      0.453200
      6 C3         -2.2720   -2.0080    0.0230 ca        1 LP9      0.537200
      7 C4         -1.4110   -0.8690   -0.0150 ca        1 LP9     -0.242100
      8 N5         -3.6720   -1.8130   -0.0830 n         1 LP9     -0.300800
      9 C6         -4.2580   -0.5050    0.0650 c         1 LP9      0.730700
     10 C7         -3.3530    0.6450   -0.0090 cc        1 LP9     -0.370400
     11 C8         -1.9860    0.4620   -0.0400 cd        1 LP9      0.331900
     12 C9         -3.9380    1.9830   -0.0210 c         1 LP9      0.673300
     13 O10        -3.3090    3.0570   -0.0490 o         1 LP9     -0.610000
     14 O11        -5.4880   -0.4430    0.1700 o         1 LP9     -0.550500
     15 O12        -4.4550   -2.8020    0.3340 oh        1 LP9     -0.369100
     16 O13         1.8120   -2.7230    0.0300 os        1 LP9     -0.233200
     17 C14         2.7290   -1.6670    0.0350 ca        1 LP9      0.005100
     18 C15         3.2180   -1.1860    1.2540 ca        1 LP9     -0.083500
     19 C16         4.2350   -0.2420    1.2610 ca        1 LP9     -0.199000
     20 C17         4.7870    0.2520    0.0480 ca        1 LP9      0.207600
     21 C18         4.2640   -0.2560   -1.1710 ca        1 LP9     -0.199000
     22 C19         3.2520   -1.2060   -1.1770 ca        1 LP9     -0.083500
     23 N20         5.8340    1.1700    0.0700 nh        1 LP9     -0.692000
     24 C21         6.0050    2.0510    1.2030 c3        1 LP9      0.217800
     25 C22         7.0760    1.6050    2.1890 c3        1 LP9     -0.120600
     26 C23         6.5440    1.5180   -1.1370 c3        1 LP9      0.217800
     27 C24         5.9180    2.6080   -1.9950 c3        1 LP9     -0.120600
     28 O25        -5.2950    2.0370   -0.0080 os        1 LP9     -0.385900
     29 C26        -7.3730    3.1430    0.0070 c3        1 LP9     -0.100100
     30 C27        -5.8800    3.3570   -0.0160 c3        1 LP9      0.139400
     31 H           0.6600   -0.1910   -0.0540 ha        1 LP9      0.178000
     32 H2         -0.0720   -4.4880    0.1140 h4        1 LP9      0.050100
     33 HO12       -4.7450   -3.2720   -0.4750 ho        1 LP9      0.425000
     34 H15         2.8050   -1.5670    2.2000 ha        1 LP9      0.146000
     35 H16         4.6240    0.1050    2.2310 ha        1 LP9      0.140500
     36 H18         4.6510    0.1010   -2.1380 ha        1 LP9      0.140500
     37 H19         2.8640   -1.5990   -2.1280 ha        1 LP9      0.146000
     38 H21         6.2810    3.0770    0.8180 h1        1 LP9      0.048950
     39 H21A        5.0250    2.1590    1.7520 h1        1 LP9      0.048950
     40 H22         6.8290    0.6100    2.6310 hc        1 LP9      0.042700
     41 H22A        8.0720    1.5300    1.6920 hc        1 LP9      0.042700
     42 H22B        7.1410    2.3570    3.0120 hc        1 LP9      0.042700
     43 H23         7.5760    1.8560   -0.8260 h1        1 LP9      0.048950
     44 H24         4.8980    2.3160   -2.3410 hc        1 LP9      0.042700
     45 H24A        5.8360    3.5670   -1.4310 hc        1 LP9      0.042700
     46 H26        -7.6720    2.5690    0.9170 hc        1 LP9      0.051367
     47 H26A       -7.8810    4.1370    0.0140 hc        1 LP9      0.051367
     48 H27        -5.5170    3.9150    0.8850 h1        1 LP9      0.051200
     49 H20        -1.4850    2.3330   -0.0920 ho        1 LP9      0.484000
     50 H211        6.6730    0.5860   -1.7590 h1        1 LP9      0.048950
     51 H221        6.5640    2.7770   -2.8910 hc        1 LP9      0.042700
     52 H231       -7.7010    2.5670   -0.8910 hc        1 LP9      0.051367
     53 H241       -5.5420    3.8920   -0.9420 h1        1 LP9      0.051200
@<TRIPOS>BOND
     1    1    4 ar  
     2    1    7 ar  
     3    1   31 1   
     4    2    5 ar  
     5    2    6 ar  
     6    3   11 1   
     7    3   49 1   
     8    4    5 ar  
     9    4   16 1   
    10    5   32 1   
    11    6    7 ar  
    12    6    8 1   
    13    7   11 1   
    14    8    9 1   
    15    8   15 1   
    16    9   10 1   
    17    9   14 2   
    18   10   11 2   
    19   10   12 1   
    20   12   13 2   
    21   12   28 1   
    22   15   33 1   
    23   16   17 1   
    24   17   18 ar  
    25   17   22 ar  
    26   18   19 ar  
    27   18   34 1   
    28   19   20 ar  
    29   19   35 1   
    30   20   21 ar  
    31   20   23 1   
    32   21   22 ar  
    33   21   36 1   
    34   22   37 1   
    35   23   24 1   
    36   23   26 1   
    37   24   25 1   
    38   24   38 1   
    39   24   39 1   
    40   25   40 1   
    41   25   41 1   
    42   25   42 1   
    43   26   27 1   
    44   26   43 1   
    45   26   50 1   
    46   27   44 1   
    47   27   45 1   
    48   27   51 1   
    49   28   30 1   
    50   29   30 1   
    51   29   46 1   
    52   29   47 1   
    53   29   52 1   
    54   30   48 1   
    55   30   53 1   
@<TRIPOS>SUBSTRUCTURE
     1 LP9         1 TEMP              0 ****  ****    0 ROOT
