@<TRIPOS>MOLECULE
LP9
   53    50     1     0     0
SMALL
bcc


@<TRIPOS>ATOM
      1 C          -0.3500    2.2040    0.2670 c1        1 LP9     -0.124000
      2 N           0.9810    2.2420    2.7100 n1        1 LP9     -0.133000
      3 O          -3.2620    2.3820    0.1870 oh        1 LP9     -0.224000
      4 C1          1.0250    2.1880    0.3030 c2        1 LP9      0.002000
      5 C2          1.6970    2.2070    1.5370 c1        1 LP9     -0.013000
      6 C3         -0.3960    2.2570    2.6780 c1        1 LP9      0.132000
      7 C4         -1.0700    2.2380    1.4460 c2        1 LP9     -0.174000
      8 N5         -1.1700    2.1260    3.9610 n2        1 LP9     -0.145000
      9 C6         -2.6130    2.1760    3.9430 c2        1 LP9      0.371000
     10 C7         -3.3320    2.2090    2.6570 c2        1 LP9     -0.235000
     11 C8         -2.5840    2.2400    1.4130 c2        1 LP9      0.212000
     12 C9         -4.8520    2.1830    2.6330 c2        1 LP9      0.383000
     13 O10        -5.4600    2.9610    1.9270 o         1 LP9     -0.336000
     14 O11        -3.2340    2.1500    4.9840 o         1 LP9     -0.288000
     15 O12        -0.5050    1.9840    5.1480 oh        1 LP9     -0.170000
     16 O13         1.9960    2.3960   -0.7150 os        1 LP9     -0.142000
     17 C14         2.3380    1.1490   -1.3060 c2        1 LP9     -0.020000
     18 C15         3.1060    0.2340   -0.6000 c2        1 LP9     -0.105000
     19 C16         3.4970   -0.9590   -1.2030 c1        1 LP9     -0.154000
     20 C17         3.1180   -1.2340   -2.5110 c2        1 LP9      0.074000
     21 C18         2.3500   -0.3190   -3.2180 c1        1 LP9     -0.182000
     22 C19         1.9590    0.8750   -2.6150 c1        1 LP9     -0.101000
     23 N20         3.4680   -2.5070   -3.1150 n3        1 LP9     -0.246000
     24 C21         3.3380   -3.7150   -2.3600 c3        1 LP9     -0.049500
     25 C22         2.1010   -4.4650   -2.8140 c3        1 LP9     -0.232000
     26 C23         3.9060   -2.5600   -4.4970 c3        1 LP9     -0.049500
     27 C24         5.3550   -3.0610   -4.5560 c3        1 LP9     -0.232000
     28 O25        -5.5550    1.3350    3.5170 os        1 LP9     -0.260000
     29 C26        -7.6140    0.5240    4.4390 c3        1 LP9     -0.218000
     30 C27        -6.9610    1.4580    3.4300 c3        1 LP9     -0.011000
     31 H          -0.8160    2.1910   -0.5890 DU        1 LP9      0.149000
     32 H2          2.6780    2.1960    1.5620 ha        1 LP9      0.190000
     33 HO12       -0.0400    2.7190    5.3170 ho        1 LP9      0.225000
     34 H15         3.3720    0.4260    0.3200 ha        1 LP9      0.150000
     35 H16         4.0360   -1.6000   -0.7070 DU        1 LP9      0.149000
     36 H18         2.0840   -0.5110   -4.1360 ha        1 LP9      0.142000
     37 H19         1.4190    1.5170   -3.1100 ha        1 LP9      0.149000
     38 H21         3.2570   -3.4980   -1.4090 h1        1 LP9      0.086000
     39 H21A        4.1280   -4.2740   -2.5000 h1        1 LP9      0.086000
     40 H22         2.3620   -5.1880   -3.4240 hc        1 LP9      0.082333
     41 H22A        1.6450   -4.8440   -2.0340 hc        1 LP9      0.082333
     42 H22B        1.4980   -3.8480   -3.2770 hc        1 LP9      0.082333
     43 H23         3.3270   -3.1710   -5.0000 h1        1 LP9      0.086000
     44 H24         5.3600   -4.0380   -4.6630 hc        1 LP9      0.082333
     45 H24A        5.8140   -2.6460   -5.3190 hc        1 LP9      0.082333
     46 H26        -8.5880    0.6230    4.3940 hc        1 LP9      0.088000
     47 H26A       -7.3710   -0.4030    4.2310 hc        1 LP9      0.088000
     48 H27        -7.2540    1.2200    2.5290 h1        1 LP9      0.091000
     49 H20        -3.3330    1.5850   -0.2070 ho        1 LP9      0.234000
     50 H211        3.8540   -1.6670   -4.8880 h1        1 LP9      0.086000
     51 H221        5.8170   -2.8220   -3.7280 hc        1 LP9      0.082333
     52 H231       -7.3030    0.7490    5.3420 hc        1 LP9      0.088000
     53 H241       -7.2210    2.3850    3.6260 h1        1 LP9      0.091000
@<TRIPOS>BOND
     1    1    4 1   
     2    1    7 1   
     3    2    6 1   
     4    3   11 1   
     5    3   49 1   
     6    4    5 1   
     7    4   16 1   
     8    5   32 1   
     9    6    7 1   
    10    7   11 1   
    11    8    9 1   
    12    8   15 1   
    13    9   10 1   
    14    9   14 1   
    15   10   11 1   
    16   10   12 1   
    17   12   13 1   
    18   12   28 1   
    19   15   33 1   
    20   16   17 1   
    21   17   18 1   
    22   17   22 1   
    23   18   19 1   
    24   18   34 1   
    25   19   20 1   
    26   20   21 1   
    27   20   23 1   
    28   21   36 1   
    29   22   37 1   
    30   23   24 1   
    31   23   26 1   
    32   24   25 1   
    33   24   38 1   
    34   24   39 1   
    35   25   40 1   
    36   25   41 1   
    37   25   42 1   
    38   26   27 1   
    39   26   43 1   
    40   26   50 1   
    41   27   44 1   
    42   27   45 1   
    43   27   51 1   
    44   28   30 1   
    45   29   30 1   
    46   29   46 1   
    47   29   47 1   
    48   29   52 1   
    49   30   48 1   
    50   30   53 1   
@<TRIPOS>SUBSTRUCTURE
     1 LP9         1 TEMP              0 ****  ****    0 ROOT
