@<TRIPOS>MOLECULE
LP9
   53    55     1     0     0
SMALL
bcc


@<TRIPOS>ATOM
      1 C          -0.2010    0.0580    0.0940 ca        1 LP9     -0.084000
      2 N           1.3740   -0.0230    2.4490 nb        1 LP9     -0.668000
      3 O          -2.9160    0.0510    0.3060 oh        1 LP9     -0.489100
      4 C1          1.1830    0.0720    0.0310 ca        1 LP9     -0.034200
      5 C2          1.9320    0.0320    1.2460 ca        1 LP9      0.453200
      6 C3         -0.0040   -0.0400    2.5320 ca        1 LP9      0.537200
      7 C4         -0.8190    0.0070    1.3600 ca        1 LP9     -0.242100
      8 N5         -0.6270   -0.2010    3.7950 n         1 LP9     -0.300800
      9 C6         -2.0490   -0.0240    3.9550 c         1 LP9      0.730700
     10 C7         -2.8620   -0.0100    2.7350 cc        1 LP9     -0.370400
     11 C8         -2.2630    0.0120    1.4920 cd        1 LP9      0.331900
     12 C9         -4.3150    0.0090    2.8760 c         1 LP9      0.673300
     13 O10        -5.1410    0.0530    1.9460 o         1 LP9     -0.610000
     14 O11        -2.4880    0.0290    5.1090 o         1 LP9     -0.550500
     15 O12         0.0790    0.1400    4.8670 oh        1 LP9     -0.369100
     16 O13         1.9460    0.1180   -1.1240 os        1 LP9     -0.233200
     17 C14         1.2280    0.2060   -2.3210 ca        1 LP9      0.005100
     18 C15         0.9500    1.4640   -2.8670 ca        1 LP9     -0.083500
     19 C16         0.3710    1.5530   -4.1240 ca        1 LP9     -0.199000
     20 C17         0.0460    0.3860   -4.8670 ca        1 LP9      0.207600
     21 C18         0.3380   -0.8740   -4.2820 ca        1 LP9     -0.199000
     22 C19         0.9260   -0.9620   -3.0270 ca        1 LP9     -0.083500
     23 N20        -0.4990    0.4900   -6.1450 nh        1 LP9     -0.692000
     24 C21        -1.2590    1.6630   -6.5170 c3        1 LP9      0.217800
     25 C22        -0.4800    2.6800   -7.3410 c3        1 LP9     -0.120600
     26 C23        -0.6360   -0.6680   -6.9930 c3        1 LP9      0.217800
     27 C24        -1.8850   -1.5120   -6.7840 c3        1 LP9     -0.120600
     28 O25        -4.7880   -0.0360    4.1480 os        1 LP9     -0.385900
     29 C26        -6.4850   -0.0660    5.7800 c3        1 LP9     -0.100100
     30 C27        -6.2240   -0.0150    4.2950 c3        1 LP9      0.139400
     31 H          -0.8200    0.0880   -0.8180 ha        1 LP9      0.178000
     32 H2          3.0380    0.0450    1.2150 h4        1 LP9      0.050100
     33 HO12        0.4150   -0.7000    5.2440 ho        1 LP9      0.425000
     34 H15         1.2050    2.3740   -2.3050 ha        1 LP9      0.146000
     35 H16         0.1830    2.5520   -4.5470 ha        1 LP9      0.140500
     36 H18         0.0990   -1.8080   -4.8130 ha        1 LP9      0.140500
     37 H19         1.1570   -1.9440   -2.5890 ha        1 LP9      0.146000
     38 H21        -1.6540    2.1710   -5.5900 h1        1 LP9      0.048950
     39 H21A       -2.1560    1.3310   -7.1180 h1        1 LP9      0.048950
     40 H22         0.3980    3.0720   -6.7740 hc        1 LP9      0.042700
     41 H22A       -1.1560    3.5330   -7.5910 hc        1 LP9      0.042700
     42 H22B       -0.1100    2.2260   -8.2910 hc        1 LP9      0.042700
     43 H23        -0.6290   -0.2970   -8.0600 h1        1 LP9      0.048950
     44 H24        -2.8100   -0.9150   -6.9730 hc        1 LP9      0.042700
     45 H24A       -1.9340   -1.9150   -5.7450 hc        1 LP9      0.042700
     46 H26        -6.0640   -1.0010    6.2200 hc        1 LP9      0.051367
     47 H26A       -6.0090    0.8050    6.2910 hc        1 LP9      0.051367
     48 H27        -6.6180    0.9240    3.8270 h1        1 LP9      0.051200
     49 H20        -3.8860    0.0600    0.4350 ho        1 LP9      0.484000
     50 H211        0.2760   -1.3190   -6.8610 h1        1 LP9      0.048950
     51 H221       -1.8650   -2.3690   -7.4990 hc        1 LP9      0.042700
     52 H231       -7.5870   -0.0400    5.9550 hc        1 LP9      0.051367
     53 H241       -6.6520   -0.9010    3.7580 h1        1 LP9      0.051200
@<TRIPOS>BOND
     1    1    4 ar  
     2    1    7 ar  
     3    1   31 1   
     4    2    5 ar  
     5    2    6 ar  
     6    3   11 1   
     7    3   49 1   
     8    4    5 ar  
     9    4   16 1   
    10    5   32 1   
    11    6    7 ar  
    12    6    8 1   
    13    7   11 1   
    14    8    9 1   
    15    8   15 1   
    16    9   10 1   
    17    9   14 2   
    18   10   11 2   
    19   10   12 1   
    20   12   13 2   
    21   12   28 1   
    22   15   33 1   
    23   16   17 1   
    24   17   18 ar  
    25   17   22 ar  
    26   18   19 ar  
    27   18   34 1   
    28   19   20 ar  
    29   19   35 1   
    30   20   21 ar  
    31   20   23 1   
    32   21   22 ar  
    33   21   36 1   
    34   22   37 1   
    35   23   24 1   
    36   23   26 1   
    37   24   25 1   
    38   24   38 1   
    39   24   39 1   
    40   25   40 1   
    41   25   41 1   
    42   25   42 1   
    43   26   27 1   
    44   26   43 1   
    45   26   50 1   
    46   27   44 1   
    47   27   45 1   
    48   27   51 1   
    49   28   30 1   
    50   29   30 1   
    51   29   46 1   
    52   29   47 1   
    53   29   52 1   
    54   30   48 1   
    55   30   53 1   
@<TRIPOS>SUBSTRUCTURE
     1 LP9         1 TEMP              0 ****  ****    0 ROOT
