@<TRIPOS>MOLECULE
LP9
   53    55     1     0     0
SMALL
bcc


@<TRIPOS>ATOM
      1 C          -0.2020    0.0500    0.0940 ca        1 LP9     -0.084000
      2 N           1.3730   -0.0430    2.4490 nb        1 LP9     -0.668000
      3 O          -2.9170    0.0590    0.3060 oh        1 LP9     -0.489100
      4 C1          1.1830    0.0570    0.0310 ca        1 LP9     -0.034200
      5 C2          1.9310    0.0100    1.2460 ca        1 LP9      0.453200
      6 C3         -0.0060   -0.0520    2.5320 ca        1 LP9      0.537200
      7 C4         -0.8200    0.0010    1.3590 ca        1 LP9     -0.242100
      8 N5         -0.6300   -0.2100    3.7940 n         1 LP9     -0.300800
      9 C6         -2.0510   -0.0250    3.9540 c         1 LP9      0.730700
     10 C7         -2.8630   -0.0050    2.7350 cc        1 LP9     -0.370400
     11 C8         -2.2640    0.0140    1.4920 cd        1 LP9      0.331900
     12 C9         -4.3160    0.0210    2.8760 c         1 LP9      0.673300
     13 O10        -5.1420    0.0710    1.9450 o         1 LP9     -0.610000
     14 O11        -2.4890    0.0290    5.1080 o         1 LP9     -0.550500
     15 O12         0.0780    0.1260    4.8670 oh        1 LP9     -0.369100
     16 O13         1.9460    0.0990   -1.1230 os        1 LP9     -0.233200
     17 C14         1.2290    0.1920   -2.3210 ca        1 LP9      0.005100
     18 C15         0.9500    1.4520   -2.8620 ca        1 LP9     -0.083500
     19 C16         0.3700    1.5460   -4.1180 ca        1 LP9     -0.199000
     20 C17         0.0480    0.3820   -4.8670 ca        1 LP9      0.207600
     21 C18         0.3410   -0.8800   -4.2870 ca        1 LP9     -0.199000
     22 C19         0.9270   -0.9730   -3.0320 ca        1 LP9     -0.083500
     23 N20        -0.4980    0.4910   -6.1440 nh        1 LP9     -0.692000
     24 C21        -1.2590    1.6650   -6.5120 c3        1 LP9      0.217800
     25 C22        -0.4800    2.6860   -7.3310 c3        1 LP9     -0.120600
     26 C23        -0.6320   -0.6630   -6.9980 c3        1 LP9      0.217800
     27 C24        -1.8810   -1.5100   -6.7930 c3        1 LP9     -0.120600
     28 O25        -4.7900   -0.0240    4.1480 os        1 LP9     -0.385900
     29 C26        -6.4870   -0.0470    5.7790 c3        1 LP9     -0.100100
     30 C27        -6.2260    0.0050    4.2940 c3        1 LP9      0.139400
     31 H          -0.8210    0.0840   -0.8180 ha        1 LP9      0.178000
     32 H2          3.0380    0.0170    1.2150 h4        1 LP9      0.050100
     33 HO12        0.4090   -0.7170    5.2430 ho        1 LP9      0.425000
     34 H15         1.2030    2.3610   -2.2960 ha        1 LP9      0.146000
     35 H16         0.1820    2.5470   -4.5370 ha        1 LP9      0.140500
     36 H18         0.1020   -1.8120   -4.8220 ha        1 LP9      0.140500
     37 H19         1.1590   -1.9570   -2.5980 ha        1 LP9      0.146000
     38 H21        -2.1550    1.3340   -7.1150 h1        1 LP9      0.048950
     39 H21A       -1.6550    2.1690   -5.5830 h1        1 LP9      0.048950
     40 H22        -0.1100    2.2360   -8.2830 hc        1 LP9      0.042700
     41 H22A        0.3970    3.0760   -6.7620 hc        1 LP9      0.042700
     42 H22B       -1.1570    3.5390   -7.5770 hc        1 LP9      0.042700
     43 H23         0.2800   -1.3140   -6.8680 h1        1 LP9      0.048950
     44 H24        -2.8060   -0.9130   -6.9790 hc        1 LP9      0.042700
     45 H24A       -1.9300   -1.9170   -5.7550 hc        1 LP9      0.042700
     46 H26        -7.5890   -0.0160    5.9540 hc        1 LP9      0.051367
     47 H26A       -6.0710   -0.9850    6.2180 hc        1 LP9      0.051367
     48 H27        -6.6580   -0.8780    3.7560 h1        1 LP9      0.051200
     49 H20        -3.8870    0.0730    0.4350 ho        1 LP9      0.484000
     50 H211       -0.6260   -0.2880   -8.0630 h1        1 LP9      0.048950
     51 H221       -1.8590   -2.3640   -7.5120 hc        1 LP9      0.042700
     52 H231       -6.0070    0.8200    6.2920 hc        1 LP9      0.051367
     53 H241       -6.6150    0.9470    3.8280 h1        1 LP9      0.051200
@<TRIPOS>BOND
     1    1    4 ar  
     2    1    7 ar  
     3    1   31 1   
     4    2    5 ar  
     5    2    6 ar  
     6    3   11 1   
     7    3   49 1   
     8    4    5 ar  
     9    4   16 1   
    10    5   32 1   
    11    6    7 ar  
    12    6    8 1   
    13    7   11 1   
    14    8    9 1   
    15    8   15 1   
    16    9   10 1   
    17    9   14 2   
    18   10   11 2   
    19   10   12 1   
    20   12   13 2   
    21   12   28 1   
    22   15   33 1   
    23   16   17 1   
    24   17   18 ar  
    25   17   22 ar  
    26   18   19 ar  
    27   18   34 1   
    28   19   20 ar  
    29   19   35 1   
    30   20   21 ar  
    31   20   23 1   
    32   21   22 ar  
    33   21   36 1   
    34   22   37 1   
    35   23   24 1   
    36   23   26 1   
    37   24   25 1   
    38   24   38 1   
    39   24   39 1   
    40   25   40 1   
    41   25   41 1   
    42   25   42 1   
    43   26   27 1   
    44   26   43 1   
    45   26   50 1   
    46   27   44 1   
    47   27   45 1   
    48   27   51 1   
    49   28   30 1   
    50   29   30 1   
    51   29   46 1   
    52   29   47 1   
    53   29   52 1   
    54   30   48 1   
    55   30   53 1   
@<TRIPOS>SUBSTRUCTURE
     1 LP9         1 TEMP              0 ****  ****    0 ROOT
