@<TRIPOS>MOLECULE
LPA
   25    24     1     0     0
SMALL
bcc


@<TRIPOS>ATOM
      1 C1          1.9580   -2.3020   -3.3990 c1        1 LPA      0.328000
      2 O1          3.2170   -2.3020   -3.3990 o         1 LPA     -0.586500
      3 C2          1.2020   -2.3020   -2.0890 c2        1 LPA     -0.224000
      4 O2          1.3290   -2.3020   -4.4900 o         1 LPA     -0.586500
      5 C3          0.9470   -0.8760   -1.6540 c3        1 LPA     -0.146000
      6 C4          0.2100   -0.8760   -0.3330 c3        1 LPA     -0.161000
      7 C5         -0.0570    0.5500    0.0960 c3        1 LPA     -0.148000
      8 C6         -0.7430    0.5500    1.3320 c3        1 LPA     -0.201000
      9 S6          0.2290    0.3230    2.4660 ss        1 LPA      0.013000
     10 C7         -1.5480    2.2660    1.6420 c3        1 LPA     -0.165000
     11 C8         -1.7600    2.3920    3.1700 c3        1 LPA     -0.260000
     12 S8         -0.4870    1.3500    3.9170 ss        1 LPA     -0.057000
     13 H2          1.7300   -2.7610   -1.4090 ha        1 LPA      0.060500
     14 H2A         0.3500   -2.7640   -2.2060 ha        1 LPA      0.060500
     15 H3          0.4060   -0.4220   -2.3280 hc        1 LPA      0.086000
     16 H3A         1.7990   -0.4100   -1.5520 hc        1 LPA      0.086000
     17 H4         -0.6380   -1.3500   -0.4330 hc        1 LPA      0.075500
     18 H4A         0.7540   -1.3220    0.3430 hc        1 LPA      0.075500
     19 H5         -0.6030    0.9960   -0.5790 hc        1 LPA      0.094000
     20 H5A         0.7900    1.0250    0.1930 hc        1 LPA      0.094000
     21 H6         -1.4270   -0.1450    1.3350 h1        1 LPA      0.120000
     22 H7         -0.9550    2.9750    1.3280 hc        1 LPA      0.108000
     23 H7A        -2.4070    2.3200    1.1810 hc        1 LPA      0.108000
     24 H8         -2.6480    2.0690    3.4160 h1        1 LPA      0.113000
     25 H8A        -1.6460    3.3190    3.4520 h1        1 LPA      0.113000
@<TRIPOS>BOND
     1    1    2 1   
     2    1    4 1   
     3    3    5 1   
     4    3   13 1   
     5    3   14 1   
     6    5    6 1   
     7    5   15 1   
     8    5   16 1   
     9    6    7 1   
    10    6   17 1   
    11    6   18 1   
    12    7    8 1   
    13    7   19 1   
    14    7   20 1   
    15    8    9 1   
    16    8   10 1   
    17    8   21 1   
    18    9   12 1   
    19   10   11 1   
    20   10   22 1   
    21   10   23 1   
    22   11   12 1   
    23   11   24 1   
    24   11   25 1   
@<TRIPOS>SUBSTRUCTURE
     1 LPA         1 TEMP              0 ****  ****    0 ROOT
