@<TRIPOS>MOLECULE
LPA
   25    25     1     0     0
SMALL
bcc


@<TRIPOS>ATOM
      1 C1          0.0170   -0.3550    0.0070 c         1 LPA      0.908600
      2 O1          1.1170    0.2240   -0.2170 o         1 LPA     -0.851800
      3 C2         -0.7390    0.0200    1.2960 c3        1 LPA     -0.195400
      4 O2         -0.4850   -1.2350   -0.7520 o         1 LPA     -0.851800
      5 C3         -2.2240    0.1260    1.0470 c3        1 LPA     -0.067400
      6 C4         -3.0160    0.1740    2.3370 c3        1 LPA     -0.082400
      7 C5         -4.5040    0.1990    2.0560 c3        1 LPA     -0.069400
      8 C6         -5.3220    0.1610    3.3290 c3        1 LPA      0.020400
      9 S6         -5.0810    1.6950    4.2190 ss        1 LPA     -0.169100
     10 C7         -6.7980   -0.0290    3.0420 c3        1 LPA     -0.086400
     11 C8         -7.6460    0.2720    4.2540 c3        1 LPA      0.000700
     12 S8         -7.0680    1.7250    5.0890 ss        1 LPA     -0.239100
     13 H2         -0.5310   -0.7780    2.0530 hc        1 LPA      0.021200
     14 H2A        -0.3390    0.9850    1.6940 hc        1 LPA      0.021200
     15 H3         -2.5450   -0.7600    0.4340 hc        1 LPA      0.046700
     16 H3A        -2.4390    1.0440    0.4410 hc        1 LPA      0.046700
     17 H4         -2.7340    1.0860    2.9310 hc        1 LPA      0.036200
     18 H4A        -2.7650   -0.7210    2.9640 hc        1 LPA      0.036200
     19 H5         -4.7620    1.1170    1.4640 hc        1 LPA      0.054700
     20 H5A        -4.7790   -0.6910    1.4280 hc        1 LPA      0.054700
     21 H6         -4.9540   -0.6710    3.9860 h1        1 LPA      0.080700
     22 H7         -6.9740   -1.0890    2.7140 hc        1 LPA      0.068700
     23 H7A        -7.1010    0.6360    2.1890 hc        1 LPA      0.068700
     24 H8         -8.7060    0.4600    3.9570 h1        1 LPA      0.073700
     25 H8A        -7.6280   -0.5850    4.9700 h1        1 LPA      0.073700
@<TRIPOS>BOND
     1    1    2 1   
     2    1    3 1   
     3    1    4 1   
     4    3    5 1   
     5    3   13 1   
     6    3   14 1   
     7    5    6 1   
     8    5   15 1   
     9    5   16 1   
    10    6    7 1   
    11    6   17 1   
    12    6   18 1   
    13    7    8 1   
    14    7   19 1   
    15    7   20 1   
    16    8    9 1   
    17    8   10 1   
    18    8   21 1   
    19    9   12 1   
    20   10   11 1   
    21   10   22 1   
    22   10   23 1   
    23   11   12 1   
    24   11   24 1   
    25   11   25 1   
@<TRIPOS>SUBSTRUCTURE
     1 LPA         1 TEMP              0 ****  ****    0 ROOT
