@<TRIPOS>MOLECULE
LPA
   25    25     1     0     0
SMALL
bcc


@<TRIPOS>ATOM
      1 C1          0.0090   -0.3870    0.0010 c         1 LPA      0.908600
      2 O1          1.1300    0.1630   -0.1940 o         1 LPA     -0.851800
      3 C2         -0.7400   -0.0420    1.3020 c3        1 LPA     -0.195400
      4 O2         -0.5190   -1.2140   -0.7980 o         1 LPA     -0.851800
      5 C3         -2.2190    0.1240    1.0550 c3        1 LPA     -0.067400
      6 C4         -3.0140    0.1430    2.3430 c3        1 LPA     -0.082400
      7 C5         -4.5000    0.2310    2.0580 c3        1 LPA     -0.069400
      8 C6         -5.3240    0.1630    3.3260 c3        1 LPA      0.020400
      9 S6         -5.0400    1.6490    4.2830 ss        1 LPA     -0.169100
     10 C7         -6.8040    0.0320    3.0250 c3        1 LPA     -0.086400
     11 C8         -7.6480    0.3070    4.2460 c3        1 LPA      0.000700
     12 S8         -7.0290    1.7030    5.1460 ss        1 LPA     -0.239100
     13 H2         -0.3080    0.8890    1.7440 hc        1 LPA      0.021200
     14 H2A        -0.5620   -0.8790    2.0250 hc        1 LPA      0.021200
     15 H3         -2.5670   -0.7220    0.4010 hc        1 LPA      0.046700
     16 H3A        -2.4000    1.0750    0.4890 hc        1 LPA      0.046700
     17 H4         -2.7960   -0.7870    2.9310 hc        1 LPA      0.036200
     18 H4A        -2.7040    1.0170    2.9770 hc        1 LPA      0.036200
     19 H5         -4.7240    1.1820    1.5070 hc        1 LPA      0.054700
     20 H5A        -4.8010   -0.6210    1.3900 hc        1 LPA      0.054700
     21 H6         -4.9850   -0.7080    3.9470 h1        1 LPA      0.080700
     22 H7         -7.0830    0.7430    2.2010 hc        1 LPA      0.068700
     23 H7A        -7.0120   -1.0070    2.6510 hc        1 LPA      0.068700
     24 H8         -7.6610   -0.5810    4.9240 h1        1 LPA      0.073700
     25 H8A        -8.7010    0.5400    3.9540 h1        1 LPA      0.073700
@<TRIPOS>BOND
     1    1    2 1   
     2    1    3 1   
     3    1    4 1   
     4    3    5 1   
     5    3   13 1   
     6    3   14 1   
     7    5    6 1   
     8    5   15 1   
     9    5   16 1   
    10    6    7 1   
    11    6   17 1   
    12    6   18 1   
    13    7    8 1   
    14    7   19 1   
    15    7   20 1   
    16    8    9 1   
    17    8   10 1   
    18    8   21 1   
    19    9   12 1   
    20   10   11 1   
    21   10   22 1   
    22   10   23 1   
    23   11   12 1   
    24   11   24 1   
    25   11   25 1   
@<TRIPOS>SUBSTRUCTURE
     1 LPA         1 TEMP              0 ****  ****    0 ROOT
