@<TRIPOS>MOLECULE
LPA
   25    25     1     0     0
SMALL
bcc


@<TRIPOS>ATOM
      1 C1          4.6540   -0.1420    0.1110 c         1 LPA      0.908600
      2 O1          5.5950    0.6610   -0.1490 o         1 LPA     -0.851800
      3 C2          3.2860    0.4560    0.4880 c3        1 LPA     -0.195400
      4 O2          4.7790   -1.4020    0.0980 o         1 LPA     -0.851800
      5 C3          2.1570   -0.3180   -0.1480 c3        1 LPA     -0.067400
      6 C4          0.8130    0.0390    0.4510 c3        1 LPA     -0.082400
      7 C5         -0.2880   -0.8100   -0.1510 c3        1 LPA     -0.069400
      8 C6         -1.6310   -0.5340    0.4920 c3        1 LPA      0.020400
      9 S6         -2.1520    1.1220    0.0590 ss        1 LPA     -0.169100
     10 C7         -2.6830   -1.5290    0.0410 c3        1 LPA     -0.086400
     11 C8         -4.0750   -1.0670    0.3960 c3        1 LPA      0.000700
     12 S8         -4.2720    0.6650    0.0750 ss        1 LPA     -0.239100
     13 H2          3.1980    0.4180    1.6040 hc        1 LPA      0.021200
     14 H2A         3.2510    1.5290    0.1770 hc        1 LPA      0.021200
     15 H3          2.1400   -0.1180   -1.2510 hc        1 LPA      0.046700
     16 H3A         2.3590   -1.4150   -0.0130 hc        1 LPA      0.046700
     17 H4          0.8460   -0.1170    1.5620 hc        1 LPA      0.036200
     18 H4A         0.5860    1.1250    0.2740 hc        1 LPA      0.036200
     19 H5         -0.3480   -0.6230   -1.2550 hc        1 LPA      0.054700
     20 H5A        -0.0400   -1.8960   -0.0090 hc        1 LPA      0.054700
     21 H6         -1.5260   -0.5740    1.6080 h1        1 LPA      0.080700
     22 H7         -2.6020   -1.6790   -1.0700 hc        1 LPA      0.068700
     23 H7A        -2.4800   -2.5220    0.5260 hc        1 LPA      0.068700
     24 H8         -4.8380   -1.6070   -0.2160 h1        1 LPA      0.073700
     25 H8A        -4.2900   -1.2600    1.4750 h1        1 LPA      0.073700
@<TRIPOS>BOND
     1    1    2 1   
     2    1    3 1   
     3    1    4 1   
     4    3    5 1   
     5    3   13 1   
     6    3   14 1   
     7    5    6 1   
     8    5   15 1   
     9    5   16 1   
    10    6    7 1   
    11    6   17 1   
    12    6   18 1   
    13    7    8 1   
    14    7   19 1   
    15    7   20 1   
    16    8    9 1   
    17    8   10 1   
    18    8   21 1   
    19    9   12 1   
    20   10   11 1   
    21   10   22 1   
    22   10   23 1   
    23   11   12 1   
    24   11   24 1   
    25   11   25 1   
@<TRIPOS>SUBSTRUCTURE
     1 LPA         1 TEMP              0 ****  ****    0 ROOT
