@<TRIPOS>MOLECULE
LPB
   25    25     1     0     0
SMALL
bcc


@<TRIPOS>ATOM
      1 O1          4.6680    1.3930   -0.1550 o         1 LPB     -0.851800
      2 O2          5.5030   -0.6530   -0.4670 o         1 LPB     -0.851800
      3 C1          4.5710    0.1320   -0.1280 c         1 LPB      0.908600
      4 C2          3.2550   -0.4940    0.3700 c3        1 LPB     -0.195400
      5 C3          2.0570    0.2520   -0.1640 c3        1 LPB     -0.066400
      6 C4          0.7820   -0.1210    0.5660 c3        1 LPB     -0.081400
      7 C5         -0.3860    0.7060    0.0680 c3        1 LPB     -0.076400
      8 C6         -1.6470    0.4560    0.8670 c3        1 LPB      0.024400
      9 C7         -2.6980    1.5270    0.6400 c3        1 LPB     -0.083400
     10 C8         -3.4920    1.2800   -0.6210 c3        1 LPB     -0.002300
     11 S8         -3.9830   -0.4180   -0.7180 ss        1 LPB     -0.225100
     12 S6         -2.3630   -1.1490    0.5240 ss        1 LPB     -0.189100
     13 H21         3.2150   -1.5690    0.0650 hc        1 LPB      0.021200
     14 H22         3.2660   -0.4550    1.4890 hc        1 LPB      0.021200
     15 H31         2.2500    1.3550   -0.0590 hc        1 LPB      0.045700
     16 H32         1.9370    0.0390   -1.2580 hc        1 LPB      0.045700
     17 H41         0.5610   -1.2110    0.4210 hc        1 LPB      0.034700
     18 H42         0.9210    0.0490    1.6660 hc        1 LPB      0.034700
     19 H51        -0.1170    1.7950    0.1430 hc        1 LPB      0.051700
     20 H52        -0.5700    0.4840   -1.0160 hc        1 LPB      0.051700
     21 H6         -1.3850    0.4180    1.9600 h1        1 LPB      0.095700
     22 H71        -3.3950    1.5540    1.5210 hc        1 LPB      0.065200
     23 H72        -2.2020    2.5330    0.5770 hc        1 LPB      0.065200
     24 H81        -4.4250    1.8940   -0.6290 h1        1 LPB      0.079200
     25 H82        -2.8850    1.5430   -1.5220 h1        1 LPB      0.079200
@<TRIPOS>BOND
     1    1    3 1   
     2    2    3 1   
     3    3    4 1   
     4    4    5 1   
     5    4   13 1   
     6    4   14 1   
     7    5    6 1   
     8    5   15 1   
     9    5   16 1   
    10    6    7 1   
    11    6   17 1   
    12    6   18 1   
    13    7    8 1   
    14    7   19 1   
    15    7   20 1   
    16    8    9 1   
    17    8   12 1   
    18    8   21 1   
    19    9   10 1   
    20    9   22 1   
    21    9   23 1   
    22   10   11 1   
    23   10   24 1   
    24   10   25 1   
    25   11   12 1   
@<TRIPOS>SUBSTRUCTURE
     1 LPB         1 TEMP              0 ****  ****    0 ROOT
