@<TRIPOS>MOLECULE
LPB
   25    25     1     0     0
SMALL
bcc


@<TRIPOS>ATOM
      1 O1         -3.3080   -2.6350   -2.9650 o         1 LPB     -0.851800
      2 O2         -1.7050   -2.1040   -4.3560 o         1 LPB     -0.851800
      3 C1         -2.1020   -2.3380   -3.1760 c         1 LPB      0.908600
      4 C2         -1.1010   -2.3570   -2.0250 c3        1 LPB     -0.195400
      5 C3         -0.9550   -0.9440   -1.4520 c3        1 LPB     -0.066400
      6 C4          0.0020   -0.9730   -0.2600 c3        1 LPB     -0.081400
      7 C5          0.1650    0.4440    0.3030 c3        1 LPB     -0.076400
      8 C6          1.1290    0.4160    1.4630 c3        1 LPB      0.024400
      9 C7          1.9130    2.0670    1.6740 c3        1 LPB     -0.083400
     10 C8          0.9190    2.9360    2.4490 c3        1 LPB     -0.002300
     11 S8         -0.0100    1.8360    3.3800 ss        1 LPB     -0.225100
     12 S6          0.4200    0.1360    2.6880 ss        1 LPB     -0.189100
     13 H21        -0.2320   -2.6680   -2.3530 hc        1 LPB      0.021200
     14 H22        -1.4200   -2.9590   -1.3270 hc        1 LPB      0.021200
     15 H31        -1.8300   -0.6190   -1.1600 hc        1 LPB      0.045700
     16 H32        -0.5990   -0.3460   -2.1430 hc        1 LPB      0.045700
     17 H41        -0.3580   -1.5570    0.4310 hc        1 LPB      0.034700
     18 H42         0.8710   -1.3090   -0.5500 hc        1 LPB      0.034700
     19 H51         0.5100    1.0330   -0.3930 hc        1 LPB      0.051700
     20 H52        -0.7070    0.7760    0.6100 hc        1 LPB      0.051700
     21 H6          1.8150   -0.2620    1.3120 h1        1 LPB      0.095700
     22 H71         2.7480    1.9800    2.1820 hc        1 LPB      0.065200
     23 H72         2.0930    2.4630    0.8020 hc        1 LPB      0.065200
     24 H81         0.3440    3.4260    1.8300 h1        1 LPB      0.079200
     25 H82         1.3970    3.5570    3.0340 h1        1 LPB      0.079200
@<TRIPOS>BOND
     1    1    3 1   
     2    2    3 1   
     3    3    4 1   
     4    4    5 1   
     5    4   13 1   
     6    4   14 1   
     7    5    6 1   
     8    5   15 1   
     9    5   16 1   
    10    6    7 1   
    11    6   17 1   
    12    6   18 1   
    13    7    8 1   
    14    7   19 1   
    15    7   20 1   
    16    8    9 1   
    17    8   12 1   
    18    8   21 1   
    19    9   10 1   
    20    9   22 1   
    21    9   23 1   
    22   10   11 1   
    23   10   24 1   
    24   10   25 1   
    25   11   12 1   
@<TRIPOS>SUBSTRUCTURE
     1 LPB         1 TEMP              0 ****  ****    0 ROOT
