@<TRIPOS>MOLECULE
LPB
   25    25     1     0     0
SMALL
bcc


@<TRIPOS>ATOM
      1 O1         -0.0860    0.6850    0.1080 o         1 LPB     -0.851800
      2 O2          1.5060   -0.4140   -1.0050 o         1 LPB     -0.851800
      3 C1          1.0350    0.1020    0.0490 c         1 LPB      0.908600
      4 C2          1.8970    0.0330    1.3240 c3        1 LPB     -0.195400
      5 C3          1.0540   -0.2660    2.5390 c3        1 LPB     -0.066400
      6 C4          1.8050   -0.0080    3.8300 c3        1 LPB     -0.081400
      7 C5          0.9070   -0.2330    5.0300 c3        1 LPB     -0.076400
      8 C6          1.5840    0.1460    6.3300 c3        1 LPB      0.024400
      9 C7          0.5980    0.2920    7.4750 c3        1 LPB     -0.083400
     10 C8          0.2450   -1.0420    8.0890 c3        1 LPB     -0.002300
     11 S8          1.7060   -2.0060    8.3510 ss        1 LPB     -0.225100
     12 S6          2.8570   -1.0220    6.8000 ss        1 LPB     -0.189100
     13 H21         2.6900   -0.7440    1.1950 hc        1 LPB      0.021200
     14 H22         2.4030    1.0250    1.4410 hc        1 LPB      0.021200
     15 H31         0.7180   -1.3350    2.5100 hc        1 LPB      0.045700
     16 H32         0.1310    0.3740    2.4970 hc        1 LPB      0.045700
     17 H41         2.1820    1.0490    3.8350 hc        1 LPB      0.034700
     18 H42         2.6990   -0.6820    3.8970 hc        1 LPB      0.034700
     19 H51         0.5860   -1.3070    5.0650 hc        1 LPB      0.051700
     20 H52        -0.0210    0.3890    4.9080 hc        1 LPB      0.051700
     21 H6          2.1330    1.1170    6.1870 h1        1 LPB      0.095700
     22 H71        -0.3380    0.7900    7.1030 hc        1 LPB      0.065200
     23 H72         1.0400    0.9600    8.2620 hc        1 LPB      0.065200
     24 H81        -0.2430   -0.9040    9.0840 h1        1 LPB      0.079200
     25 H82        -0.4560   -1.6040    7.4240 h1        1 LPB      0.079200
@<TRIPOS>BOND
     1    1    3 1   
     2    2    3 1   
     3    3    4 1   
     4    4    5 1   
     5    4   13 1   
     6    4   14 1   
     7    5    6 1   
     8    5   15 1   
     9    5   16 1   
    10    6    7 1   
    11    6   17 1   
    12    6   18 1   
    13    7    8 1   
    14    7   19 1   
    15    7   20 1   
    16    8    9 1   
    17    8   12 1   
    18    8   21 1   
    19    9   10 1   
    20    9   22 1   
    21    9   23 1   
    22   10   11 1   
    23   10   24 1   
    24   10   25 1   
    25   11   12 1   
@<TRIPOS>SUBSTRUCTURE
     1 LPB         1 TEMP              0 ****  ****    0 ROOT
