@<TRIPOS>MOLECULE
LPB
   25    25     1     0     0
SMALL
bcc


@<TRIPOS>ATOM
      1 O1         -0.0700    0.7340    0.1130 o         1 LPB     -0.851800
      2 O2          1.4640   -0.4390   -1.0060 o         1 LPB     -0.851800
      3 C1          1.0230    0.1000    0.0490 c         1 LPB      0.908600
      4 C2          1.8880   -0.0030    1.3190 c3        1 LPB     -0.195400
      5 C3          1.0400   -0.2640    2.5400 c3        1 LPB     -0.066400
      6 C4          1.8070   -0.0360    3.8260 c3        1 LPB     -0.081400
      7 C5          0.9080   -0.2210    5.0310 c3        1 LPB     -0.076400
      8 C6          1.6070    0.1300    6.3270 c3        1 LPB      0.024400
      9 C7          0.6340    0.3180    7.4770 c3        1 LPB     -0.083400
     10 C8          0.2300   -0.9990    8.0950 c3        1 LPB     -0.002300
     11 S8          1.6510   -2.0220    8.3510 ss        1 LPB     -0.225100
     12 S6          2.8330   -1.0880    6.7910 ss        1 LPB     -0.189100
     13 H21         2.6460   -0.8150    1.1880 hc        1 LPB      0.021200
     14 H22         2.4370    0.9660    1.4320 hc        1 LPB      0.021200
     15 H31         0.6570   -1.3170    2.5140 hc        1 LPB      0.045700
     16 H32         0.1450    0.4160    2.5010 hc        1 LPB      0.045700
     17 H41         2.2290    1.0040    3.8280 hc        1 LPB      0.034700
     18 H42         2.6720   -0.7480    3.8890 hc        1 LPB      0.034700
     19 H51         0.0050    0.4390    4.9130 hc        1 LPB      0.051700
     20 H52         0.5410   -1.2800    5.0700 hc        1 LPB      0.051700
     21 H6          2.1950    1.0770    6.1800 h1        1 LPB      0.095700
     22 H71         1.1080    0.9680    8.2610 hc        1 LPB      0.065200
     23 H72        -0.2830    0.8540    7.1100 hc        1 LPB      0.065200
     24 H81        -0.4980   -1.5330    7.4350 h1        1 LPB      0.079200
     25 H82        -0.2470   -0.8400    9.0920 h1        1 LPB      0.079200
@<TRIPOS>BOND
     1    1    3 1   
     2    2    3 1   
     3    3    4 1   
     4    4    5 1   
     5    4   13 1   
     6    4   14 1   
     7    5    6 1   
     8    5   15 1   
     9    5   16 1   
    10    6    7 1   
    11    6   17 1   
    12    6   18 1   
    13    7    8 1   
    14    7   19 1   
    15    7   20 1   
    16    8    9 1   
    17    8   12 1   
    18    8   21 1   
    19    9   10 1   
    20    9   22 1   
    21    9   23 1   
    22   10   11 1   
    23   10   24 1   
    24   10   25 1   
    25   11   12 1   
@<TRIPOS>SUBSTRUCTURE
     1 LPB         1 TEMP              0 ****  ****    0 ROOT
