@<TRIPOS>MOLECULE
LPD
   18    18     1     0     0
SMALL
bcc


@<TRIPOS>ATOM
      1 O           0.9490    0.2580    0.0160 o         1 LPD     -0.616100
      2 C           0.3360    0.0140   -1.0430 c         1 LPD      0.641100
      3 N2         -0.1430    1.0400   -1.8160 n         1 LPD     -0.674000
      4 CA          0.0770   -1.4200   -1.5340 c3        1 LPD      0.096500
      5 N           0.8640   -2.4400   -0.8380 n3        1 LPD     -0.792200
      6 CD         -0.0470   -3.4460   -0.2990 c3        1 LPD      0.148800
      7 CG         -1.5000   -3.0420   -0.5920 c3        1 LPD     -0.096400
      8 CB         -1.4270   -1.7550   -1.4020 c3        1 LPD     -0.092400
      9 HN21        0.0160    1.9770   -1.5410 hn        1 LPD      0.312500
     10 HN22       -0.6120    0.8630   -2.6650 hn        1 LPD      0.312500
     11 HA          0.3880   -1.4790   -2.6190 h1        1 LPD      0.076700
     12 H           1.4160   -2.0230   -0.1080 hn        1 LPD      0.382800
     13 HD3         0.1040   -3.5980    0.8030 h1        1 LPD      0.047200
     14 HD2         0.1950   -4.4170   -0.8140 h1        1 LPD      0.047200
     15 HG3        -2.0620   -2.8810    0.3610 hc        1 LPD      0.050700
     16 HG2        -2.0230   -3.8470   -1.1630 hc        1 LPD      0.050700
     17 HB2        -1.8750   -1.8910   -2.4160 hc        1 LPD      0.051700
     18 HB3        -1.9810   -0.9300   -0.8900 hc        1 LPD      0.051700
@<TRIPOS>BOND
     1    1    2 2   
     2    2    3 1   
     3    2    4 1   
     4    3    9 1   
     5    3   10 1   
     6    4    5 1   
     7    4    8 1   
     8    4   11 1   
     9    5    6 1   
    10    5   12 1   
    11    6    7 1   
    12    6   13 1   
    13    6   14 1   
    14    7    8 1   
    15    7   15 1   
    16    7   16 1   
    17    8   17 1   
    18    8   18 1   
@<TRIPOS>SUBSTRUCTURE
     1 LPD         1 TEMP              0 ****  ****    0 ROOT
