@<TRIPOS>MOLECULE
LPE
   90    89     1     0     0
SMALL
bcc


@<TRIPOS>ATOM
      1 C1          4.6180   -5.8280   -2.7260 c3        1 LPE      0.088400
      2 O1          4.7210   -4.7550   -1.7660 os        1 LPE     -0.435600
      3 C2          4.6550   -7.1610   -1.9950 c3        1 LPE      0.123100
      4 O2H         4.9880   -6.9460   -0.6580 oh        1 LPE     -0.612800
      5 C3          3.2900   -7.8240   -2.0740 c3        1 LPE      0.167400
      6 C11         4.8530   -3.4550   -2.3500 c3        1 LPE      0.130400
      7 C12         4.7270   -2.3990   -1.2630 c3        1 LPE     -0.122400
      8 O3          2.8660   -8.1730   -0.7800 os        1 LPE     -0.579200
      9 P           1.5560   -9.0650   -0.6230 p5        1 LPE      1.434800
     10 O31         0.6710   -8.8670   -1.8140 o         1 LPE     -0.817000
     11 O32         1.9470  -10.5200   -0.5240 o         1 LPE     -0.817000
     12 O33         0.7640   -8.6290    0.7130 os        1 LPE     -0.570200
     13 C31        -0.1980   -9.5230    1.2470 c3        1 LPE      0.196400
     14 C32        -0.8150   -8.9180    2.5030 c3        1 LPE      0.092800
     15 N          -1.9610   -9.7120    2.9110 n4        1 LPE     -0.580800
     16 C1N        -2.6310   -9.0620    4.0060 c3        1 LPE      0.078100
     17 C2N        -1.5230  -11.0000    3.3220 c3        1 LPE      0.078100
     18 C3N        -2.8580   -9.8430    1.8190 c3        1 LPE      0.078100
     19 C13         4.2970   -1.0660   -1.8910 c3        1 LPE     -0.075400
     20 C14         3.7870   -0.1100   -0.7810 c3        1 LPE     -0.079400
     21 C15         3.0560    1.0540   -1.4160 c3        1 LPE     -0.079400
     22 C16         2.4730    1.9530   -0.3160 c3        1 LPE     -0.079400
     23 C17         1.4550    2.9310   -0.9360 c3        1 LPE     -0.079400
     24 C18         0.9190    3.8780    0.1590 c3        1 LPE     -0.079400
     25 C19        -0.3370    4.6100   -0.3600 c3        1 LPE     -0.079400
     26 C20        -0.6420    5.8030    0.5530 c3        1 LPE     -0.079400
     27 C21        -1.9530    6.4480    0.1310 c3        1 LPE     -0.079400
     28 C22        -2.0330    7.8630    0.7140 c3        1 LPE     -0.079400
     29 C23        -3.3050    8.5440    0.2250 c3        1 LPE     -0.079400
     30 C24        -3.2160   10.0870    0.5080 c3        1 LPE     -0.078400
     31 C25        -4.5070   10.7620    0.0530 c3        1 LPE     -0.079400
     32 C26        -4.3160   12.3070    0.0530 c3        1 LPE     -0.079400
     33 C27        -5.6190   12.9820   -0.4010 c3        1 LPE     -0.080400
     34 C28        -5.4130   14.4820   -0.4840 c3        1 LPE     -0.092100
     35 H11         5.3640   -5.7790   -3.3490 h1        1 LPE      0.051700
     36 H12         3.7870   -5.7490   -3.2110 h1        1 LPE      0.051700
     37 H21         5.3330   -7.7490   -2.4130 h1        1 LPE      0.066700
     38 HO21        5.8150   -7.2260   -0.5100 ho        1 LPE      0.407000
     39 H31         2.6400   -7.1960   -2.4760 h1        1 LPE      0.053700
     40 H32         3.3510   -8.6410   -2.6330 h1        1 LPE      0.053700
     41 H111        4.1510   -3.3240   -3.0130 h1        1 LPE      0.046700
     42 H112        5.7240   -3.3780   -2.7800 h1        1 LPE      0.046700
     43 H121        5.5800   -2.2870   -0.8220 hc        1 LPE      0.053700
     44 H122        4.0600   -2.6810   -0.6130 hc        1 LPE      0.053700
     45 H311       -0.9010   -9.6820    0.5820 h1        1 LPE      0.058200
     46 H312        0.2350  -10.3720    1.4720 h1        1 LPE      0.058200
     47 H321       -0.1470   -8.9120    3.2250 hx        1 LPE      0.079700
     48 H322       -1.1030   -8.0010    2.3160 hx        1 LPE      0.079700
     49 H1N1       -3.3850   -9.6180    4.3050 hx        1 LPE      0.099811
     50 H1N2       -1.9950   -8.9370    4.7540 hx        1 LPE      0.099811
     51 H1N3       -2.9670   -8.1850    3.7110 hx        1 LPE      0.099811
     52 H2N1       -0.7140  -10.9120    3.8580 hx        1 LPE      0.099811
     53 H2N2       -1.3320  -11.5500    2.5290 hx        1 LPE      0.099811
     54 H2N3       -2.2250  -11.4300    3.8570 hx        1 LPE      0.099811
     55 H3N1       -2.5550  -10.5760    1.2310 hx        1 LPE      0.099811
     56 H3N2       -3.7540  -10.0450    2.1560 hx        1 LPE      0.099811
     57 H3N3       -2.8800   -9.0110    1.3160 hx        1 LPE      0.099811
     58 H131        3.5760   -1.2280   -2.5410 hc        1 LPE      0.039200
     59 H132        5.0700   -0.6550   -2.3510 hc        1 LPE      0.039200
     60 H141        3.1770   -0.5940   -0.1860 hc        1 LPE      0.042200
     61 H142        4.5400    0.2220   -0.2700 hc        1 LPE      0.042200
     62 H151        2.3350    0.7170   -1.9750 hc        1 LPE      0.039200
     63 H152        3.6760    1.5680   -1.9620 hc        1 LPE      0.039200
     64 H161        2.0280    1.4000    0.3540 hc        1 LPE      0.039700
     65 H162        3.1940    2.4590    0.1050 hc        1 LPE      0.039700
     66 H171        0.7140    2.4270   -1.3220 hc        1 LPE      0.039200
     67 H172        1.8930    3.4580   -1.6390 hc        1 LPE      0.039200
     68 H181        0.6890    3.3610    0.9530 hc        1 LPE      0.039200
     69 H182        1.6080    4.5360    0.3870 hc        1 LPE      0.039200
     70 H191       -1.0920    3.9980   -0.3580 hc        1 LPE      0.039700
     71 H192       -0.1770    4.9260   -1.2660 hc        1 LPE      0.039700
     72 H201       -0.7150    5.4930    1.4830 hc        1 LPE      0.039200
     73 H202        0.0820    6.4590    0.4830 hc        1 LPE      0.039200
     74 H211       -2.7060    5.9110    0.4660 hc        1 LPE      0.039700
     75 H212       -1.9940    6.4950   -0.8460 hc        1 LPE      0.039700
     76 H221       -2.0460    7.8120    1.6910 hc        1 LPE      0.039700
     77 H222       -1.2560    8.3780    0.4250 hc        1 LPE      0.039700
     78 H231       -4.0840    8.1660    0.7000 hc        1 LPE      0.039700
     79 H232       -3.4060    8.3930   -0.7460 hc        1 LPE      0.039700
     80 H241       -2.4640   10.4640    0.0200 hc        1 LPE      0.039700
     81 H242       -3.0910   10.2370    1.4690 hc        1 LPE      0.039700
     82 H251       -5.2290   10.5250    0.6620 hc        1 LPE      0.039700
     83 H252       -4.7310   10.4610   -0.8510 hc        1 LPE      0.039700
     84 H261       -4.0870   12.6110    0.9650 hc        1 LPE      0.039700
     85 H262       -3.5910   12.5470   -0.5620 hc        1 LPE      0.039700
     86 H271       -5.8740   12.6400   -1.2780 hc        1 LPE      0.038700
     87 H272       -6.3290   12.7870    0.2440 hc        1 LPE      0.038700
     88 H281       -6.2560   14.9150   -0.7460 hc        1 LPE      0.032367
     89 H282       -4.7210   14.6820   -1.1520 hc        1 LPE      0.032367
     90 H283       -5.1290   14.8240    0.3950 hc        1 LPE      0.032367
@<TRIPOS>BOND
     1    1    2 1   
     2    1    3 1   
     3    1   35 1   
     4    1   36 1   
     5    2    6 1   
     6    3    4 1   
     7    3    5 1   
     8    3   37 1   
     9    4   38 1   
    10    5    8 1   
    11    5   39 1   
    12    5   40 1   
    13    6    7 1   
    14    6   41 1   
    15    6   42 1   
    16    7   19 1   
    17    7   43 1   
    18    7   44 1   
    19    8    9 1   
    20    9   10 1   
    21    9   11 1   
    22    9   12 1   
    23   12   13 1   
    24   13   14 1   
    25   13   45 1   
    26   13   46 1   
    27   14   15 1   
    28   14   47 1   
    29   14   48 1   
    30   15   16 1   
    31   15   17 1   
    32   15   18 1   
    33   16   49 1   
    34   16   50 1   
    35   16   51 1   
    36   17   52 1   
    37   17   53 1   
    38   17   54 1   
    39   18   55 1   
    40   18   56 1   
    41   18   57 1   
    42   19   20 1   
    43   19   58 1   
    44   19   59 1   
    45   20   21 1   
    46   20   60 1   
    47   20   61 1   
    48   21   22 1   
    49   21   62 1   
    50   21   63 1   
    51   22   23 1   
    52   22   64 1   
    53   22   65 1   
    54   23   24 1   
    55   23   66 1   
    56   23   67 1   
    57   24   25 1   
    58   24   68 1   
    59   24   69 1   
    60   25   26 1   
    61   25   70 1   
    62   25   71 1   
    63   26   27 1   
    64   26   72 1   
    65   26   73 1   
    66   27   28 1   
    67   27   74 1   
    68   27   75 1   
    69   28   29 1   
    70   28   76 1   
    71   28   77 1   
    72   29   30 1   
    73   29   78 1   
    74   29   79 1   
    75   30   31 1   
    76   30   80 1   
    77   30   81 1   
    78   31   32 1   
    79   31   82 1   
    80   31   83 1   
    81   32   33 1   
    82   32   84 1   
    83   32   85 1   
    84   33   34 1   
    85   33   86 1   
    86   33   87 1   
    87   34   88 1   
    88   34   89 1   
    89   34   90 1   
@<TRIPOS>SUBSTRUCTURE
     1 LPE         1 TEMP              0 ****  ****    0 ROOT
