@<TRIPOS>MOLECULE
LPE
   90    89     1     0     0
SMALL
bcc


@<TRIPOS>ATOM
      1 C1          0.0590   -0.2160    0.7120 c3        1 LPE      0.130400
      2 O1         -0.4680    0.9740    1.2910 os        1 LPE     -0.419600
      3 C2          1.5820   -0.0950    0.7670 c3        1 LPE      0.130100
      4 O2H         2.0040   -0.6180    2.0240 oh        1 LPE     -0.631800
      5 C3          2.2270   -0.8890   -0.3770 c3        1 LPE      0.141400
      6 C11        -1.8940    0.9980    1.2640 c3        1 LPE      0.131400
      7 C12        -2.3180    2.3090    1.9010 c3        1 LPE     -0.083400
      8 O3          3.4710   -1.3590    0.0610 os        1 LPE     -0.603200
      9 P           4.2970   -2.2030   -1.1050 p5        1 LPE      1.419800
     10 O31         3.5060   -2.1490   -2.3370 o         1 LPE     -0.791500
     11 O32         5.7220   -1.9760   -0.8340 o         1 LPE     -0.791500
     12 O33         3.9660   -3.6750   -0.3630 os        1 LPE     -0.577200
     13 C31         4.9160   -4.1340    0.5290 c3        1 LPE      0.185400
     14 C32         4.2490   -4.9160    1.6750 c3        1 LPE      0.095800
     15 N           3.2110   -4.1790    2.4820 n4        1 LPE     -0.581800
     16 C1N         3.7880   -2.9270    3.0520 c3        1 LPE      0.084767
     17 C2N         2.0110   -3.8520    1.6460 c3        1 LPE      0.084767
     18 C3N         2.7940   -5.0660    3.6080 c3        1 LPE      0.084767
     19 C13        -3.8260    2.4250    1.9190 c3        1 LPE     -0.078400
     20 C14        -4.2650    3.7250    2.5570 c3        1 LPE     -0.078400
     21 C15        -5.7740    3.8450    2.5770 c3        1 LPE     -0.079400
     22 C16        -6.2130    5.1430    3.2190 c3        1 LPE     -0.079400
     23 C17        -7.7220    5.2640    3.2400 c3        1 LPE     -0.078400
     24 C18        -8.1610    6.5600    3.8860 c3        1 LPE     -0.079400
     25 C19        -9.6690    6.6810    3.9060 c3        1 LPE     -0.079400
     26 C20       -10.1080    7.9760    4.5570 c3        1 LPE     -0.079400
     27 C21       -11.6170    8.0970    4.5770 c3        1 LPE     -0.079400
     28 C22       -12.0550    9.3890    5.2310 c3        1 LPE     -0.079400
     29 C23       -13.5640    9.5110    5.2510 c3        1 LPE     -0.079400
     30 C24       -14.0020   10.8030    5.9080 c3        1 LPE     -0.079400
     31 C25       -15.5110   10.9240    5.9280 c3        1 LPE     -0.079400
     32 C26       -15.9490   12.2150    6.5850 c3        1 LPE     -0.079400
     33 C27       -17.4580   12.3390    6.6060 c3        1 LPE     -0.080400
     34 C28       -17.8990   13.6220    7.2600 c3        1 LPE     -0.092100
     35 H11        -0.2820   -0.3030   -0.3540 h1        1 LPE      0.035200
     36 H12        -0.2880   -1.1090    1.2950 h1        1 LPE      0.035200
     37 H21         1.8800    0.9890    0.7040 h1        1 LPE      0.065700
     38 HO21        2.9640   -0.5020    2.0400 ho        1 LPE      0.419000
     39 H31         1.5970   -1.7730   -0.6720 h1        1 LPE      0.045700
     40 H32         2.3700   -0.2420   -1.2830 h1        1 LPE      0.045700
     41 H111       -2.2530    0.9310    0.2020 h1        1 LPE      0.023700
     42 H112       -2.2970    0.1220    1.8390 h1        1 LPE      0.023700
     43 H121       -1.8700    3.1610    1.3270 hc        1 LPE      0.056200
     44 H122       -1.9120    2.3620    2.9440 hc        1 LPE      0.056200
     45 H311        5.5930   -4.8890    0.0290 h1        1 LPE      0.064700
     46 H312        5.5440   -3.2850    0.9230 h1        1 LPE      0.064700
     47 H321        5.0560   -5.2430    2.3890 hx        1 LPE      0.077700
     48 H322        3.7370   -5.8200    1.2420 hx        1 LPE      0.077700
     49 H1N1        4.6560   -3.1850    3.7110 hx        1 LPE      0.099478
     50 H1N2        4.1290   -2.2580    2.2130 hx        1 LPE      0.099478
     51 H1N3        2.9940   -2.3890    3.6360 hx        1 LPE      0.099478
     52 H2N1        1.0760   -4.0800    2.2180 hx        1 LPE      0.099478
     53 H2N2        2.0420   -4.4440    0.6900 hx        1 LPE      0.099478
     54 H2N3        2.0250   -2.7540    1.3780 hx        1 LPE      0.099478
     55 H3N1        2.3340   -6.0000    3.1920 hx        1 LPE      0.099478
     56 H3N2        2.0460   -4.5290    4.2490 hx        1 LPE      0.099478
     57 H3N3        3.6890   -5.3330    4.2290 hx        1 LPE      0.099478
     58 H131       -4.2650    1.5610    2.4860 hc        1 LPE      0.039200
     59 H132       -4.2220    2.3680    0.8700 hc        1 LPE      0.039200
     60 H141       -3.8690    3.7820    3.6050 hc        1 LPE      0.041700
     61 H142       -3.8260    4.5880    1.9900 hc        1 LPE      0.041700
     62 H151       -6.2130    2.9800    3.1400 hc        1 LPE      0.038700
     63 H152       -6.1700    3.7920    1.5280 hc        1 LPE      0.038700
     64 H161       -5.7740    6.0090    2.6560 hc        1 LPE      0.040200
     65 H162       -5.8170    5.1970    4.2680 hc        1 LPE      0.040200
     66 H171       -8.1610    4.3970    3.8010 hc        1 LPE      0.039200
     67 H172       -8.1170    5.2130    2.1910 hc        1 LPE      0.039200
     68 H181       -7.7210    7.4270    3.3250 hc        1 LPE      0.040200
     69 H182       -7.7650    6.6110    4.9350 hc        1 LPE      0.040200
     70 H191      -10.0650    6.6340    2.8580 hc        1 LPE      0.039200
     71 H192      -10.1080    5.8120    4.4640 hc        1 LPE      0.039200
     72 H201       -9.7130    8.0220    5.6060 hc        1 LPE      0.039700
     73 H202       -9.6680    8.8440    3.9990 hc        1 LPE      0.039700
     74 H211      -12.0560    7.2260    5.1320 hc        1 LPE      0.039200
     75 H212      -12.0110    8.0530    3.5280 hc        1 LPE      0.039200
     76 H221      -11.6600    9.4330    6.2810 hc        1 LPE      0.039700
     77 H222      -11.6150   10.2600    4.6770 hc        1 LPE      0.039700
     78 H231      -14.0040    8.6400    5.8040 hc        1 LPE      0.039200
     79 H232      -13.9580    9.4700    4.2020 hc        1 LPE      0.039200
     80 H241      -13.5620   11.6740    5.3550 hc        1 LPE      0.039700
     81 H242      -13.6080   10.8440    6.9570 hc        1 LPE      0.039700
     82 H251      -15.9050   10.8840    4.8780 hc        1 LPE      0.039200
     83 H252      -15.9510   10.0530    6.4800 hc        1 LPE      0.039200
     84 H261      -15.5090   13.0870    6.0340 hc        1 LPE      0.039700
     85 H262      -15.5550   12.2560    7.6350 hc        1 LPE      0.039700
     86 H271      -17.8970   11.4650    7.1570 hc        1 LPE      0.038200
     87 H272      -17.8500   12.2970    5.5560 hc        1 LPE      0.038200
     88 H281      -17.5380   13.6710    8.3160 hc        1 LPE      0.032700
     89 H282      -19.0140   13.6930    7.2650 hc        1 LPE      0.032700
     90 H283      -17.4920   14.5050    6.7110 hc        1 LPE      0.032700
@<TRIPOS>BOND
     1    1    2 1   
     2    1    3 1   
     3    1   35 1   
     4    1   36 1   
     5    2    6 1   
     6    3    4 1   
     7    3    5 1   
     8    3   37 1   
     9    4   38 1   
    10    5    8 1   
    11    5   39 1   
    12    5   40 1   
    13    6    7 1   
    14    6   41 1   
    15    6   42 1   
    16    7   19 1   
    17    7   43 1   
    18    7   44 1   
    19    8    9 1   
    20    9   10 1   
    21    9   11 1   
    22    9   12 1   
    23   12   13 1   
    24   13   14 1   
    25   13   45 1   
    26   13   46 1   
    27   14   15 1   
    28   14   47 1   
    29   14   48 1   
    30   15   16 1   
    31   15   17 1   
    32   15   18 1   
    33   16   49 1   
    34   16   50 1   
    35   16   51 1   
    36   17   52 1   
    37   17   53 1   
    38   17   54 1   
    39   18   55 1   
    40   18   56 1   
    41   18   57 1   
    42   19   20 1   
    43   19   58 1   
    44   19   59 1   
    45   20   21 1   
    46   20   60 1   
    47   20   61 1   
    48   21   22 1   
    49   21   62 1   
    50   21   63 1   
    51   22   23 1   
    52   22   64 1   
    53   22   65 1   
    54   23   24 1   
    55   23   66 1   
    56   23   67 1   
    57   24   25 1   
    58   24   68 1   
    59   24   69 1   
    60   25   26 1   
    61   25   70 1   
    62   25   71 1   
    63   26   27 1   
    64   26   72 1   
    65   26   73 1   
    66   27   28 1   
    67   27   74 1   
    68   27   75 1   
    69   28   29 1   
    70   28   76 1   
    71   28   77 1   
    72   29   30 1   
    73   29   78 1   
    74   29   79 1   
    75   30   31 1   
    76   30   80 1   
    77   30   81 1   
    78   31   32 1   
    79   31   82 1   
    80   31   83 1   
    81   32   33 1   
    82   32   84 1   
    83   32   85 1   
    84   33   34 1   
    85   33   86 1   
    86   33   87 1   
    87   34   88 1   
    88   34   89 1   
    89   34   90 1   
@<TRIPOS>SUBSTRUCTURE
     1 LPE         1 TEMP              0 ****  ****    0 ROOT
