@<TRIPOS>MOLECULE
LPE
   90    89     1     0     0
SMALL
bcc


@<TRIPOS>ATOM
      1 C1          0.6570   -0.2820   -0.7530 c3        1 LPE      0.112400
      2 O1          0.1400    0.7000    0.1440 os        1 LPE     -0.430600
      3 C2          2.1850   -0.1990   -0.7260 c3        1 LPE      0.120100
      4 O2H         2.6200   -0.0990    0.6230 oh        1 LPE     -0.629800
      5 C3          2.7900   -1.4310   -1.4350 c3        1 LPE      0.140400
      6 C11        -1.2330    0.9890   -0.1170 c3        1 LPE      0.124400
      7 C12        -1.7000    1.9220    0.9870 c3        1 LPE     -0.080400
      8 O3          3.3610   -2.2880   -0.4980 os        1 LPE     -0.589200
      9 P           2.6640   -3.7720   -0.2530 p5        1 LPE      1.423800
     10 O31         1.5740   -3.9260   -1.2240 o         1 LPE     -0.795500
     11 O32         3.7310   -4.6870    0.1710 o         1 LPE     -0.795500
     12 O33         1.9220   -3.3070    1.1770 os        1 LPE     -0.577200
     13 C31         2.8200   -3.1470    2.2230 c3        1 LPE      0.161400
     14 C32         2.0420   -3.0130    3.5350 c3        1 LPE      0.110800
     15 N           1.2310   -1.7470    3.6790 n4        1 LPE     -0.589800
     16 C1N         2.1310   -0.5680    3.8190 c3        1 LPE      0.089767
     17 C2N         0.3430   -1.5460    2.4930 c3        1 LPE      0.089767
     18 C3N         0.3920   -1.8690    4.9050 c3        1 LPE      0.089767
     19 C13        -3.1490    2.3020    0.7830 c3        1 LPE     -0.081400
     20 C14        -3.6300    3.2300    1.8780 c3        1 LPE     -0.077400
     21 C15        -5.0810    3.6110    1.6760 c3        1 LPE     -0.080400
     22 C16        -5.5620    4.5400    2.7700 c3        1 LPE     -0.078400
     23 C17        -7.0130    4.9210    2.5680 c3        1 LPE     -0.079400
     24 C18        -7.4950    5.8510    3.6610 c3        1 LPE     -0.078400
     25 C19        -8.9460    6.2310    3.4590 c3        1 LPE     -0.079400
     26 C20        -9.4280    7.1610    4.5520 c3        1 LPE     -0.078400
     27 C21       -10.8780    7.5420    4.3490 c3        1 LPE     -0.079400
     28 C22       -11.3600    8.4720    5.4420 c3        1 LPE     -0.078400
     29 C23       -12.8110    8.8540    5.2380 c3        1 LPE     -0.079400
     30 C24       -13.2930    9.7830    6.3310 c3        1 LPE     -0.078400
     31 C25       -14.7430   10.1660    6.1270 c3        1 LPE     -0.079400
     32 C26       -15.2260   11.0950    7.2200 c3        1 LPE     -0.079400
     33 C27       -16.6760   11.4790    7.0170 c3        1 LPE     -0.080400
     34 C28       -17.1610   12.4050    8.1020 c3        1 LPE     -0.092100
     35 H11         0.3060   -0.0860   -1.8010 h1        1 LPE      0.049200
     36 H12         0.2950   -1.2930   -0.4260 h1        1 LPE      0.049200
     37 H21         2.5080    0.7440   -1.2520 h1        1 LPE      0.040700
     38 HO21        3.4980   -0.5050    0.6610 ho        1 LPE      0.423000
     39 H31         2.0060   -1.9680   -2.0400 h1        1 LPE      0.058700
     40 H32         3.6130   -1.0750   -2.1170 h1        1 LPE      0.058700
     41 H111       -1.3270    1.4790   -1.1230 h1        1 LPE      0.029700
     42 H112       -1.8300    0.0380   -0.1190 h1        1 LPE      0.029700
     43 H121       -1.0550    2.8380    0.9950 hc        1 LPE      0.044700
     44 H122       -1.5680    1.4160    1.9790 hc        1 LPE      0.044700
     45 H311        3.4620   -2.2440    2.0290 h1        1 LPE      0.068700
     46 H312        3.4820   -4.0600    2.3020 h1        1 LPE      0.068700
     47 H321        2.7610   -3.0480    4.3990 hx        1 LPE      0.083700
     48 H322        1.3190   -3.8750    3.6010 hx        1 LPE      0.083700
     49 H1N1        2.8220   -0.7250    4.6860 hx        1 LPE      0.097922
     50 H1N2        1.5100    0.3520    3.9830 hx        1 LPE      0.097922
     51 H1N3        2.7210   -0.4390    2.8690 hx        1 LPE      0.097922
     52 H2N1       -0.1460   -2.5200    2.2280 hx        1 LPE      0.097922
     53 H2N2       -0.4160   -0.7570    2.7280 hx        1 LPE      0.097922
     54 H2N3        0.9740   -1.2140    1.6130 hx        1 LPE      0.097922
     55 H3N1       -0.1760   -0.9160    5.0660 hx        1 LPE      0.097922
     56 H3N2       -0.3320   -2.7160    4.7740 hx        1 LPE      0.097922
     57 H3N3        1.0490   -2.0690    5.7910 hx        1 LPE      0.097922
     58 H131       -3.7850    1.3770    0.7670 hc        1 LPE      0.043700
     59 H132       -3.2700    2.8030   -0.2140 hc        1 LPE      0.043700
     60 H141       -3.5080    2.7320    2.8760 hc        1 LPE      0.038200
     61 H142       -2.9960    4.1560    1.8910 hc        1 LPE      0.038200
     62 H151       -5.2030    4.1100    0.6780 hc        1 LPE      0.041200
     63 H152       -5.7150    2.6860    1.6630 hc        1 LPE      0.041200
     64 H161       -4.9290    5.4660    2.7820 hc        1 LPE      0.038700
     65 H162       -5.4390    4.0430    3.7680 hc        1 LPE      0.038700
     66 H171       -7.6470    3.9950    2.5560 hc        1 LPE      0.040700
     67 H172       -7.1360    5.4180    1.5700 hc        1 LPE      0.040700
     68 H181       -6.8620    6.7770    3.6730 hc        1 LPE      0.038700
     69 H182       -7.3720    5.3530    4.6590 hc        1 LPE      0.038700
     70 H191       -9.0690    6.7290    2.4610 hc        1 LPE      0.040200
     71 H192       -9.5790    5.3050    3.4460 hc        1 LPE      0.040200
     72 H201       -8.7940    8.0870    4.5640 hc        1 LPE      0.039200
     73 H202       -9.3050    6.6640    5.5500 hc        1 LPE      0.039200
     74 H211      -11.5120    6.6170    4.3360 hc        1 LPE      0.039700
     75 H212      -11.0000    8.0400    3.3510 hc        1 LPE      0.039700
     76 H221      -11.2390    7.9740    6.4400 hc        1 LPE      0.039200
     77 H222      -10.7260    9.3980    5.4550 hc        1 LPE      0.039200
     78 H231      -12.9320    9.3520    4.2400 hc        1 LPE      0.039700
     79 H232      -13.4450    7.9280    5.2250 hc        1 LPE      0.039700
     80 H241      -13.1720    9.2850    7.3290 hc        1 LPE      0.039200
     81 H242      -12.6580   10.7090    6.3450 hc        1 LPE      0.039200
     82 H251      -15.3780    9.2410    6.1130 hc        1 LPE      0.039700
     83 H252      -14.8640   10.6640    5.1290 hc        1 LPE      0.039700
     84 H261      -15.1060   10.5970    8.2180 hc        1 LPE      0.039700
     85 H262      -14.5910   12.0210    7.2340 hc        1 LPE      0.039700
     86 H271      -16.7940   11.9760    6.0180 hc        1 LPE      0.038700
     87 H272      -17.3090   10.5530    7.0010 hc        1 LPE      0.038700
     88 H281      -18.2310   12.6750    7.9330 hc        1 LPE      0.032700
     89 H282      -17.0740   11.9180    9.1040 hc        1 LPE      0.032700
     90 H283      -16.5580   13.3450    8.1180 hc        1 LPE      0.032700
@<TRIPOS>BOND
     1    1    2 1   
     2    1    3 1   
     3    1   35 1   
     4    1   36 1   
     5    2    6 1   
     6    3    4 1   
     7    3    5 1   
     8    3   37 1   
     9    4   38 1   
    10    5    8 1   
    11    5   39 1   
    12    5   40 1   
    13    6    7 1   
    14    6   41 1   
    15    6   42 1   
    16    7   19 1   
    17    7   43 1   
    18    7   44 1   
    19    8    9 1   
    20    9   10 1   
    21    9   11 1   
    22    9   12 1   
    23   12   13 1   
    24   13   14 1   
    25   13   45 1   
    26   13   46 1   
    27   14   15 1   
    28   14   47 1   
    29   14   48 1   
    30   15   16 1   
    31   15   17 1   
    32   15   18 1   
    33   16   49 1   
    34   16   50 1   
    35   16   51 1   
    36   17   52 1   
    37   17   53 1   
    38   17   54 1   
    39   18   55 1   
    40   18   56 1   
    41   18   57 1   
    42   19   20 1   
    43   19   58 1   
    44   19   59 1   
    45   20   21 1   
    46   20   60 1   
    47   20   61 1   
    48   21   22 1   
    49   21   62 1   
    50   21   63 1   
    51   22   23 1   
    52   22   64 1   
    53   22   65 1   
    54   23   24 1   
    55   23   66 1   
    56   23   67 1   
    57   24   25 1   
    58   24   68 1   
    59   24   69 1   
    60   25   26 1   
    61   25   70 1   
    62   25   71 1   
    63   26   27 1   
    64   26   72 1   
    65   26   73 1   
    66   27   28 1   
    67   27   74 1   
    68   27   75 1   
    69   28   29 1   
    70   28   76 1   
    71   28   77 1   
    72   29   30 1   
    73   29   78 1   
    74   29   79 1   
    75   30   31 1   
    76   30   80 1   
    77   30   81 1   
    78   31   32 1   
    79   31   82 1   
    80   31   83 1   
    81   32   33 1   
    82   32   84 1   
    83   32   85 1   
    84   33   34 1   
    85   33   86 1   
    86   33   87 1   
    87   34   88 1   
    88   34   89 1   
    89   34   90 1   
@<TRIPOS>SUBSTRUCTURE
     1 LPE         1 TEMP              0 ****  ****    0 ROOT
