@<TRIPOS>MOLECULE
LPE
   90    89     1     0     0
SMALL
bcc


@<TRIPOS>ATOM
      1 C1        -13.3460    2.0230    8.0520 c3        1 LPE      0.090400
      2 O1        -14.0340    0.8020    7.7850 os        1 LPE     -0.446600
      3 C2        -14.2420    3.1430    7.5180 c3        1 LPE      0.126100
      4 O2H       -15.5270    3.1050    8.1320 oh        1 LPE     -0.624800
      5 C3        -13.5920    4.5020    7.8270 c3        1 LPE      0.194400
      6 C11       -13.3140   -0.3360    8.2570 c3        1 LPE      0.134400
      7 C12       -14.1440   -1.5560    7.8970 c3        1 LPE     -0.084400
      8 O3        -14.1820    5.4840    7.0330 os        1 LPE     -0.582200
      9 P         -14.4030    6.9650    7.7180 p5        1 LPE      1.443800
     10 O31       -13.1470    7.4550    8.2820 o         1 LPE     -0.813000
     11 O32       -15.3870    7.6210    6.8230 o         1 LPE     -0.813000
     12 O33       -15.3640    6.4200    8.9650 os        1 LPE     -0.569200
     13 C31       -16.6710    6.8490    9.0370 c3        1 LPE      0.203400
     14 C32       -17.6480    5.7410    8.5840 c3        1 LPE      0.074800
     15 N         -18.1280    5.7630    7.1520 n4        1 LPE     -0.578800
     16 C1N       -18.4510    7.1470    6.7000 c3        1 LPE      0.074100
     17 C2N       -17.1110    5.1720    6.2320 c3        1 LPE      0.074100
     18 C3N       -19.3660    4.9300    7.0800 c3        1 LPE      0.074100
     19 C13       -13.4500   -2.8200    8.3570 c3        1 LPE     -0.079400
     20 C14       -14.2650   -4.0460    8.0070 c3        1 LPE     -0.078400
     21 C15       -13.5740   -5.3130    8.4650 c3        1 LPE     -0.079400
     22 C16       -14.3890   -6.5400    8.1160 c3        1 LPE     -0.078400
     23 C17       -13.6980   -7.8060    8.5740 c3        1 LPE     -0.079400
     24 C18       -14.5130   -9.0330    8.2250 c3        1 LPE     -0.078400
     25 C19       -13.8220  -10.3000    8.6830 c3        1 LPE     -0.079400
     26 C20       -14.6360  -11.5270    8.3340 c3        1 LPE     -0.078400
     27 C21       -13.9460  -12.7930    8.7920 c3        1 LPE     -0.079400
     28 C22       -14.7600  -14.0210    8.4430 c3        1 LPE     -0.078400
     29 C23       -14.0690  -15.2870    8.9020 c3        1 LPE     -0.079400
     30 C24       -14.8840  -16.5140    8.5530 c3        1 LPE     -0.078400
     31 C25       -14.1930  -17.7810    9.0110 c3        1 LPE     -0.079400
     32 C26       -15.0080  -19.0080    8.6630 c3        1 LPE     -0.079400
     33 C27       -14.3180  -20.2760    9.1210 c3        1 LPE     -0.080400
     34 C28       -15.1250  -21.5000    8.7750 c3        1 LPE     -0.092100
     35 H11       -13.1870    2.1340    9.1570 h1        1 LPE      0.044700
     36 H12       -12.3570    2.0270    7.5250 h1        1 LPE      0.044700
     37 H21       -14.3810    3.0280    6.4070 h1        1 LPE      0.054700
     38 HO21      -15.7850    2.1750    8.1740 ho        1 LPE      0.409000
     39 H31       -12.4980    4.4210    7.5690 h1        1 LPE      0.046700
     40 H32       -13.7120    4.7530    8.9150 h1        1 LPE      0.046700
     41 H111      -12.3070   -0.3740    7.7620 h1        1 LPE      0.030700
     42 H112      -13.1730   -0.2570    9.3680 h1        1 LPE      0.030700
     43 H121      -14.3040   -1.5830    6.7880 hc        1 LPE      0.052200
     44 H122      -15.1540   -1.4730    8.3770 hc        1 LPE      0.052200
     45 H311      -16.8170    7.8080    8.4700 h1        1 LPE      0.055200
     46 H312      -16.9100    7.0210   10.1290 h1        1 LPE      0.055200
     47 H321      -18.5670    5.8100    9.2290 hx        1 LPE      0.093700
     48 H322      -17.1340    4.7460    8.7480 hx        1 LPE      0.093700
     49 H1N1      -19.0320    7.0910    5.7440 hx        1 LPE      0.100589
     50 H1N2      -19.0590    7.6590    7.4880 hx        1 LPE      0.100589
     51 H1N3      -17.4890    7.7190    6.5140 hx        1 LPE      0.100589
     52 H2N1      -17.5570    5.0750    5.2100 hx        1 LPE      0.100589
     53 H2N2      -16.2070    5.8600    6.1940 hx        1 LPE      0.100589
     54 H2N3      -16.7800    4.1730    6.6240 hx        1 LPE      0.100589
     55 H3N1      -19.1410    3.9030    7.4710 hx        1 LPE      0.100589
     56 H3N2      -20.1750    5.4010    7.6960 hx        1 LPE      0.100589
     57 H3N3      -19.7060    4.8570    6.0140 hx        1 LPE      0.100589
     58 H131      -12.4390   -2.8910    7.8760 hc        1 LPE      0.042200
     59 H132      -13.2880   -2.7800    9.4660 hc        1 LPE      0.042200
     60 H141      -15.2770   -3.9750    8.4870 hc        1 LPE      0.040700
     61 H142      -14.4280   -4.0860    6.8970 hc        1 LPE      0.040700
     62 H151      -13.4120   -5.2720    9.5740 hc        1 LPE      0.040700
     63 H152      -12.5630   -5.3840    7.9850 hc        1 LPE      0.040700
     64 H161      -15.4010   -6.4680    8.5950 hc        1 LPE      0.039200
     65 H162      -14.5510   -6.5800    7.0060 hc        1 LPE      0.039200
     66 H171      -13.5360   -7.7660    9.6830 hc        1 LPE      0.040200
     67 H172      -12.6860   -7.8770    8.0940 hc        1 LPE      0.040200
     68 H181      -14.6750   -9.0740    7.1150 hc        1 LPE      0.039200
     69 H182      -15.5240   -8.9620    8.7040 hc        1 LPE      0.039200
     70 H191      -13.6600  -10.2590    9.7920 hc        1 LPE      0.039700
     71 H192      -12.8100  -10.3710    8.2030 hc        1 LPE      0.039700
     72 H201      -14.7990  -11.5680    7.2240 hc        1 LPE      0.039700
     73 H202      -15.6480  -11.4560    8.8130 hc        1 LPE      0.039700
     74 H211      -12.9340  -12.8650    8.3130 hc        1 LPE      0.039700
     75 H212      -13.7830  -12.7530    9.9020 hc        1 LPE      0.039700
     76 H221      -14.9220  -14.0610    7.3340 hc        1 LPE      0.039700
     77 H222      -15.7720  -13.9500    8.9230 hc        1 LPE      0.039700
     78 H231      -13.9070  -15.2460   10.0110 hc        1 LPE      0.039700
     79 H232      -13.0580  -15.3580    8.4220 hc        1 LPE      0.039700
     80 H241      -15.0460  -16.5550    7.4430 hc        1 LPE      0.039700
     81 H242      -15.8960  -16.4430    9.0320 hc        1 LPE      0.039700
     82 H251      -14.0310  -17.7400   10.1200 hc        1 LPE      0.039700
     83 H252      -13.1820  -17.8520    8.5310 hc        1 LPE      0.039700
     84 H261      -15.1700  -19.0490    7.5530 hc        1 LPE      0.039700
     85 H262      -16.0200  -18.9370    9.1420 hc        1 LPE      0.039700
     86 H271      -14.1550  -20.2320   10.2300 hc        1 LPE      0.038700
     87 H272      -13.3060  -20.3440    8.6410 hc        1 LPE      0.038700
     88 H281      -14.5990  -22.4220    9.1220 hc        1 LPE      0.032700
     89 H282      -15.2770  -21.5740    7.6710 hc        1 LPE      0.032700
     90 H283      -16.1290  -21.4620    9.2650 hc        1 LPE      0.032700
@<TRIPOS>BOND
     1    1    2 1   
     2    1    3 1   
     3    1   35 1   
     4    1   36 1   
     5    2    6 1   
     6    3    4 1   
     7    3    5 1   
     8    3   37 1   
     9    4   38 1   
    10    5    8 1   
    11    5   39 1   
    12    5   40 1   
    13    6    7 1   
    14    6   41 1   
    15    6   42 1   
    16    7   19 1   
    17    7   43 1   
    18    7   44 1   
    19    8    9 1   
    20    9   10 1   
    21    9   11 1   
    22    9   12 1   
    23   12   13 1   
    24   13   14 1   
    25   13   45 1   
    26   13   46 1   
    27   14   15 1   
    28   14   47 1   
    29   14   48 1   
    30   15   16 1   
    31   15   17 1   
    32   15   18 1   
    33   16   49 1   
    34   16   50 1   
    35   16   51 1   
    36   17   52 1   
    37   17   53 1   
    38   17   54 1   
    39   18   55 1   
    40   18   56 1   
    41   18   57 1   
    42   19   20 1   
    43   19   58 1   
    44   19   59 1   
    45   20   21 1   
    46   20   60 1   
    47   20   61 1   
    48   21   22 1   
    49   21   62 1   
    50   21   63 1   
    51   22   23 1   
    52   22   64 1   
    53   22   65 1   
    54   23   24 1   
    55   23   66 1   
    56   23   67 1   
    57   24   25 1   
    58   24   68 1   
    59   24   69 1   
    60   25   26 1   
    61   25   70 1   
    62   25   71 1   
    63   26   27 1   
    64   26   72 1   
    65   26   73 1   
    66   27   28 1   
    67   27   74 1   
    68   27   75 1   
    69   28   29 1   
    70   28   76 1   
    71   28   77 1   
    72   29   30 1   
    73   29   78 1   
    74   29   79 1   
    75   30   31 1   
    76   30   80 1   
    77   30   81 1   
    78   31   32 1   
    79   31   82 1   
    80   31   83 1   
    81   32   33 1   
    82   32   84 1   
    83   32   85 1   
    84   33   34 1   
    85   33   86 1   
    86   33   87 1   
    87   34   88 1   
    88   34   89 1   
    89   34   90 1   
@<TRIPOS>SUBSTRUCTURE
     1 LPE         1 TEMP              0 ****  ****    0 ROOT
