@<TRIPOS>MOLECULE
LPE
   90    89     1     0     0
SMALL
bcc


@<TRIPOS>ATOM
      1 C1          0.7820   -0.1420   -0.7070 c3        1 LPE      0.112400
      2 O1          0.2380    0.7890    0.2270 os        1 LPE     -0.430600
      3 C2          2.3070   -0.1010   -0.5930 c3        1 LPE      0.120100
      4 O2H         2.6690   -0.1050    0.7810 oh        1 LPE     -0.629800
      5 C3          2.9220   -1.2980   -1.3520 c3        1 LPE      0.140400
      6 C11        -1.1120    1.1310   -0.0850 c3        1 LPE      0.124400
      7 C12        -1.6180    1.9970    1.0550 c3        1 LPE     -0.080400
      8 O3          3.4210   -2.2310   -0.4470 os        1 LPE     -0.589200
      9 P           2.6780   -3.7090   -0.3430 p5        1 LPE      1.423800
     10 O31         1.6400   -3.7690   -1.3790 o         1 LPE     -0.795500
     11 O32         3.6990   -4.6790    0.0730 o         1 LPE     -0.795500
     12 O33         1.8690   -3.3240    1.0740 os        1 LPE     -0.577200
     13 C31         2.7110   -3.2580    2.1750 c3        1 LPE      0.161400
     14 C32         1.8650   -3.1930    3.4500 c3        1 LPE      0.110800
     15 N           1.0760   -1.9190    3.6370 n4        1 LPE     -0.589800
     16 C1N         1.9930   -0.7750    3.9070 c3        1 LPE      0.089767
     17 C2N         0.2600   -1.6150    2.4230 c3        1 LPE      0.089767
     18 C3N         0.1680   -2.1020    4.8060 c3        1 LPE      0.089767
     19 C13        -3.0460    2.4270    0.8020 c3        1 LPE     -0.081400
     20 C14        -3.5660    3.2890    1.9330 c3        1 LPE     -0.077400
     21 C15        -4.9950    3.7180    1.6820 c3        1 LPE     -0.080400
     22 C16        -5.5160    4.5810    2.8120 c3        1 LPE     -0.078400
     23 C17        -6.9460    5.0090    2.5620 c3        1 LPE     -0.079400
     24 C18        -7.4670    5.8710    3.6910 c3        1 LPE     -0.078400
     25 C19        -8.8970    6.2990    3.4410 c3        1 LPE     -0.079400
     26 C20        -9.4180    7.1620    4.5710 c3        1 LPE     -0.078400
     27 C21       -10.8490    7.5890    4.3200 c3        1 LPE     -0.079400
     28 C22       -11.3700    8.4510    5.4500 c3        1 LPE     -0.078400
     29 C23       -12.8010    8.8790    5.1990 c3        1 LPE     -0.079400
     30 C24       -13.3220    9.7410    6.3290 c3        1 LPE     -0.078400
     31 C25       -14.7530   10.1680    6.0790 c3        1 LPE     -0.079400
     32 C26       -15.2740   11.0310    7.2080 c3        1 LPE     -0.079400
     33 C27       -16.7050   11.4590    6.9580 c3        1 LPE     -0.080400
     34 C28       -17.2290   12.3180    8.0800 c3        1 LPE     -0.092100
     35 H11         0.4930    0.1340   -1.7560 h1        1 LPE      0.049200
     36 H12         0.3790   -1.1630   -0.4710 h1        1 LPE      0.049200
     37 H21         2.6800    0.8660   -1.0350 h1        1 LPE      0.040700
     38 HO21        3.5350   -0.5360    0.8380 ho        1 LPE      0.423000
     39 H31         2.1610   -1.7720   -2.0330 h1        1 LPE      0.058700
     40 H32         3.7890   -0.9190   -1.9630 h1        1 LPE      0.058700
     41 H111       -1.1410    1.6910   -1.0580 h1        1 LPE      0.029700
     42 H112       -1.7290    0.1980   -0.1850 h1        1 LPE      0.029700
     43 H121       -0.9550    2.8950    1.1610 hc        1 LPE      0.044700
     44 H122       -1.5510    1.4210    2.0150 hc        1 LPE      0.044700
     45 H311        3.3830   -2.3610    2.0790 h1        1 LPE      0.068700
     46 H312        3.3470   -4.1910    2.2260 h1        1 LPE      0.068700
     47 H321        2.5340   -3.3050    4.3470 hx        1 LPE      0.083700
     48 H322        1.1200   -4.0380    3.4180 hx        1 LPE      0.083700
     49 H1N1        2.6320   -1.0100    4.7960 hx        1 LPE      0.097922
     50 H1N2        1.3850    0.1470    4.1000 hx        1 LPE      0.097922
     51 H1N3        2.6380   -0.5980    3.0010 hx        1 LPE      0.097922
     52 H2N1       -0.2360   -2.5550    2.0650 hx        1 LPE      0.097922
     53 H2N2       -0.4930   -0.8230    2.6710 hx        1 LPE      0.097922
     54 H2N3        0.9450   -1.2400    1.6020 hx        1 LPE      0.097922
     55 H3N1       -0.3860   -1.1470    5.0020 hx        1 LPE      0.097922
     56 H3N2       -0.5660   -2.9180    4.5780 hx        1 LPE      0.097922
     57 H3N3        0.7710   -2.3780    5.7100 hx        1 LPE      0.097922
     58 H131       -3.6990    1.5210    0.6880 hc        1 LPE      0.043700
     59 H132       -3.1020    2.9980   -0.1620 hc        1 LPE      0.043700
     60 H141       -3.5080    2.7200    2.8980 hc        1 LPE      0.038200
     61 H142       -2.9140    4.1960    2.0440 hc        1 LPE      0.038200
     62 H151       -5.0530    4.2880    0.7170 hc        1 LPE      0.041200
     63 H152       -5.6470    2.8120    1.5700 hc        1 LPE      0.041200
     64 H161       -4.8660    5.4880    2.9230 hc        1 LPE      0.038700
     65 H162       -5.4570    4.0120    3.7770 hc        1 LPE      0.038700
     66 H171       -7.5970    4.1020    2.4500 hc        1 LPE      0.040700
     67 H172       -7.0050    5.5780    1.5970 hc        1 LPE      0.040700
     68 H181       -6.8170    6.7790    3.8020 hc        1 LPE      0.038700
     69 H182       -7.4080    5.3030    4.6570 hc        1 LPE      0.038700
     70 H191       -8.9560    6.8680    2.4760 hc        1 LPE      0.040200
     71 H192       -9.5470    5.3910    3.3300 hc        1 LPE      0.040200
     72 H201       -8.7690    8.0690    4.6810 hc        1 LPE      0.039200
     73 H202       -9.3590    6.5930    5.5360 hc        1 LPE      0.039200
     74 H211      -11.4990    6.6810    4.2100 hc        1 LPE      0.039700
     75 H212      -10.9080    8.1570    3.3550 hc        1 LPE      0.039700
     76 H221      -11.3110    7.8830    6.4150 hc        1 LPE      0.039200
     77 H222      -10.7200    9.3590    5.5610 hc        1 LPE      0.039200
     78 H231      -12.8600    9.4470    4.2340 hc        1 LPE      0.039700
     79 H232      -13.4500    7.9710    5.0890 hc        1 LPE      0.039700
     80 H241      -13.2630    9.1730    7.2940 hc        1 LPE      0.039200
     81 H242      -12.6720   10.6490    6.4400 hc        1 LPE      0.039200
     82 H251      -15.4020    9.2600    5.9680 hc        1 LPE      0.039700
     83 H252      -14.8120   10.7360    5.1130 hc        1 LPE      0.039700
     84 H261      -15.2150   10.4630    8.1730 hc        1 LPE      0.039700
     85 H262      -14.6250   11.9390    7.3190 hc        1 LPE      0.039700
     86 H271      -16.7620   12.0250    5.9920 hc        1 LPE      0.038700
     87 H272      -17.3530   10.5490    6.8460 hc        1 LPE      0.038700
     88 H281      -18.2840   12.6220    7.8770 hc        1 LPE      0.032700
     89 H282      -17.2030   11.7610    9.0480 hc        1 LPE      0.032700
     90 H283      -16.6100   13.2420    8.1910 hc        1 LPE      0.032700
@<TRIPOS>BOND
     1    1    2 1   
     2    1    3 1   
     3    1   35 1   
     4    1   36 1   
     5    2    6 1   
     6    3    4 1   
     7    3    5 1   
     8    3   37 1   
     9    4   38 1   
    10    5    8 1   
    11    5   39 1   
    12    5   40 1   
    13    6    7 1   
    14    6   41 1   
    15    6   42 1   
    16    7   19 1   
    17    7   43 1   
    18    7   44 1   
    19    8    9 1   
    20    9   10 1   
    21    9   11 1   
    22    9   12 1   
    23   12   13 1   
    24   13   14 1   
    25   13   45 1   
    26   13   46 1   
    27   14   15 1   
    28   14   47 1   
    29   14   48 1   
    30   15   16 1   
    31   15   17 1   
    32   15   18 1   
    33   16   49 1   
    34   16   50 1   
    35   16   51 1   
    36   17   52 1   
    37   17   53 1   
    38   17   54 1   
    39   18   55 1   
    40   18   56 1   
    41   18   57 1   
    42   19   20 1   
    43   19   58 1   
    44   19   59 1   
    45   20   21 1   
    46   20   60 1   
    47   20   61 1   
    48   21   22 1   
    49   21   62 1   
    50   21   63 1   
    51   22   23 1   
    52   22   64 1   
    53   22   65 1   
    54   23   24 1   
    55   23   66 1   
    56   23   67 1   
    57   24   25 1   
    58   24   68 1   
    59   24   69 1   
    60   25   26 1   
    61   25   70 1   
    62   25   71 1   
    63   26   27 1   
    64   26   72 1   
    65   26   73 1   
    66   27   28 1   
    67   27   74 1   
    68   27   75 1   
    69   28   29 1   
    70   28   76 1   
    71   28   77 1   
    72   29   30 1   
    73   29   78 1   
    74   29   79 1   
    75   30   31 1   
    76   30   80 1   
    77   30   81 1   
    78   31   32 1   
    79   31   82 1   
    80   31   83 1   
    81   32   33 1   
    82   32   84 1   
    83   32   85 1   
    84   33   34 1   
    85   33   86 1   
    86   33   87 1   
    87   34   88 1   
    88   34   89 1   
    89   34   90 1   
@<TRIPOS>SUBSTRUCTURE
     1 LPE         1 TEMP              0 ****  ****    0 ROOT
