@<TRIPOS>MOLECULE
LPF
   51    51     1     0     0
SMALL
bcc


@<TRIPOS>ATOM
      1 C1          0.0000    0.0000    0.0000 c3        1 LPF      0.367000
      2 F11         1.3980    0.0000    0.0000 f         1 LPF     -0.100333
      3 F12        -0.4660    0.0000    1.3190 f         1 LPF     -0.100333
      4 F13        -0.4670   -1.1430   -0.6590 f         1 LPF     -0.100333
      5 C2         -0.5030    1.2300   -0.7110 c2        1 LPF      0.197000
      6 O2          0.2810    2.0250   -1.1700 o         1 LPF     -0.191000
      7 C3         -1.9850    1.4670   -0.8470 c3        1 LPF     -0.284000
      8 C4         -2.4870    0.8260   -2.1430 c3        1 LPF     -0.045000
      9 CP1        -3.9690    1.0640   -2.2800 ca        1 LPF     -0.177000
     10 CP2        -4.4300    2.1910   -2.9320 ca        1 LPF     -0.106000
     11 CP3        -5.7900    2.4100   -3.0570 ca        1 LPF     -0.071000
     12 CP4        -6.6870    1.5000   -2.5320 ca        1 LPF     -0.057000
     13 CP5        -6.2240    0.3720   -1.8810 ca        1 LPF     -0.071000
     14 CP6        -4.8650    0.1510   -1.7590 ca        1 LPF     -0.106000
     15 N3         -2.2470    2.9080   -0.8820 ny        1 LPF      0.672000
     16 CN1        -2.4730    3.5790    0.2620 c2        1 LPF      0.044000
     17 ON1        -2.4610    2.9910    1.3230 o         1 LPF     -0.149000
     18 CN2        -2.7440    5.0620    0.2270 c3        1 LPF      0.015000
     19 NL1        -3.6150    5.4270    1.3450 ny        1 LPF     -0.507000
     20 Cl1        -3.2180    5.1990    2.6120 cl        1 LPF      0.740000
     21 OL1        -2.1370    4.6920    2.8260 o         1 LPF     -0.929000
     22 Cl2        -4.1150    5.5750    3.7630 cl        1 LPF      3.489000
     23 CA1        -1.4230    5.8230    0.3410 c3        1 LPF     -0.156000
     24 CA2        -1.6950    7.3280    0.3040 c3        1 LPF     -0.081000
     25 CA3        -0.3740    8.0900    0.4190 c3        1 LPF     -0.115500
     26 CA4        -2.3800    7.6900   -1.0150 c3        1 LPF     -0.115500
     27 H3         -2.5010    1.0270   -0.0030 hx        1 LPF      0.161000
     28 H41        -2.2930   -0.2400   -2.1170 hc        1 LPF      0.111500
     29 H42        -1.9710    1.2670   -2.9880 hc        1 LPF      0.111500
     30 HP2        -3.7260    2.9050   -3.3430 ha        1 LPF      0.111000
     31 HP3        -6.1510    3.2950   -3.5670 ha        1 LPF      0.128000
     32 HP4        -7.7520    1.6720   -2.6290 ha        1 LPF      0.131000
     33 HP5        -6.9280   -0.3440   -1.4730 ha        1 LPF      0.128000
     34 HP6        -4.5040   -0.7330   -1.2490 ha        1 LPF      0.111000
     35 HN3        -3.0510    3.0440   -1.4630 hn        1 LPF      0.089000
     36 HN2        -3.2290    5.3180   -0.7070 hx        1 LPF      0.111000
     37 HL1        -4.4760    4.9320    1.2170 hn        1 LPF      0.087000
     38 HL21       -4.8620    6.2820    3.4230 ha        1 LPF     -0.713000
     39 HL22       -4.6050    4.6870    4.1440 ha        1 LPF     -0.713000
     40 HL23       -3.5230    6.0260    4.5500 ha        1 LPF     -0.713000
     41 HA11       -0.9380    5.5670    1.2750 hc        1 LPF      0.115000
     42 HA12       -0.7780    5.5530   -0.4860 hc        1 LPF      0.115000
     43 HA2        -2.3410    7.5980    1.1320 hc        1 LPF      0.026000
     44 HA31       -0.5730    9.1540    0.4690 hc        1 LPF      0.060667
     45 HA32        0.2420    7.8790   -0.4470 hc        1 LPF      0.060667
     46 HA33        0.1470    7.7780    1.3170 hc        1 LPF      0.060667
     47 HA41       -1.9370    7.1170   -1.8200 hc        1 LPF      0.060667
     48 HA42       -3.4370    7.4630   -0.9480 hc        1 LPF      0.060667
     49 HA43       -2.2490    8.7480   -1.2110 hc        1 LPF      0.060667
     50 H32        -1.4550    3.3370   -1.3190 hn        1 LPF      0.089000
     51 HL12       -3.7910    6.4090    1.2690 hn        1 LPF      0.087000
@<TRIPOS>BOND
     1    1    2 1   
     2    1    3 1   
     3    1    4 1   
     4    1    5 1   
     5    5    6 1   
     6    5    7 1   
     7    7    8 1   
     8    7   15 1   
     9    7   27 1   
    10    8    9 1   
    11    8   28 1   
    12    8   29 1   
    13    9   10 1   
    14    9   14 1   
    15   10   11 1   
    16   10   30 1   
    17   11   12 1   
    18   11   31 1   
    19   12   13 1   
    20   12   32 1   
    21   13   14 1   
    22   13   33 1   
    23   14   34 1   
    24   15   16 1   
    25   15   35 1   
    26   15   50 1   
    27   16   17 1   
    28   16   18 1   
    29   18   19 1   
    30   18   23 1   
    31   18   36 1   
    32   19   20 1   
    33   19   37 1   
    34   19   51 1   
    35   20   21 1   
    36   20   22 1   
    37   22   38 1   
    38   22   39 1   
    39   22   40 1   
    40   23   24 1   
    41   23   41 1   
    42   23   42 1   
    43   24   25 1   
    44   24   26 1   
    45   24   43 1   
    46   25   44 1   
    47   25   45 1   
    48   25   46 1   
    49   26   47 1   
    50   26   48 1   
    51   26   49 1   
@<TRIPOS>SUBSTRUCTURE
     1 LPF         1 TEMP              0 ****  ****    0 ROOT
