@<TRIPOS>MOLECULE
LPF
   49    47     1     0     0
SMALL
bcc


@<TRIPOS>ATOM
      1 C1          2.1450    1.3570   -3.4280 c3        1 LPF      0.365000
      2 F11         3.1930    2.1930   -3.7020 f         1 LPF     -0.153333
      3 F12         2.7230    0.1720   -3.0570 f         1 LPF     -0.153333
      4 F13         1.5630    1.1020   -4.6440 f         1 LPF     -0.153333
      5 C2          1.1360    1.9420   -2.3760 c2        1 LPF      0.180000
      6 O2          1.1160    3.1490   -2.1860 o         1 LPF     -0.203000
      7 C3          0.2380    0.9090   -1.6920 c3        1 LPF      0.003000
      8 C4         -0.9790    0.7020   -2.6200 c3        1 LPF     -0.133000
      9 CP1        -1.8170   -0.4520   -2.2020 ca        1 LPF     -0.081000
     10 CP2        -3.1320   -0.2480   -1.7690 ca        1 LPF     -0.120000
     11 CP3        -3.9320   -1.3350   -1.4170 ca        1 LPF     -0.127000
     12 CP4        -3.4240   -2.6320   -1.4930 ca        1 LPF     -0.129000
     13 CP5        -2.1120   -2.8400   -1.9210 ca        1 LPF     -0.127000
     14 CP6        -1.3120   -1.7560   -2.2750 ca        1 LPF     -0.120000
     15 N3         -0.1180    1.3090   -0.3590 n         1 LPF     -0.366000
     16 CN1         0.4870    0.7720    0.7610 c2        1 LPF      0.305000
     17 ON1         1.3590   -0.1090    0.6690 o         1 LPF     -0.346000
     18 CN2         0.0600    1.3560    2.1280 c3        1 LPF     -0.067000
     19 NL1        -1.3830    1.3270    2.2930 n3        1 LPF     -0.328000
     20 CL1        -2.0810   -0.2430    2.4350 cl        1 LPF      0.538000
     21 OL1        -2.1780   -0.4330    4.1430 o         1 LPF     -0.582000
     22 CL2        -3.3750   -3.0720    2.8100 cl        1 LPF      0.577000
     23 CA1         0.9120    0.6960    3.2170 c3        1 LPF     -0.173000
     24 CA2         0.6210    1.2120    4.6170 c3        1 LPF     -0.127000
     25 CA3         1.5610    0.5360    5.5970 c3        1 LPF     -0.207000
     26 CA4         0.7630    2.7160    4.7150 c3        1 LPF     -0.207000
     27 H3          0.8200   -0.0660   -1.6250 h1        1 LPF      0.165000
     28 H41        -1.5920    1.6410   -2.6540 hc        1 LPF      0.109000
     29 H42        -0.5860    0.5160   -3.6580 hc        1 LPF      0.109000
     30 HP2        -3.5410    0.7720   -1.7110 ha        1 LPF      0.135500
     31 HP3        -4.9660   -1.1670   -1.0840 ha        1 LPF      0.136000
     32 HP4        -4.0570   -3.4890   -1.2220 ha        1 LPF      0.133000
     33 HP5        -1.7080   -3.8610   -1.9820 ha        1 LPF      0.136000
     34 HP6        -0.2790   -1.9250   -2.6170 ha        1 LPF      0.135500
     35 HN3        -0.8140    2.0110   -0.2620 hn        1 LPF      0.247000
     36 HN2         0.3280    2.4610    2.1030 h1        1 LPF      0.135000
     37 HL1        -1.6260    1.8020    3.1490 hn        1 LPF      0.202000
     38 HL21       -2.8850   -1.9070    2.1880 DU        1 LPF     -0.298000
     39 HL22       -3.4040   -3.2060    4.1360 ha        1 LPF     -0.097500
     40 HL23       -3.8740   -4.1930    2.2750 ha        1 LPF     -0.097500
     41 HA11        1.9900    0.8750    2.9610 hc        1 LPF      0.110500
     42 HA12        0.7470   -0.4140    3.1940 hc        1 LPF      0.110500
     43 HA2        -0.4350    0.9200    4.8970 hc        1 LPF      0.124000
     44 HA31        1.3210    0.8540    6.6400 hc        1 LPF      0.073667
     45 HA32        1.4560   -0.5740    5.5320 hc        1 LPF      0.073667
     46 HA33        2.6220    0.8080    5.3780 hc        1 LPF      0.073667
     47 HA41        1.7470    3.0470    4.3030 hc        1 LPF      0.073667
     48 HA42       -0.0500    3.2320    4.1510 hc        1 LPF      0.073667
     49 HA43        0.7010    3.0380    5.7830 hc        1 LPF      0.073667
@<TRIPOS>BOND
     1    1    2 1   
     2    1    3 1   
     3    1    4 1   
     4    1    5 1   
     5    5    6 1   
     6    5    7 1   
     7    7    8 1   
     8    7   15 1   
     9    7   27 1   
    10    8    9 1   
    11    8   28 1   
    12    8   29 1   
    13    9   10 1   
    14    9   14 1   
    15   10   11 1   
    16   10   30 1   
    17   11   12 1   
    18   11   31 1   
    19   12   13 1   
    20   12   32 1   
    21   13   14 1   
    22   13   33 1   
    23   14   34 1   
    24   15   16 1   
    25   15   35 1   
    26   16   17 1   
    27   16   18 1   
    28   18   19 1   
    29   18   23 1   
    30   18   36 1   
    31   19   20 1   
    32   19   37 1   
    33   20   21 1   
    34   22   39 1   
    35   22   40 1   
    36   23   24 1   
    37   23   41 1   
    38   23   42 1   
    39   24   25 1   
    40   24   26 1   
    41   24   43 1   
    42   25   44 1   
    43   25   45 1   
    44   25   46 1   
    45   26   47 1   
    46   26   48 1   
    47   26   49 1   
@<TRIPOS>SUBSTRUCTURE
     1 LPF         1 TEMP              0 ****  ****    0 ROOT
