@<TRIPOS>MOLECULE
LPF
   51    47     1     0     0
SMALL
bcc


@<TRIPOS>ATOM
      1 C1        -15.2910  -30.5270 -231.4190 c3        1 LPF      0.570900
      2 F11       -15.8480  -29.4810 -230.7450 f         1 LPF     -0.199633
      3 F12       -13.9890  -30.1760 -231.6540 f         1 LPF     -0.199633
      4 F13       -15.8920  -30.5620 -232.6480 f         1 LPF     -0.199633
      5 C2        -15.4340  -31.8850 -230.6510 c         1 LPF      0.510100
      6 O2        -16.3830  -32.0920 -229.9070 o         1 LPF     -0.425100
      7 C3        -14.3280  -32.8980 -230.9090 c3        1 LPF      0.014500
      8 C4        -14.4820  -33.4540 -232.3390 c3        1 LPF     -0.046100
      9 CP1       -13.4170  -34.4420 -232.6520 ca        1 LPF     -0.159300
     10 CP2       -13.6990  -35.8150 -232.6130 ca        1 LPF     -0.128500
     11 CP3       -12.7100  -36.7400 -232.9440 ca        1 LPF     -0.115500
     12 CP4       -11.4370  -36.3030 -233.3150 ca        1 LPF     -0.098000
     13 CP5       -11.1550  -34.9370 -233.3580 ca        1 LPF     -0.115500
     14 CP6       -12.1410  -34.0070 -233.0300 ca        1 LPF     -0.128500
     15 N3        -14.3290  -33.9980 -229.8910 n4        1 LPF     -0.662800
     16 CN1       -13.5160  -33.7280 -228.6420 c         1 LPF      0.531100
     17 ON1       -12.8390  -32.7140 -228.6300 o         1 LPF     -0.422100
     18 CN2       -13.6440  -34.7380 -227.4800 c3        1 LPF      0.132500
     19 NL1       -14.3730  -35.9160 -227.8660 n3        1 LPF     -0.964800
     20 CL1        77.1680  290.4800    0.7780 cl        1 LPF      0.209000
     21 OL1        75.4740  290.0780    0.5230 o         1 LPF     -0.178000
     22 CL2        74.7230  289.8040    0.4390 cl        1 LPF      0.209000
     23 CA1       -12.2170  -34.9710 -226.9500 c3        1 LPF     -0.106400
     24 CA2       -12.2190  -35.6960 -225.6110 c3        1 LPF     -0.066700
     25 CA3       -10.8080  -36.1530 -225.2920 c3        1 LPF     -0.099600
     26 CA4       -12.7440  -34.8140 -224.4970 c3        1 LPF     -0.099600
     27 H3        -13.3260  -32.3620 -230.8370 hx        1 LPF      0.159700
     28 H41       -14.4150  -32.5740 -233.0400 hc        1 LPF      0.097700
     29 H42       -15.5000  -33.9110 -232.4680 hc        1 LPF      0.097700
     30 HP2       -14.7120  -36.1660 -232.3660 ha        1 LPF      0.140000
     31 HP3       -12.9400  -37.8170 -232.9290 ha        1 LPF      0.156500
     32 HP4       -10.6600  -37.0350 -233.5860 ha        1 LPF      0.158000
     33 HP5       -10.1550  -34.5890 -233.6650 ha        1 LPF      0.156500
     34 HP6       -11.9200  -32.9300 -233.0860 ha        1 LPF      0.140000
     35 HN3       -13.9530  -34.8530 -230.3350 hn        1 LPF      0.480800
     36 HN2       -14.2240  -34.1520 -226.6960 h1        1 LPF      0.118700
     37 HL1       -15.1240  -36.1160 -227.2360 hn        1 LPF      0.401800
     38 HL21       75.1230  289.9640    0.4510 DU        1 LPF      0.254000
     39 HL22       73.4680  289.4970    0.5560 ha        1 LPF      0.251000
     40 HL23       77.3710  290.5720    0.4410 DU        1 LPF      0.254000
     41 HA11      -11.6290  -35.5670 -227.6970 hc        1 LPF      0.074700
     42 HA12      -11.7090  -33.9760 -226.8290 hc        1 LPF      0.074700
     43 HA2       -12.8740  -36.6100 -225.6840 hc        1 LPF      0.044700
     44 HA31      -10.4280  -36.8420 -226.0830 hc        1 LPF      0.048367
     45 HA32      -10.1180  -35.2770 -225.2200 hc        1 LPF      0.048367
     46 HA33      -10.7940  -36.6940 -224.3150 hc        1 LPF      0.048367
     47 HA41      -13.8160  -34.5500 -224.6630 hc        1 LPF      0.048367
     48 HA42      -12.6660  -35.3500 -223.5190 hc        1 LPF      0.048367
     49 HA43      -12.1500  -33.8700 -224.4260 hc        1 LPF      0.048367
     50 H32       -15.3000  -34.1920 -229.6030 hn        1 LPF      0.480800
     51 HL12      -13.7780  -36.7160 -227.9640 hn        1 LPF      0.401800
@<TRIPOS>BOND
     1    1    2 1   
     2    1    3 1   
     3    1    4 1   
     4    1    5 1   
     5    5    6 2   
     6    5    7 1   
     7    7    8 1   
     8    7   15 1   
     9    7   27 1   
    10    8    9 1   
    11    8   28 1   
    12    8   29 1   
    13    9   10 ar  
    14    9   14 ar  
    15   10   11 ar  
    16   10   30 1   
    17   11   12 ar  
    18   11   31 1   
    19   12   13 ar  
    20   12   32 1   
    21   13   14 ar  
    22   13   33 1   
    23   14   34 1   
    24   15   16 1   
    25   15   35 1   
    26   15   50 1   
    27   16   17 2   
    28   16   18 1   
    29   18   19 1   
    30   18   23 1   
    31   18   36 1   
    32   19   37 1   
    33   19   51 1   
    34   20   21 1   
    35   22   39 1   
    36   23   24 1   
    37   23   41 1   
    38   23   42 1   
    39   24   25 1   
    40   24   26 1   
    41   24   43 1   
    42   25   44 1   
    43   25   45 1   
    44   25   46 1   
    45   26   47 1   
    46   26   48 1   
    47   26   49 1   
@<TRIPOS>SUBSTRUCTURE
     1 LPF         1 TEMP              0 ****  ****    0 ROOT
