@<TRIPOS>MOLECULE
LPG
   11    10     1     0     0
SMALL
bcc


@<TRIPOS>ATOM
      1 CB          2.1280   -0.1670    0.2860 c1        1 LPG     -0.038100
      2 C           0.4130   -1.7470    1.1150 c         1 LPG      0.904600
      3 O           0.3210   -2.0150    2.3450 o         1 LPG     -0.828300
      4 OXT         0.2100   -2.5520    0.1720 o         1 LPG     -0.828300
      5 N           0.4350    0.7130    1.7810 n3        1 LPG     -0.881800
      6 CA          0.7540   -0.2520    0.7260 c3        1 LPG      0.065600
      7 CG          3.2600   -0.1110   -0.1000 c1        1 LPG     -0.264500
      8 H          -0.4290    0.4080    2.1990 hn        1 LPG      0.334300
      9 H2          1.1330    0.6400    2.5010 hn        1 LPG      0.334300
     10 HCA         0.0900    0.0040   -0.1560 h1        1 LPG      0.064700
     11 HCG         4.2590   -0.0850   -0.4410 ha        1 LPG      0.138500
@<TRIPOS>BOND
     1    1    6 1   
     2    1    7 3   
     3    2    3 1   
     4    2    4 1   
     5    2    6 1   
     6    5    6 1   
     7    5    8 1   
     8    5    9 1   
     9    6   10 1   
    10    7   11 1   
@<TRIPOS>SUBSTRUCTURE
     1 LPG         1 TEMP              0 ****  ****    0 ROOT
