@<TRIPOS>MOLECULE
LPL
   43    42     1     0     0
SMALL
bcc


@<TRIPOS>ATOM
      1 N          -2.1610    1.1630    1.1630 n3        1 LPL     -0.893800
      2 CA         -0.7590    1.0590    1.3810 c3        1 LPL      0.156500
      3 CB         -0.4840    0.9750    2.8660 c3        1 LPL     -0.069400
      4 CG         -0.6140    2.3510    3.4810 c3        1 LPL     -0.067700
      5 CD1         0.7590    2.8710    3.8480 c3        1 LPL     -0.086600
      6 CD2        -1.4710    2.2680    4.7250 c3        1 LPL     -0.086600
      7 CH         -0.2340   -0.1840    0.7010 c3        1 LPL      0.115100
      8 OH         -1.2280   -1.1800    0.7120 oh        1 LPL     -0.656800
      9 CM          0.1370    0.1430   -0.7280 c3        1 LPL     -0.079400
     10 CA1         0.5670   -1.1220   -1.4390 c3        1 LPL     -0.191700
     11 CB1         0.6210   -0.8690   -2.9290 c3        1 LPL     -0.049400
     12 CG1         0.5770   -2.1900   -3.6660 c3        1 LPL     -0.070700
     13 CD3        -0.6550   -2.2370   -4.5420 c3        1 LPL     -0.082600
     14 CD4         1.8130   -2.3280   -4.5280 c3        1 LPL     -0.082600
     15 C           1.9370   -1.5350   -0.9470 c         1 LPL      0.909600
     16 O           2.1260   -2.7030   -0.5180 o         1 LPL     -0.844800
     17 OXT         2.8880   -0.7100   -0.9670 o         1 LPL     -0.844800
     18 H          -2.6060    0.9680    1.9400 hn        1 LPL      0.341300
     19 H2         -2.3660    2.0160    0.8990 hn        1 LPL      0.341300
     20 HA         -0.3120    1.8460    1.0120 h1        1 LPL      0.047700
     21 HB2        -1.1300    0.3690    3.2820 hc        1 LPL      0.048700
     22 HB3         0.4220    0.6370    3.0110 hc        1 LPL      0.048700
     23 HG         -1.0300    2.9570    2.8390 hc        1 LPL      0.060700
     24 HD11        1.3020    2.9600    3.0370 hc        1 LPL      0.026200
     25 HD12        0.6720    3.7450    4.2820 hc        1 LPL      0.026200
     26 HD13        1.1920    2.2430    4.4640 hc        1 LPL      0.026200
     27 HD21       -1.5160    3.1500    5.1500 hc        1 LPL      0.026200
     28 HD22       -1.0780    1.6240    5.3500 hc        1 LPL      0.026200
     29 HD23       -2.3750    1.9770    4.4800 hc        1 LPL      0.026200
     30 HH          0.5570   -0.5070    1.1770 h1        1 LPL      0.070700
     31 HO         -1.0390   -1.7800    1.3400 ho        1 LPL      0.460000
     32 HM1        -0.6370    0.5270   -1.1860 hc        1 LPL      0.021700
     33 HM2         0.8730    0.7870   -0.7350 hc        1 LPL      0.021700
     34 HA1        -0.0740   -1.8340   -1.2520 hc        1 LPL      0.040700
     35 HB11       -0.1440   -0.3220   -3.1950 hc        1 LPL      0.029700
     36 HB12        1.4500   -0.4000   -3.1510 hc        1 LPL      0.029700
     37 HG1         0.5460   -2.9220   -3.0210 hc        1 LPL      0.083700
     38 HD31       -0.6750   -1.4470   -5.1220 hc        1 LPL      0.020700
     39 HD32       -1.4570   -2.2480   -3.9780 hc        1 LPL      0.020700
     40 HD33       -0.6330   -3.0470   -5.0940 hc        1 LPL      0.020700
     41 HD41        1.7260   -3.1190   -5.1000 hc        1 LPL      0.020700
     42 HD42        2.6020   -2.4260   -3.9540 hc        1 LPL      0.020700
     43 HD43        1.9130   -1.5290   -5.0870 hc        1 LPL      0.020700
@<TRIPOS>BOND
     1    1    2 1   
     2    1   18 1   
     3    1   19 1   
     4    2    3 1   
     5    2    7 1   
     6    2   20 1   
     7    3    4 1   
     8    3   21 1   
     9    3   22 1   
    10    4    5 1   
    11    4    6 1   
    12    4   23 1   
    13    5   24 1   
    14    5   25 1   
    15    5   26 1   
    16    6   27 1   
    17    6   28 1   
    18    6   29 1   
    19    7    8 1   
    20    7    9 1   
    21    7   30 1   
    22    8   31 1   
    23    9   10 1   
    24    9   32 1   
    25    9   33 1   
    26   10   11 1   
    27   10   15 1   
    28   10   34 1   
    29   11   12 1   
    30   11   35 1   
    31   11   36 1   
    32   12   13 1   
    33   12   14 1   
    34   12   37 1   
    35   13   38 1   
    36   13   39 1   
    37   13   40 1   
    38   14   41 1   
    39   14   42 1   
    40   14   43 1   
    41   15   16 1   
    42   15   17 1   
@<TRIPOS>SUBSTRUCTURE
     1 LPL         1 TEMP              0 ****  ****    0 ROOT
