@<TRIPOS>MOLECULE
LPL
   43    42     1     0     0
SMALL
bcc


@<TRIPOS>ATOM
      1 N          -2.0960    0.4390    1.9930 n3        1 LPL     -0.898800
      2 CA         -0.6500    0.3190    1.9580 c3        1 LPL      0.134500
      3 CB         -0.0160   -0.4110    3.1540 c3        1 LPL     -0.115400
      4 CG         -0.3770    0.1590    4.5170 c3        1 LPL     -0.066700
      5 CD1         0.3380   -0.6280    5.5990 c3        1 LPL     -0.089600
      6 CD2        -0.0260    1.6280    4.6230 c3        1 LPL     -0.089600
      7 CH         -0.1430   -0.3860    0.6680 c3        1 LPL      0.135100
      8 OH         -0.8050   -1.6380    0.5210 oh        1 LPL     -0.622800
      9 CM         -0.3020    0.5150   -0.5490 c3        1 LPL     -0.074400
     10 CA1         0.4360   -0.0430   -1.7530 c3        1 LPL     -0.193700
     11 CB1        -0.1210    0.5240   -3.0450 c3        1 LPL     -0.064400
     12 CG1        -1.3970   -0.1710   -3.5060 c3        1 LPL     -0.069700
     13 CD3        -2.1910    0.7340   -4.4260 c3        1 LPL     -0.084100
     14 CD4        -1.0840   -1.4770   -4.2060 c3        1 LPL     -0.084100
     15 C           1.9630    0.2290   -1.6520 c         1 LPL      0.914600
     16 O           2.4580    0.4490   -0.5090 o         1 LPL     -0.846300
     17 OXT         2.6460    0.1870   -2.7140 o         1 LPL     -0.846300
     18 H          -2.3900    0.7560    2.8960 hn        1 LPL      0.332300
     19 H2         -2.5140   -0.4570    1.8210 hn        1 LPL      0.332300
     20 HA         -0.2400    1.3730    1.9400 h1        1 LPL      0.066700
     21 HB2         1.0980   -0.3670    3.0260 hc        1 LPL      0.055700
     22 HB3        -0.3160   -1.4920    3.1160 hc        1 LPL      0.055700
     23 HG         -1.4850    0.0430    4.6870 hc        1 LPL      0.026700
     24 HD11        0.0430   -0.2560    6.6100 hc        1 LPL      0.030533
     25 HD12        0.0780   -1.7110    5.5280 hc        1 LPL      0.030533
     26 HD13        1.4440   -0.5220    5.4920 hc        1 LPL      0.030533
     27 HD21        1.0400    1.7960    4.3380 hc        1 LPL      0.030533
     28 HD22       -0.6720    2.2340    3.9430 hc        1 LPL      0.030533
     29 HD23       -0.1770    1.9900    5.6690 hc        1 LPL      0.030533
     30 HH          0.9540   -0.6350    0.7910 h1        1 LPL      0.125700
     31 HO         -1.5130   -1.5170   -0.1210 ho        1 LPL      0.390000
     32 HM1        -1.3930    0.6460   -0.7780 hc        1 LPL      0.038200
     33 HM2         0.1250    1.5220   -0.3010 hc        1 LPL      0.038200
     34 HA1         0.3260   -1.1630   -1.7620 hc        1 LPL      0.039700
     35 HB11       -0.3270    1.6180   -2.9060 hc        1 LPL      0.051200
     36 HB12        0.6660    0.4300   -3.8420 hc        1 LPL      0.051200
     37 HG1        -2.0310   -0.3980   -2.6020 hc        1 LPL      0.031700
     38 HD31       -3.1070    0.2120   -4.7960 hc        1 LPL      0.023700
     39 HD32       -2.5040    1.6600   -3.8870 hc        1 LPL      0.023700
     40 HD33       -1.5730    1.0310   -5.3070 hc        1 LPL      0.023700
     41 HD41       -0.4990   -1.2900   -5.1380 hc        1 LPL      0.023700
     42 HD42       -0.4760   -2.1360   -3.5400 hc        1 LPL      0.023700
     43 HD43       -2.0260   -2.0110   -4.4790 hc        1 LPL      0.023700
@<TRIPOS>BOND
     1    1    2 1   
     2    1   18 1   
     3    1   19 1   
     4    2    3 1   
     5    2    7 1   
     6    2   20 1   
     7    3    4 1   
     8    3   21 1   
     9    3   22 1   
    10    4    5 1   
    11    4    6 1   
    12    4   23 1   
    13    5   24 1   
    14    5   25 1   
    15    5   26 1   
    16    6   27 1   
    17    6   28 1   
    18    6   29 1   
    19    7    8 1   
    20    7    9 1   
    21    7   30 1   
    22    8   31 1   
    23    9   10 1   
    24    9   32 1   
    25    9   33 1   
    26   10   11 1   
    27   10   15 1   
    28   10   34 1   
    29   11   12 1   
    30   11   35 1   
    31   11   36 1   
    32   12   13 1   
    33   12   14 1   
    34   12   37 1   
    35   13   38 1   
    36   13   39 1   
    37   13   40 1   
    38   14   41 1   
    39   14   42 1   
    40   14   43 1   
    41   15   16 1   
    42   15   17 1   
@<TRIPOS>SUBSTRUCTURE
     1 LPL         1 TEMP              0 ****  ****    0 ROOT
