@<TRIPOS>MOLECULE
LPM
   30    29     1     0     0
SMALL
bcc


@<TRIPOS>ATOM
      1 C1         -0.1470   -0.5500    0.0780 c         1 LPM      0.553100
      2 O           0.3780   -1.2790    0.8970 o         1 LPM     -0.380100
      3 N          -0.2400    0.9110    0.5030 nz        1 LPM     -0.771400
      4 C2         -0.7110   -0.8640   -1.2730 c3        1 LPM     -0.159400
      5 C3          0.1710   -0.3330   -2.3880 c3        1 LPM     -0.082400
      6 C4         -0.4820   -0.6010   -3.7310 c3        1 LPM     -0.089400
      7 C5          0.3620   -0.0370   -4.8590 c3        1 LPM     -0.069400
      8 C6         -0.4340    0.0790   -6.1440 c3        1 LPM      0.046400
      9 S6         -1.7280    1.2730   -5.8000 sh        1 LPM     -0.429900
     10 C7          0.4570    0.4930   -7.2970 c3        1 LPM     -0.082400
     11 C8         -0.1310    0.1210   -8.6360 c3        1 LPM     -0.005300
     12 S8          1.0130    0.6970   -9.8580 sh        1 LPM     -0.356900
     13 HN1         0.2170    1.0490    1.4130 hn        1 LPM      0.469467
     14 HN2         0.2170    1.5040   -0.1970 hn        1 LPM      0.469467
     15 H21        -1.7530   -0.4490   -1.3660 hc        1 LPM      0.120700
     16 H22        -0.7850   -1.9870   -1.3480 hc        1 LPM      0.120700
     17 H31         1.1770   -0.8290   -2.3520 hc        1 LPM      0.055200
     18 H32         0.3300    0.7720   -2.2730 hc        1 LPM      0.055200
     19 H41        -1.5050   -0.1330   -3.7530 hc        1 LPM      0.069200
     20 H42        -0.6160   -1.7050   -3.8750 hc        1 LPM      0.069200
     21 H51         1.2490   -0.7050   -5.0300 hc        1 LPM      0.061200
     22 H52         0.7560    0.9760   -4.5800 hc        1 LPM      0.061200
     23 H6         -0.9210   -0.9040   -6.3770 h1        1 LPM      0.078700
     24 HS6        -2.1300    1.5400   -7.0340 hs        1 LPM      0.235800
     25 H71         1.4580   -0.0100   -7.1910 hc        1 LPM      0.076700
     26 H72         0.6390    1.6010   -7.2540 hc        1 LPM      0.076700
     27 H81        -0.2660   -0.9860   -8.7140 h1        1 LPM      0.062200
     28 H82        -1.1310    0.5960   -8.7840 h1        1 LPM      0.062200
     29 HS8         0.3980    0.2600  -10.9450 hs        1 LPM      0.213800
     30 HN3        -1.2230    1.1900    0.5780 hn        1 LPM      0.469467
@<TRIPOS>BOND
     1    1    2 2   
     2    1    3 1   
     3    1    4 1   
     4    3   13 1   
     5    3   14 1   
     6    3   30 1   
     7    4    5 1   
     8    4   15 1   
     9    4   16 1   
    10    5    6 1   
    11    5   17 1   
    12    5   18 1   
    13    6    7 1   
    14    6   19 1   
    15    6   20 1   
    16    7    8 1   
    17    7   21 1   
    18    7   22 1   
    19    8    9 1   
    20    8   10 1   
    21    8   23 1   
    22    9   24 1   
    23   10   11 1   
    24   10   25 1   
    25   10   26 1   
    26   11   12 1   
    27   11   27 1   
    28   11   28 1   
    29   12   29 1   
@<TRIPOS>SUBSTRUCTURE
     1 LPM         1 TEMP              0 ****  ****    0 ROOT
