@<TRIPOS>MOLECULE
LPM
   30    29     1     0     0
SMALL
bcc


@<TRIPOS>ATOM
      1 C1         -0.1640   -0.5530    0.0770 c         1 LPM      0.553100
      2 O           0.3370   -1.3010    0.8950 o         1 LPM     -0.379100
      3 N          -0.2060    0.9100    0.5040 n4        1 LPM     -0.771400
      4 C2         -0.7410   -0.8450   -1.2730 c3        1 LPM     -0.159400
      5 C3          0.1590   -0.3450   -2.3890 c3        1 LPM     -0.082400
      6 C4         -0.5040   -0.5890   -3.7310 c3        1 LPM     -0.089400
      7 C5          0.3570   -0.0550   -4.8590 c3        1 LPM     -0.069400
      8 C6         -0.4350    0.0890   -6.1440 c3        1 LPM      0.046400
      9 S6         -1.6850    1.3280   -5.7990 sh        1 LPM     -0.429900
     10 C7          0.4690    0.4710   -7.2980 c3        1 LPM     -0.082400
     11 C8         -0.1330    0.1200   -8.6360 c3        1 LPM     -0.005300
     12 S8          1.0310    0.6530   -9.8590 sh        1 LPM     -0.356900
     13 HN1         0.2570    1.0310    1.4140 hn        1 LPM      0.469467
     14 HN2        -1.1780    1.2220    0.5810 hn        1 LPM      0.469467
     15 H21        -1.7670   -0.3940   -1.3640 hc        1 LPM      0.120700
     16 H22        -0.8540   -1.9660   -1.3490 hc        1 LPM      0.120700
     17 H31         1.1470   -0.8760   -2.3540 hc        1 LPM      0.055200
     18 H32         0.3560    0.7530   -2.2730 hc        1 LPM      0.055200
     19 H41        -0.6780   -1.6880   -3.8750 hc        1 LPM      0.069200
     20 H42        -1.5100   -0.0840   -3.7520 hc        1 LPM      0.069200
     21 H51         0.7870    0.9440   -4.5810 hc        1 LPM      0.061200
     22 H52         1.2200   -0.7540   -5.0320 hc        1 LPM      0.061200
     23 H6         -0.9560   -0.8760   -6.3760 h1        1 LPM      0.078700
     24 HS6        -2.0790    1.6090   -7.0320 hs        1 LPM      0.235800
     25 H71         0.6910    1.5720   -7.2550 hc        1 LPM      0.076700
     26 H72         1.4520   -0.0670   -7.1930 hc        1 LPM      0.076700
     27 H81        -1.1140    0.6320   -8.7840 h1        1 LPM      0.062700
     28 H82        -0.3090   -0.9800   -8.7130 h1        1 LPM      0.062700
     29 HS8         0.4000    0.2400  -10.9450 hs        1 LPM      0.213800
     30 HN3         0.2700    1.4880   -0.1960 hn        1 LPM      0.469467
@<TRIPOS>BOND
     1    1    2 2   
     2    1    3 1   
     3    1    4 1   
     4    3   13 1   
     5    3   14 1   
     6    3   30 1   
     7    4    5 1   
     8    4   15 1   
     9    4   16 1   
    10    5    6 1   
    11    5   17 1   
    12    5   18 1   
    13    6    7 1   
    14    6   19 1   
    15    6   20 1   
    16    7    8 1   
    17    7   21 1   
    18    7   22 1   
    19    8    9 1   
    20    8   10 1   
    21    8   23 1   
    22    9   24 1   
    23   10   11 1   
    24   10   25 1   
    25   10   26 1   
    26   11   12 1   
    27   11   27 1   
    28   11   28 1   
    29   12   29 1   
@<TRIPOS>SUBSTRUCTURE
     1 LPM         1 TEMP              0 ****  ****    0 ROOT
