@<TRIPOS>MOLECULE
LPM
   29    28     1     0     0
SMALL
bcc


@<TRIPOS>ATOM
      1 C1          0.3850   -0.0050    4.8800 c         1 LPM      0.655100
      2 O           1.4850    0.5840    4.8680 o         1 LPM     -0.613100
      3 N          -0.2160   -0.2990    6.0810 n         1 LPM     -0.683000
      4 C2         -0.3320   -0.4300    3.6130 c3        1 LPM     -0.148400
      5 C3          0.4050    0.0570    2.3840 c3        1 LPM     -0.072400
      6 C4         -0.3010   -0.3860    1.1210 c3        1 LPM     -0.087400
      7 C5          0.4320    0.1070   -0.1080 c3        1 LPM     -0.076400
      8 C6         -0.3020   -0.2410   -1.3870 c3        1 LPM      0.034400
      9 S6         -1.8680    0.6080   -1.5240 sh        1 LPM     -0.396900
     10 C7          0.5890    0.0020   -2.5900 c3        1 LPM     -0.071400
     11 C8         -0.0270   -0.5300   -3.8590 c3        1 LPM      0.001700
     12 S8          1.0270   -0.0360   -5.1950 sh        1 LPM     -0.381900
     13 HN1         0.2240   -0.0350    6.9260 hn        1 LPM      0.310500
     14 HN2        -1.0890   -0.7540    6.1180 hn        1 LPM      0.310500
     15 H21        -0.4050   -1.5500    3.5960 hc        1 LPM      0.062200
     16 H22        -1.3760   -0.0190    3.6170 hc        1 LPM      0.062200
     17 H31         0.4780    1.1760    2.4140 hc        1 LPM      0.059700
     18 H32         1.4560   -0.3360    2.4000 hc        1 LPM      0.059700
     19 H41        -0.3660   -1.5060    1.0960 hc        1 LPM      0.049700
     20 H42        -1.3530    0.0090    1.1090 hc        1 LPM      0.049700
     21 H51         0.5740    1.2190   -0.0460 hc        1 LPM      0.050700
     22 H52         1.4570   -0.3530   -0.1340 hc        1 LPM      0.050700
     23 H6         -0.6100   -1.3220   -1.3610 h1        1 LPM      0.088700
     24 HS6        -1.4440    1.8600   -1.5350 hs        1 LPM      0.209800
     25 H71         0.7880    1.1030   -2.6930 hc        1 LPM      0.063200
     26 H72         1.5810   -0.4990   -2.4180 hc        1 LPM      0.063200
     27 H81        -0.1070   -1.6430   -3.8200 h1        1 LPM      0.072200
     28 H82        -1.0580   -0.1140   -3.9900 h1        1 LPM      0.072200
     29 HS8         0.3030   -0.4840   -6.2050 hs        1 LPM      0.204800
@<TRIPOS>BOND
     1    1    2 2   
     2    1    3 1   
     3    1    4 1   
     4    3   13 1   
     5    3   14 1   
     6    4    5 1   
     7    4   15 1   
     8    4   16 1   
     9    5    6 1   
    10    5   17 1   
    11    5   18 1   
    12    6    7 1   
    13    6   19 1   
    14    6   20 1   
    15    7    8 1   
    16    7   21 1   
    17    7   22 1   
    18    8    9 1   
    19    8   10 1   
    20    8   23 1   
    21    9   24 1   
    22   10   11 1   
    23   10   25 1   
    24   10   26 1   
    25   11   12 1   
    26   11   27 1   
    27   11   28 1   
    28   12   29 1   
@<TRIPOS>SUBSTRUCTURE
     1 LPM         1 TEMP              0 ****  ****    0 ROOT
