@<TRIPOS>MOLECULE
LPM
   30    29     1     0     0
SMALL
bcc


@<TRIPOS>ATOM
      1 C1         -0.2530   -0.5390    0.0790 c         1 LPM      0.553100
      2 O           0.2050   -1.3030    0.9070 o         1 LPM     -0.380100
      3 N          -0.2450    0.9260    0.5010 n4        1 LPM     -0.771400
      4 C2         -0.8190   -0.8140   -1.2800 c3        1 LPM     -0.159400
      5 C3          0.1150   -0.3490   -2.3820 c3        1 LPM     -0.082400
      6 C4         -0.5350   -0.5740   -3.7340 c3        1 LPM     -0.089400
      7 C5          0.3610   -0.0740   -4.8500 c3        1 LPM     -0.069400
      8 C6         -0.4050    0.0900   -6.1480 c3        1 LPM      0.046400
      9 S6         -1.6190    1.3710   -5.8280 sh        1 LPM     -0.429900
     10 C7          0.5290    0.4390   -7.2890 c3        1 LPM     -0.082400
     11 C8         -0.0610    0.1020   -8.6360 c3        1 LPM     -0.005300
     12 S8          1.1370    0.5930   -9.8410 sh        1 LPM     -0.356900
     13 HN1        -1.2060    1.2760    0.5600 hn        1 LPM      0.469467
     14 HN2         0.2060    1.0320    1.4190 hn        1 LPM      0.469467
     15 H21        -0.9710   -1.9290   -1.3550 hc        1 LPM      0.120700
     16 H22        -1.8270   -0.3260   -1.3870 hc        1 LPM      0.120700
     17 H31         0.3480    0.7430   -2.2670 hc        1 LPM      0.055200
     18 H32         1.0830   -0.9130   -2.3300 hc        1 LPM      0.055200
     19 H41        -0.7440   -1.6670   -3.8780 hc        1 LPM      0.069200
     20 H42        -1.5230   -0.0360   -3.7720 hc        1 LPM      0.069200
     21 H51         1.2030   -0.8010   -5.0060 hc        1 LPM      0.061200
     22 H52         0.8190    0.9120   -4.5690 hc        1 LPM      0.061200
     23 H6         -0.9540   -0.8580   -6.3860 h1        1 LPM      0.078700
     24 HS6        -1.9840    1.6600   -7.0690 hs        1 LPM      0.235800
     25 H71         1.4920   -0.1300   -7.1650 hc        1 LPM      0.076700
     26 H72         0.7860    1.5320   -7.2460 hc        1 LPM      0.076700
     27 H81        -0.2710   -0.9930   -8.7110 h1        1 LPM      0.062700
     28 H82        -1.0240    0.6430   -8.8000 h1        1 LPM      0.062700
     29 HS8         0.5110    0.1960  -10.9360 hs        1 LPM      0.213800
     30 HN3         0.2650    1.4820   -0.1920 hn        1 LPM      0.469467
@<TRIPOS>BOND
     1    1    2 2   
     2    1    3 1   
     3    1    4 1   
     4    3   13 1   
     5    3   14 1   
     6    3   30 1   
     7    4    5 1   
     8    4   15 1   
     9    4   16 1   
    10    5    6 1   
    11    5   17 1   
    12    5   18 1   
    13    6    7 1   
    14    6   19 1   
    15    6   20 1   
    16    7    8 1   
    17    7   21 1   
    18    7   22 1   
    19    8    9 1   
    20    8   10 1   
    21    8   23 1   
    22    9   24 1   
    23   10   11 1   
    24   10   25 1   
    25   10   26 1   
    26   11   12 1   
    27   11   27 1   
    28   11   28 1   
    29   12   29 1   
@<TRIPOS>SUBSTRUCTURE
     1 LPM         1 TEMP              0 ****  ****    0 ROOT
