@<TRIPOS>MOLECULE
LPM
   29    27     1     0     0
SMALL
bcc


@<TRIPOS>ATOM
      1 C1          0.1790   -0.1760    4.3790 c1        1 LPM      0.300000
      2 O           1.3930   -0.1760    4.3790 o         1 LPM     -0.372000
      3 N          -0.5310   -0.1760    5.6080 n2        1 LPM     -0.442000
      4 C2         -0.5780   -0.1730    3.0690 c3        1 LPM     -0.178000
      5 C3          0.3950    0.0160    1.9250 c3        1 LPM     -0.153000
      6 C4         -0.3640    0.0370    0.6160 c3        1 LPM     -0.163000
      7 C5          0.6130    0.1770   -0.5300 c3        1 LPM     -0.167000
      8 C6         -0.1460    0.2150   -1.8380 c3        1 LPM     -0.180000
      9 S6         -0.9400    1.7910   -2.0150 sh        1 LPM     -0.044000
     10 C7          0.8160    0.0030   -2.9860 c3        1 LPM     -0.141000
     11 C8          0.0370   -0.3180   -4.2430 c3        1 LPM     -0.255000
     12 S8          1.1660   -0.5830   -5.5850 sh        1 LPM     -0.028000
     13 HN1        -0.0750   -0.1750    6.3970 hn        1 LPM      0.224500
     14 HN2        -1.4430   -0.1930    5.6080 hn        1 LPM      0.224500
     15 H21        -1.2260    0.5570    3.0690 hc        1 LPM      0.100500
     16 H22        -1.0460   -1.0230    2.9610 hc        1 LPM      0.100500
     17 H31         0.8710    0.8600    2.0390 hc        1 LPM      0.103000
     18 H32         1.0350   -0.7200    1.9180 hc        1 LPM      0.103000
     19 H41        -0.8650   -0.7950    0.5170 hc        1 LPM      0.077000
     20 H42        -0.9820    0.7920    0.6110 hc        1 LPM      0.077000
     21 H51         1.2250   -0.5830   -0.5310 hc        1 LPM      0.101000
     22 H52         1.1220    1.0040   -0.4250 hc        1 LPM      0.101000
     23 H6         -0.8200   -0.4910   -1.8430 h1        1 LPM      0.108000
     24 HS6        -2.1050    1.6380   -2.0880 hs        1 LPM      0.031000
     25 H71         1.3390    0.8150   -3.1260 hc        1 LPM      0.110000
     26 H72         1.4150   -0.7380   -2.7760 hc        1 LPM      0.110000
     27 H81        -0.4930   -1.1240   -4.1000 h1        1 LPM      0.110000
     28 H82        -0.5550    0.4280   -4.4590 h1        1 LPM      0.110000
     29 HS8         0.5630   -0.8900   -6.5500 hs        1 LPM      0.032000
@<TRIPOS>BOND
     1    1    2 1   
     2    1    4 1   
     3    3   13 1   
     4    3   14 1   
     5    4    5 1   
     6    4   15 1   
     7    4   16 1   
     8    5    6 1   
     9    5   17 1   
    10    5   18 1   
    11    6    7 1   
    12    6   19 1   
    13    6   20 1   
    14    7    8 1   
    15    7   21 1   
    16    7   22 1   
    17    8    9 1   
    18    8   10 1   
    19    8   23 1   
    20    9   24 1   
    21   10   11 1   
    22   10   25 1   
    23   10   26 1   
    24   11   12 1   
    25   11   27 1   
    26   11   28 1   
    27   12   29 1   
@<TRIPOS>SUBSTRUCTURE
     1 LPM         1 TEMP              0 ****  ****    0 ROOT
