@<TRIPOS>MOLECULE
LPN
   86    90     1     0     0
SMALL
bcc


@<TRIPOS>ATOM
      1 CL1         0.9490    0.8870    0.9800 cl        1 LPN     -0.075400
      2 C2          2.6140    0.6990    1.2660 ca        1 LPN      0.015900
      3 C3          3.0890    0.2160    2.4990 ca        1 LPN      0.080100
      4 C4          3.5120    1.0330    0.2500 ca        1 LPN     -0.117500
      5 O5          2.2130   -0.0040    3.5520 os        1 LPN     -0.349900
      6 C6          4.4750    0.0620    2.6910 ca        1 LPN      0.015900
      7 C7          4.8880    0.8850    0.4470 ca        1 LPN     -0.049300
      8 C8          1.7090   -1.3530    3.5960 c3        1 LPN      0.122400
      9 CL9         5.0980   -0.5300    4.1560 cl        1 LPN     -0.075400
     10 C10         5.3650    0.4000    1.6690 ca        1 LPN     -0.117500
     11 C11         5.8370    1.2240   -0.6400 c3        1 LPN     -0.062800
     12 C12         0.9120   -1.4520    4.8900 c3        1 LPN      0.120400
     13 O13        -0.4370   -1.0960    4.5530 os        1 LPN     -0.318900
     14 C14        -1.2320   -0.6690    5.5900 ca        1 LPN      0.151100
     15 C15        -2.4230   -0.0230    5.2000 ca        1 LPN     -0.174500
     16 C16        -0.9400   -0.8590    6.9480 ca        1 LPN     -0.174500
     17 C17        -3.2920    0.4480    6.1740 ca        1 LPN     -0.097000
     18 C18        -1.8280   -0.3810    7.9090 ca        1 LPN     -0.097000
     19 C19        -2.9980    0.2890    7.5370 ca        1 LPN     -0.169300
     20 C20        -3.9720    0.7750    8.5600 c3        1 LPN     -0.002400
     21 C21        -3.3140    1.7130    9.5820 c3        1 LPN     -0.133700
     22 C22        -4.5950   -0.4060    9.3000 c3        1 LPN     -0.075400
     23 C23        -2.8250    2.9740    8.9070 c         1 LPN      0.567100
     24 C24        -4.3460    2.1420   10.6520 c3        1 LPN      0.170800
     25 C25        -5.5390    0.0530   10.4080 c3        1 LPN      0.151800
     26 O26        -3.5080    3.8190    8.3500 o         1 LPN     -0.424100
     27 N27        -1.3160    3.2190    8.9590 n4        1 LPN     -0.560200
     28 N28        -4.9120    0.9930   11.3190 n3        1 LPN     -0.823200
     29 C29        -0.9270    3.4780   10.3600 cx        1 LPN     -0.001500
     30 C30        -0.8680    4.2960    8.0100 c3        1 LPN      0.168100
     31 C31        -0.5920    4.8530   10.9010 cx        1 LPN     -0.098900
     32 C32         0.4910    3.8270   10.7670 cx        1 LPN     -0.098900
     33 C33        -0.6800    3.8130    6.6110 ca        1 LPN     -0.165300
     34 C34         0.3890    2.9710    6.2630 ca        1 LPN      0.017400
     35 C35        -1.5320    4.2860    5.6080 ca        1 LPN     -0.085000
     36 CL36        1.4350    2.3630    7.4650 cl        1 LPN     -0.104400
     37 C37         0.6110    2.6220    4.9300 ca        1 LPN     -0.100000
     38 C38        -1.3120    3.9510    4.2680 ca        1 LPN     -0.061300
     39 C39        -0.2350    3.1180    3.9380 ca        1 LPN     -0.078000
     40 C40        -2.2100    4.4730    3.2020 c3        1 LPN     -0.045100
     41 C41        -1.5500    5.5970    2.4270 c3        1 LPN     -0.082400
     42 C42        -2.4670    6.0830    1.3170 c3        1 LPN      0.129400
     43 O43        -1.7860    7.1590    0.6780 os        1 LPN     -0.421600
     44 C44        -2.5230    7.7050   -0.4030 c3        1 LPN      0.114700
     45 H4          3.1350    1.4140   -0.7130 ha        1 LPN      0.159500
     46 H8          2.5670   -2.0740    3.6180 h1        1 LPN      0.069200
     47 H8A         1.0610   -1.5340    2.7000 h1        1 LPN      0.069200
     48 H10         6.4500    0.2830    1.8250 ha        1 LPN      0.159500
     49 H11         5.4230    2.0290   -1.2960 hc        1 LPN      0.057367
     50 H11A        6.8140    1.5730   -0.2240 hc        1 LPN      0.057367
     51 H11B        6.0270    0.3200   -1.2720 hc        1 LPN      0.057367
     52 H12         1.3280   -0.7520    5.6610 h1        1 LPN      0.062700
     53 H12A        0.9130   -2.5070    5.2710 h1        1 LPN      0.062700
     54 H15        -2.6500    0.0890    4.1300 ha        1 LPN      0.156500
     55 H16        -0.0350   -1.3990    7.2600 ha        1 LPN      0.156500
     56 H17        -4.2260    0.9470    5.8680 ha        1 LPN      0.136500
     57 H18        -1.6120   -0.5660    8.9730 ha        1 LPN      0.136500
     58 H20        -4.7970    1.3510    8.0490 hc        1 LPN      0.076700
     59 H21        -2.4720    1.1550   10.0800 hc        1 LPN      0.094700
     60 H22        -3.7840   -1.0500    9.7300 hc        1 LPN      0.070200
     61 H22A       -5.1740   -1.0300    8.5700 hc        1 LPN      0.070200
     62 H24        -3.8270    2.7710   11.4300 h1        1 LPN      0.046200
     63 H24A       -5.1210    2.7870   10.1400 h1        1 LPN      0.046200
     64 H25        -6.4680    0.4840    9.9300 h1        1 LPN      0.051700
     65 H25A       -5.8490   -0.8430   11.0170 h1        1 LPN      0.051700
     66 HN28       -5.5560    1.2860   12.0300 hn        1 LPN      0.391800
     67 H29        -1.4910    2.7900   11.0370 hx        1 LPN      0.133700
     68 H30        -1.6330    5.1270    8.0450 hx        1 LPN      0.112200
     69 H30A        0.1180    4.7020    8.3840 hx        1 LPN      0.112200
     70 H31        -0.5900    5.7340   10.2330 hc        1 LPN      0.107950
     71 H31A       -0.9840    5.1090   11.9050 hc        1 LPN      0.107950
     72 H32         1.2770    3.9610   10.0000 hc        1 LPN      0.107950
     73 H32A        0.8910    3.3300   11.6730 hc        1 LPN      0.107950
     74 H35        -2.3820    4.9360    5.8770 ha        1 LPN      0.151000
     75 H37         1.4440    1.9490    4.6540 ha        1 LPN      0.189000
     76 H39        -0.0510    2.8460    2.8850 ha        1 LPN      0.167000
     77 H40        -2.4720    3.6380    2.4970 hc        1 LPN      0.058200
     78 H40A       -3.1710    4.8420    3.6520 hc        1 LPN      0.058200
     79 H41        -0.5830    5.2450    1.9820 hc        1 LPN      0.062200
     80 H41A       -1.3110    6.4540    3.1100 hc        1 LPN      0.062200
     81 H42        -2.6690    5.2660    0.5740 h1        1 LPN      0.028700
     82 H42A       -3.4450    6.4470    1.7320 h1        1 LPN      0.028700
     83 H44        -1.8710    8.5250   -0.7960 h1        1 LPN      0.038033
     84 H44A       -2.6990    6.9310   -1.1910 h1        1 LPN      0.038033
     85 H44B       -3.5000    8.1150   -0.0470 h1        1 LPN      0.038033
     86 H271       -0.8630    2.3340    8.6710 hn        1 LPN      0.468800
@<TRIPOS>BOND
     1    1    2 1   
     2    2    3 ar  
     3    2    4 ar  
     4    3    5 1   
     5    3    6 ar  
     6    4    7 ar  
     7    4   45 1   
     8    5    8 1   
     9    6    9 1   
    10    6   10 ar  
    11    7   10 ar  
    12    7   11 1   
    13    8   12 1   
    14    8   46 1   
    15    8   47 1   
    16   10   48 1   
    17   11   49 1   
    18   11   50 1   
    19   11   51 1   
    20   12   13 1   
    21   12   52 1   
    22   12   53 1   
    23   13   14 1   
    24   14   15 ar  
    25   14   16 ar  
    26   15   17 ar  
    27   15   54 1   
    28   16   18 ar  
    29   16   55 1   
    30   17   19 ar  
    31   17   56 1   
    32   18   19 ar  
    33   18   57 1   
    34   19   20 1   
    35   20   21 1   
    36   20   22 1   
    37   20   58 1   
    38   21   23 1   
    39   21   24 1   
    40   21   59 1   
    41   22   25 1   
    42   22   60 1   
    43   22   61 1   
    44   23   26 2   
    45   23   27 1   
    46   24   28 1   
    47   24   62 1   
    48   24   63 1   
    49   25   28 1   
    50   25   64 1   
    51   25   65 1   
    52   27   29 1   
    53   27   30 1   
    54   27   86 1   
    55   28   66 1   
    56   29   31 1   
    57   29   32 1   
    58   29   67 1   
    59   30   33 1   
    60   30   68 1   
    61   30   69 1   
    62   31   32 1   
    63   31   70 1   
    64   31   71 1   
    65   32   72 1   
    66   32   73 1   
    67   33   34 ar  
    68   33   35 ar  
    69   34   36 1   
    70   34   37 ar  
    71   35   38 ar  
    72   35   74 1   
    73   37   39 ar  
    74   37   75 1   
    75   38   39 ar  
    76   38   40 1   
    77   39   76 1   
    78   40   41 1   
    79   40   77 1   
    80   40   78 1   
    81   41   42 1   
    82   41   79 1   
    83   41   80 1   
    84   42   43 1   
    85   42   81 1   
    86   42   82 1   
    87   43   44 1   
    88   44   83 1   
    89   44   84 1   
    90   44   85 1   
@<TRIPOS>SUBSTRUCTURE
     1 LPN         1 TEMP              0 ****  ****    0 ROOT
