@<TRIPOS>MOLECULE
LPN
   85    89     1     0     0
SMALL
bcc


@<TRIPOS>ATOM
      1 CL1        -4.4330    1.0090    0.5190 cl        1 LPN     -0.070900
      2 C2         -5.4230    0.2920   -0.6600 ca        1 LPN      0.015400
      3 C3         -4.9570   -0.7740   -1.4510 ca        1 LPN      0.097100
      4 C4         -6.7180    0.7840   -0.8370 ca        1 LPN     -0.121500
      5 O5         -3.6350   -1.1800   -1.3690 os        1 LPN     -0.329900
      6 C6         -5.8170   -1.3460   -2.4080 ca        1 LPN      0.015400
      7 C7         -7.5650    0.2190   -1.7940 ca        1 LPN     -0.060300
      8 C8         -3.4300   -2.2630   -0.4410 c3        1 LPN      0.123400
      9 CL9        -5.3120   -2.6450   -3.3800 cl        1 LPN     -0.070900
     10 C10        -7.1110   -0.8470   -2.5770 ca        1 LPN     -0.121500
     11 C11        -8.9320    0.7560   -1.9900 c3        1 LPN     -0.057800
     12 C12        -1.9280   -2.5250   -0.4460 c3        1 LPN      0.124400
     13 O13        -1.4430   -2.0170    0.8020 os        1 LPN     -0.332900
     14 C14        -0.0710   -2.0170    0.9610 ca        1 LPN      0.127100
     15 C15         0.3870   -1.3720    2.1260 ca        1 LPN     -0.182000
     16 C16         0.8350   -2.6110    0.0750 ca        1 LPN     -0.182000
     17 C17         1.7490   -1.3280    2.3880 ca        1 LPN     -0.088500
     18 C18         2.2000   -2.5550    0.3580 ca        1 LPN     -0.088500
     19 C19         2.6710   -1.9180    1.5090 ca        1 LPN     -0.115300
     20 C20         4.1300   -1.8700    1.8350 c3        1 LPN     -0.009400
     21 C21         4.9400   -1.1260    0.7660 c3        1 LPN     -0.158700
     22 C22         4.6720   -3.2840    2.0240 c3        1 LPN     -0.110400
     23 C23         4.5600    0.3510    0.7430 c         1 LPN      0.672100
     24 C24         6.4460   -1.1980    1.1010 c3        1 LPN      0.154800
     25 C25         6.1750   -3.2660    2.3000 c3        1 LPN      0.146800
     26 O26         4.3920    0.9780    1.8100 o         1 LPN     -0.613100
     27 N27         4.4880    1.0250   -0.4750 n         1 LPN     -0.438800
     28 N28         6.9620   -2.5290    1.3300 n3        1 LPN     -0.793200
     29 C29         4.4290    0.3080   -1.7080 cx        1 LPN      0.030700
     30 C30         4.1230    2.4270   -0.4990 c3        1 LPN      0.131300
     31 C31         5.6550   -0.3380   -2.3350 cx        1 LPN     -0.129900
     32 C32         5.0290    0.8520   -2.9920 cx        1 LPN     -0.129900
     33 C33         2.6710    2.7120   -0.7720 ca        1 LPN     -0.100300
     34 C34         2.2410    3.4660   -1.8720 ca        1 LPN      0.023400
     35 C35         1.7130    2.2350    0.1320 ca        1 LPN     -0.106000
     36 CL36        3.3410    4.1030   -3.0110 cl        1 LPN     -0.107400
     37 C37         0.8800    3.7260   -2.0680 ca        1 LPN     -0.128000
     38 C38         0.3510    2.4800   -0.0600 ca        1 LPN     -0.070300
     39 C39        -0.0590    3.2300   -1.1690 ca        1 LPN     -0.115000
     40 C40        -0.6520    1.9360    0.8950 c3        1 LPN     -0.045100
     41 C41        -0.7350    2.7710    2.1570 c3        1 LPN     -0.080400
     42 C42        -1.7260    2.1510    3.1250 c3        1 LPN      0.130400
     43 O43        -1.7960    3.0180    4.2550 os        1 LPN     -0.420600
     44 C44        -2.6780    2.5380    5.2540 c3        1 LPN      0.116700
     45 H4         -7.0750    1.6230   -0.2180 ha        1 LPN      0.153000
     46 H8         -3.7880   -1.9610    0.5770 h1        1 LPN      0.060200
     47 H8A        -3.9890   -3.1640   -0.8020 h1        1 LPN      0.060200
     48 H10        -7.7770   -1.2950   -3.3310 ha        1 LPN      0.153000
     49 H11        -8.9120    1.5740   -2.7540 hc        1 LPN      0.051700
     50 H11A       -9.6280   -0.0410   -2.3480 hc        1 LPN      0.051700
     51 H11B       -9.3360    1.1770   -1.0360 hc        1 LPN      0.051700
     52 H12        -1.7240   -3.6260   -0.4980 h1        1 LPN      0.059700
     53 H12A       -1.4310   -1.9950   -1.3000 h1        1 LPN      0.059700
     54 H15        -0.3400   -0.9120    2.8110 ha        1 LPN      0.142500
     55 H16         0.4900   -3.1170   -0.8360 ha        1 LPN      0.142500
     56 H17         2.1110   -0.8120    3.2920 ha        1 LPN      0.137500
     57 H18         2.9100   -3.0240   -0.3390 ha        1 LPN      0.137500
     58 H20         4.2690   -1.3060    2.8040 hc        1 LPN      0.082700
     59 H21         4.7530   -1.6110   -0.2310 hc        1 LPN      0.067700
     60 H22         4.1460   -3.7670    2.8860 hc        1 LPN      0.049200
     61 H22A        4.4580   -3.8970    1.1110 hc        1 LPN      0.049200
     62 H24         7.0270   -0.7300    0.2580 h1        1 LPN      0.066200
     63 H24A        6.6270   -0.5930    2.0350 h1        1 LPN      0.066200
     64 H25         6.3550   -2.7950    3.3080 h1        1 LPN      0.056200
     65 H25A        6.5580   -4.3230    2.3380 h1        1 LPN      0.056200
     66 HN28        6.9960   -3.0370    0.4630 hn        1 LPN      0.348800
     67 H29         3.4680   -0.2510   -1.8150 h1        1 LPN      0.079700
     68 H30         4.3780    2.8730    0.5090 h1        1 LPN      0.078700
     69 H30A        4.7670    2.9300   -1.2760 h1        1 LPN      0.078700
     70 H31         6.6430   -0.2190   -1.8550 hc        1 LPN      0.078200
     71 H31A        5.5340   -1.3370   -2.7890 hc        1 LPN      0.078200
     72 H32         4.4470    0.7190   -3.9210 hc        1 LPN      0.078200
     73 H32A        5.5730    1.8140   -2.9830 hc        1 LPN      0.078200
     74 H35         2.0510    1.6590    1.0100 ha        1 LPN      0.157000
     75 H37         0.5510    4.3200   -2.9340 ha        1 LPN      0.145000
     76 H39        -1.1290    3.4290   -1.3320 ha        1 LPN      0.139000
     77 H40        -1.6630    1.8960    0.4060 hc        1 LPN      0.057200
     78 H40A       -0.3740    0.8780    1.1630 hc        1 LPN      0.057200
     79 H41         0.2730    2.8360    2.6450 hc        1 LPN      0.060200
     80 H41A       -1.0550    3.8160    1.9130 hc        1 LPN      0.060200
     81 H42        -2.7440    2.0610    2.6580 h1        1 LPN      0.022700
     82 H42A       -1.3870    1.1310    3.4510 h1        1 LPN      0.022700
     83 H44        -3.7190    2.4540    4.8550 h1        1 LPN      0.031700
     84 H44A       -2.3380    1.5450    5.6380 h1        1 LPN      0.031700
     85 H44B       -2.6300    3.3090    6.0640 h1        1 LPN      0.031700
@<TRIPOS>BOND
     1    1    2 1   
     2    2    3 ar  
     3    2    4 ar  
     4    3    5 1   
     5    3    6 ar  
     6    4    7 ar  
     7    4   45 1   
     8    5    8 1   
     9    6    9 1   
    10    6   10 ar  
    11    7   10 ar  
    12    7   11 1   
    13    8   12 1   
    14    8   46 1   
    15    8   47 1   
    16   10   48 1   
    17   11   49 1   
    18   11   50 1   
    19   11   51 1   
    20   12   13 1   
    21   12   52 1   
    22   12   53 1   
    23   13   14 1   
    24   14   15 ar  
    25   14   16 ar  
    26   15   17 ar  
    27   15   54 1   
    28   16   18 ar  
    29   16   55 1   
    30   17   19 ar  
    31   17   56 1   
    32   18   19 ar  
    33   18   57 1   
    34   19   20 1   
    35   20   21 1   
    36   20   22 1   
    37   20   58 1   
    38   21   23 1   
    39   21   24 1   
    40   21   59 1   
    41   22   25 1   
    42   22   60 1   
    43   22   61 1   
    44   23   26 2   
    45   23   27 1   
    46   24   28 1   
    47   24   62 1   
    48   24   63 1   
    49   25   28 1   
    50   25   64 1   
    51   25   65 1   
    52   27   29 1   
    53   27   30 1   
    54   28   66 1   
    55   29   31 1   
    56   29   32 1   
    57   29   67 1   
    58   30   33 1   
    59   30   68 1   
    60   30   69 1   
    61   31   32 1   
    62   31   70 1   
    63   31   71 1   
    64   32   72 1   
    65   32   73 1   
    66   33   34 ar  
    67   33   35 ar  
    68   34   36 1   
    69   34   37 ar  
    70   35   38 ar  
    71   35   74 1   
    72   37   39 ar  
    73   37   75 1   
    74   38   39 ar  
    75   38   40 1   
    76   39   76 1   
    77   40   41 1   
    78   40   77 1   
    79   40   78 1   
    80   41   42 1   
    81   41   79 1   
    82   41   80 1   
    83   42   43 1   
    84   42   81 1   
    85   42   82 1   
    86   43   44 1   
    87   44   83 1   
    88   44   84 1   
    89   44   85 1   
@<TRIPOS>SUBSTRUCTURE
     1 LPN         1 TEMP              0 ****  ****    0 ROOT
