@<TRIPOS>MOLECULE
LPN
   85    83     1     0     0
SMALL
bcc


@<TRIPOS>ATOM
      1 CL1        -8.7600    1.3220    0.1270 cl        1 LPN      0.006000
      2 C2         -7.7870    1.6640    1.5370 c2        1 LPN     -0.062000
      3 C3         -7.1190    2.8820    1.6430 c2        1 LPN      0.050000
      4 C4         -7.7610    0.7600    2.6000 c1        1 LPN     -0.119000
      5 O5         -7.0900    3.7900    0.5150 os        1 LPN     -0.201000
      6 C6         -6.4240    3.1980    2.8110 c1        1 LPN     -0.069000
      7 C7         -7.0690    1.0750    3.7650 c1        1 LPN     -0.055000
      8 C8         -6.1100    4.8330    0.6300 c3        1 LPN     -0.025000
      9 CL9        -5.6730    4.7660    2.9830 cl        1 LPN      0.006000
     10 C10        -6.4000    2.2960    3.8700 c2        1 LPN     -0.119000
     11 C11        -6.6960   -0.0820    4.7160 c3        1 LPN     -0.182000
     12 C12        -4.9830    4.5870   -0.3730 c3        1 LPN     -0.055000
     13 O13        -3.7930    4.2750    0.3240 os        1 LPN     -0.215000
     14 C14        -2.7120    3.9590   -0.5100 c2        1 LPN      0.083000
     15 C15        -1.6210    4.8250   -0.5900 c2        1 LPN     -0.158000
     16 C16        -2.6630    2.7200   -1.1400 c1        1 LPN     -0.202000
     17 C17        -0.4880    4.4500   -1.2960 c1        1 LPN     -0.098000
     18 C18        -1.5300    2.3450   -1.8460 c1        1 LPN     -0.077000
     19 C19        -0.4390    3.2100   -1.9250 c1        1 LPN     -0.111000
     20 C20         0.7810    2.8440   -2.8290 c3        1 LPN     -0.053000
     21 C21         1.6490    1.8320   -2.0920 c3        1 LPN     -0.152000
     22 C22         1.5090    4.0820   -3.1690 c3        1 LPN     -0.190000
     23 C23         0.8800    0.5160   -1.8280 c2        1 LPN      0.316000
     24 C24         2.9610    1.6100   -2.9000 c3        1 LPN     -0.085000
     25 C25         2.7890    3.8230   -3.9050 c3        1 LPN     -0.091000
     26 O26        -0.2350    0.3660   -2.2750 o         1 LPN     -0.370000
     27 N27         1.4670   -0.5070   -1.0000 n         1 LPN     -0.300000
     28 N28         3.6460    2.8620   -3.2410 n3        1 LPN     -0.272000
     29 C29         0.7190   -1.7170   -0.7030 cx        1 LPN     -0.034000
     30 C30         2.8320   -0.3510   -0.5040 c3        1 LPN      0.019000
     31 C31         0.5370   -2.6810   -1.8610 cx        1 LPN     -0.215500
     32 C32        -0.6330   -1.8410   -1.3830 cx        1 LPN     -0.215500
     33 C33         3.2150   -1.5770    0.3320 c2        1 LPN     -0.095000
     34 C34         2.8040   -1.6700    1.6610 c2        1 LPN     -0.057000
     35 C35         4.0110   -2.5730   -0.2210 c1        1 LPN     -0.106000
     36 CL36        1.9130   -0.3600    2.3910 cl        1 LPN     -0.017000
     37 C37         3.1900   -2.7580    2.4310 c1        1 LPN     -0.124000
     38 C38         4.3970   -3.6610    0.5490 c1        1 LPN     -0.064000
     39 C39         3.9860   -3.7550    1.8780 c1        1 LPN     -0.114000
     40 C40         5.1440   -4.8380   -0.1080 c3        1 LPN     -0.127000
     41 C41         6.2050   -5.3760    0.8600 c3        1 LPN     -0.155000
     42 C42         6.0760   -6.9230    0.9640 c3        1 LPN     -0.024000
     43 O43         5.6540   -7.2830    2.2930 os        1 LPN     -0.282000
     44 C44         4.6100   -8.2820    2.3270 c3        1 LPN     -0.074000
     45 H4         -8.2320   -0.0990    2.5260 ha        1 LPN      0.154000
     46 H8         -6.5320    5.7010    0.4430 h1        1 LPN      0.114500
     47 H8A        -5.7440    4.8370    1.5380 h1        1 LPN      0.114500
     48 H10        -5.9100    2.5180    4.6950 ha        1 LPN      0.153000
     49 H11        -6.9440   -0.9390    4.3030 hc        1 LPN      0.090333
     50 H11A       -5.7270   -0.0680    4.8850 hc        1 LPN      0.090333
     51 H11B       -7.1810    0.0250    5.5700 hc        1 LPN      0.090333
     52 H12        -5.2250    3.8360   -0.9620 h1        1 LPN      0.092500
     53 H12A       -4.8420    5.4020   -0.9190 h1        1 LPN      0.092500
     54 H15        -1.6560    5.7010   -0.1450 ha        1 LPN      0.147000
     55 H16        -3.4370    2.1050   -1.0840 ha        1 LPN      0.141000
     56 H17         0.2820    5.0620   -1.3510 ha        1 LPN      0.128000
     57 H18        -1.4950    1.4710   -2.2890 ha        1 LPN      0.146000
     58 H20         0.4500    2.4340   -3.6570 hc        1 LPN      0.123000
     59 H21         1.8480    2.1270   -1.1720 hc        1 LPN      0.103000
     60 H22         0.9290    4.6470   -3.7310 hc        1 LPN      0.089500
     61 H22A        1.7140    4.5660   -2.3400 hc        1 LPN      0.089500
     62 H24         2.7440    1.1330   -3.7300 h1        1 LPN      0.101000
     63 H24A        3.5680    1.0540   -2.3670 h1        1 LPN      0.101000
     64 H25         3.2750    4.6660   -3.9950 h1        1 LPN      0.096000
     65 H25A        2.5740    3.4850   -4.8020 h1        1 LPN      0.096000
     66 HN28        3.9940    3.2380   -2.4790 hn        1 LPN      0.144000
     67 H29         0.7880   -2.1280    0.1880 h1        1 LPN      0.130000
     68 H30         2.8880    0.4580    0.0540 h1        1 LPN      0.101000
     69 H30A        3.4500   -0.2670   -1.2660 h1        1 LPN      0.101000
     70 H31         0.9400   -2.4050   -2.7120 hc        1 LPN      0.118500
     71 H31A        0.5040   -3.6320   -1.6220 hc        1 LPN      0.118500
     72 H32        -1.3250   -2.3230   -0.8740 hc        1 LPN      0.118500
     73 H32A       -0.8850   -1.0970   -1.9650 hc        1 LPN      0.118500
     74 H35         4.2990   -2.5070   -1.1540 ha        1 LPN      0.140000
     75 H37         2.9000   -2.8250    3.3690 ha        1 LPN      0.148000
     76 H39         4.2580   -4.5220    2.4220 ha        1 LPN      0.145000
     77 H40         4.5050   -5.5530   -0.3220 hc        1 LPN      0.099000
     78 H40A        5.5810   -4.5300   -0.9340 hc        1 LPN      0.099000
     79 H41         7.1020   -5.1420    0.5260 hc        1 LPN      0.094500
     80 H41A        6.0720   -4.9760    1.7480 hc        1 LPN      0.094500
     81 H42         6.9520   -7.3410    0.7720 h1        1 LPN      0.068000
     82 H42A        5.4130   -7.2410    0.3130 h1        1 LPN      0.068000
     83 H44         4.8050   -8.9380    3.0430 h1        1 LPN      0.072333
     84 H44A        4.5710   -8.7460    1.4590 h1        1 LPN      0.072333
     85 H44B        3.7390   -7.8440    2.5080 h1        1 LPN      0.072333
@<TRIPOS>BOND
     1    1    2 1   
     2    2    3 1   
     3    2    4 1   
     4    3    5 1   
     5    3    6 1   
     6    4   45 1   
     7    5    8 1   
     8    6   10 1   
     9    7   10 1   
    10    7   11 1   
    11    8   12 1   
    12    8   46 1   
    13    8   47 1   
    14   10   48 1   
    15   11   49 1   
    16   11   50 1   
    17   11   51 1   
    18   12   13 1   
    19   12   52 1   
    20   12   53 1   
    21   13   14 1   
    22   14   15 1   
    23   14   16 1   
    24   15   17 1   
    25   15   54 1   
    26   16   55 1   
    27   17   56 1   
    28   18   19 1   
    29   18   57 1   
    30   19   20 1   
    31   20   21 1   
    32   20   22 1   
    33   20   58 1   
    34   21   23 1   
    35   21   24 1   
    36   21   59 1   
    37   22   25 1   
    38   22   60 1   
    39   22   61 1   
    40   23   26 1   
    41   23   27 1   
    42   24   28 1   
    43   24   62 1   
    44   24   63 1   
    45   25   28 1   
    46   25   64 1   
    47   25   65 1   
    48   27   29 1   
    49   27   30 1   
    50   28   66 1   
    51   29   31 1   
    52   29   32 1   
    53   29   67 1   
    54   30   33 1   
    55   30   68 1   
    56   30   69 1   
    57   31   32 1   
    58   31   70 1   
    59   31   71 1   
    60   32   72 1   
    61   32   73 1   
    62   33   34 1   
    63   33   35 1   
    64   34   36 1   
    65   34   37 1   
    66   35   74 1   
    67   37   75 1   
    68   38   39 1   
    69   38   40 1   
    70   39   76 1   
    71   40   41 1   
    72   40   77 1   
    73   40   78 1   
    74   41   42 1   
    75   41   79 1   
    76   41   80 1   
    77   42   43 1   
    78   42   81 1   
    79   42   82 1   
    80   43   44 1   
    81   44   83 1   
    82   44   84 1   
    83   44   85 1   
@<TRIPOS>SUBSTRUCTURE
     1 LPN         1 TEMP              0 ****  ****    0 ROOT
