@<TRIPOS>MOLECULE
LPN
   86    90     1     0     0
SMALL
bcc


@<TRIPOS>ATOM
      1 CL1         1.1230    0.6160    0.9420 cl        1 LPN     -0.075400
      2 C2          2.7770    0.4010    1.2720 ca        1 LPN      0.015400
      3 C3          3.2150   -0.0460    2.5320 ca        1 LPN      0.080100
      4 C4          3.7040    0.6790    0.2650 ca        1 LPN     -0.117500
      5 O5          2.3120   -0.2090    3.5720 os        1 LPN     -0.349900
      6 C6          4.5920   -0.2230    2.7590 ca        1 LPN      0.015400
      7 C7          5.0720    0.5080    0.4970 ca        1 LPN     -0.049300
      8 C8          1.7780   -1.5460    3.6520 c3        1 LPN      0.122400
      9 CL9         5.1710   -0.7740    4.2580 cl        1 LPN     -0.075400
     10 C10         5.5120    0.0580    1.7460 ca        1 LPN     -0.117500
     11 C11         6.0510    0.7870   -0.5800 c3        1 LPN     -0.062800
     12 C12         0.9510   -1.5820    4.9310 c3        1 LPN      0.120400
     13 O13        -0.3830   -1.2110    4.5520 os        1 LPN     -0.318900
     14 C14        -1.1910   -0.7340    5.5570 ca        1 LPN      0.151100
     15 C15        -2.3600   -0.0780    5.1200 ca        1 LPN     -0.174500
     16 C16        -0.9330   -0.8860    6.9260 ca        1 LPN     -0.174500
     17 C17        -3.2390    0.4420    6.0580 ca        1 LPN     -0.096500
     18 C18        -1.8310   -0.3590    7.8510 ca        1 LPN     -0.096500
     19 C19        -2.9780    0.3220    7.4320 ca        1 LPN     -0.168300
     20 C20        -3.9640    0.8600    8.4160 c3        1 LPN     -0.002400
     21 C21        -3.3080    1.8190    9.4210 c3        1 LPN     -0.133700
     22 C22        -4.6270   -0.2830    9.1810 c3        1 LPN     -0.075400
     23 C23        -2.7800    3.0470    8.7150 c         1 LPN      0.567100
     24 C24        -4.3540    2.3040   10.4530 c3        1 LPN      0.170800
     25 C25        -5.5840    0.2330   10.2520 c3        1 LPN      0.151800
     26 O26        -3.4330    3.8850    8.1140 o         1 LPN     -0.423100
     27 N27        -1.2680    3.2650    8.7960 n4        1 LPN     -0.560200
     28 N28        -4.9580    1.1890   11.1450 n3        1 LPN     -0.823200
     29 C29        -0.9070    3.5670   10.1960 cx        1 LPN     -0.001500
     30 C30        -0.7770    4.3000    7.8210 c3        1 LPN      0.168100
     31 C31        -0.5590    4.9530   10.6970 cx        1 LPN     -0.098900
     32 C32         0.5070    3.9040   10.6250 cx        1 LPN     -0.098900
     33 C33        -0.5650    3.7650    6.4450 ca        1 LPN     -0.164300
     34 C34         0.4930    2.8890    6.1520 ca        1 LPN      0.016400
     35 C35        -1.3800    4.2220    5.4050 ca        1 LPN     -0.084000
     36 CL36        1.4960    2.3000    7.4000 cl        1 LPN     -0.105400
     37 C37         0.7400    2.4910    4.8370 ca        1 LPN     -0.100000
     38 C38        -1.1330    3.8390    4.0810 ca        1 LPN     -0.062300
     39 C39        -0.0690    2.9730    3.8080 ca        1 LPN     -0.079000
     40 C40        -2.0020    4.3480    2.9850 c3        1 LPN     -0.045100
     41 C41        -1.8420    5.8440    2.7950 c3        1 LPN     -0.082400
     42 C42        -2.7460    6.3350    1.6770 c3        1 LPN      0.128400
     43 O43        -2.6250    7.7550    1.6610 os        1 LPN     -0.423600
     44 C44        -3.3670    8.3530    0.6110 c3        1 LPN      0.114700
     45 H4          3.3560    1.0320   -0.7200 ha        1 LPN      0.160000
     46 H8          1.1450   -1.7450    2.7490 h1        1 LPN      0.069200
     47 H8A         2.6190   -2.2830    3.7190 h1        1 LPN      0.069200
     48 H10         6.5900   -0.0770    1.9290 ha        1 LPN      0.160000
     49 H11         7.0210    1.1440   -0.1550 hc        1 LPN      0.057367
     50 H11A        5.6630    1.5650   -1.2830 hc        1 LPN      0.057367
     51 H11B        6.2470   -0.1480   -1.1640 hc        1 LPN      0.057367
     52 H12         1.3650   -0.8630    5.6860 h1        1 LPN      0.062700
     53 H12A        0.9220   -2.6220    5.3490 h1        1 LPN      0.062700
     54 H15        -2.5610    0.0040    4.0410 ha        1 LPN      0.156000
     55 H16        -0.0460   -1.4330    7.2760 ha        1 LPN      0.156000
     56 H17        -4.1560    0.9490    5.7160 ha        1 LPN      0.136500
     57 H18        -1.6420   -0.5140    8.9250 ha        1 LPN      0.136500
     58 H20        -4.7660    1.4360    7.8680 hc        1 LPN      0.076700
     59 H21        -2.4890    1.2610    9.9560 hc        1 LPN      0.094700
     60 H22        -3.8380   -0.9280    9.6500 hc        1 LPN      0.070200
     61 H22A       -5.2030   -0.9180    8.4590 hc        1 LPN      0.070200
     62 H24        -5.1050    2.9470    9.9030 h1        1 LPN      0.046200
     63 H24A       -3.8390    2.9480   11.2210 h1        1 LPN      0.046200
     64 H25        -6.4940    0.6660    9.7400 h1        1 LPN      0.051700
     65 H25A       -5.9260   -0.6360   10.8830 h1        1 LPN      0.051700
     66 HN28       -5.6110    1.5190   11.8320 hn        1 LPN      0.391800
     67 H29        -1.5000    2.9130   10.8830 hx        1 LPN      0.133700
     68 H30         0.2080    4.7010    8.2050 hx        1 LPN      0.112700
     69 H30A       -1.5260    5.1460    7.8090 hx        1 LPN      0.112700
     70 H31        -0.9710    5.2500   11.6820 hc        1 LPN      0.108200
     71 H31A       -0.5250    5.8100    9.9990 hc        1 LPN      0.108200
     72 H32         0.8760    3.4320   11.5570 hc        1 LPN      0.108200
     73 H32A        1.3140    3.9960    9.8740 hc        1 LPN      0.108200
     74 H35        -2.2220    4.8990    5.6260 ha        1 LPN      0.153000
     75 H37         1.5640    1.7900    4.6050 ha        1 LPN      0.188000
     76 H39         0.1380    2.6570    2.7700 ha        1 LPN      0.166000
     77 H40        -3.0740    4.1130    3.2260 hc        1 LPN      0.059700
     78 H40A       -1.7550    3.8220    2.0230 hc        1 LPN      0.059700
     79 H41        -2.1000    6.3850    3.7430 hc        1 LPN      0.059200
     80 H41A       -0.7780    6.0950    2.5480 hc        1 LPN      0.059200
     81 H42        -3.8160    6.0520    1.8670 h1        1 LPN      0.029700
     82 H42A       -2.4270    5.9120    0.6870 h1        1 LPN      0.029700
     83 H44        -4.4570    8.1280    0.7210 h1        1 LPN      0.038367
     84 H44A       -3.0020    7.9950   -0.3840 h1        1 LPN      0.038367
     85 H44B       -3.1780    9.4490    0.7280 h1        1 LPN      0.038367
     86 H271       -0.8250    2.3630    8.5500 hn        1 LPN      0.467800
@<TRIPOS>BOND
     1    1    2 1   
     2    2    3 ar  
     3    2    4 ar  
     4    3    5 1   
     5    3    6 ar  
     6    4    7 ar  
     7    4   45 1   
     8    5    8 1   
     9    6    9 1   
    10    6   10 ar  
    11    7   10 ar  
    12    7   11 1   
    13    8   12 1   
    14    8   46 1   
    15    8   47 1   
    16   10   48 1   
    17   11   49 1   
    18   11   50 1   
    19   11   51 1   
    20   12   13 1   
    21   12   52 1   
    22   12   53 1   
    23   13   14 1   
    24   14   15 ar  
    25   14   16 ar  
    26   15   17 ar  
    27   15   54 1   
    28   16   18 ar  
    29   16   55 1   
    30   17   19 ar  
    31   17   56 1   
    32   18   19 ar  
    33   18   57 1   
    34   19   20 1   
    35   20   21 1   
    36   20   22 1   
    37   20   58 1   
    38   21   23 1   
    39   21   24 1   
    40   21   59 1   
    41   22   25 1   
    42   22   60 1   
    43   22   61 1   
    44   23   26 2   
    45   23   27 1   
    46   24   28 1   
    47   24   62 1   
    48   24   63 1   
    49   25   28 1   
    50   25   64 1   
    51   25   65 1   
    52   27   29 1   
    53   27   30 1   
    54   27   86 1   
    55   28   66 1   
    56   29   31 1   
    57   29   32 1   
    58   29   67 1   
    59   30   33 1   
    60   30   68 1   
    61   30   69 1   
    62   31   32 1   
    63   31   70 1   
    64   31   71 1   
    65   32   72 1   
    66   32   73 1   
    67   33   34 ar  
    68   33   35 ar  
    69   34   36 1   
    70   34   37 ar  
    71   35   38 ar  
    72   35   74 1   
    73   37   39 ar  
    74   37   75 1   
    75   38   39 ar  
    76   38   40 1   
    77   39   76 1   
    78   40   41 1   
    79   40   77 1   
    80   40   78 1   
    81   41   42 1   
    82   41   79 1   
    83   41   80 1   
    84   42   43 1   
    85   42   81 1   
    86   42   82 1   
    87   43   44 1   
    88   44   83 1   
    89   44   84 1   
    90   44   85 1   
@<TRIPOS>SUBSTRUCTURE
     1 LPN         1 TEMP              0 ****  ****    0 ROOT
