@<TRIPOS>MOLECULE
LPN
   86    90     1     0     0
SMALL
bcc


@<TRIPOS>ATOM
      1 Cl1         1.1430    0.5930    0.9560 cl        1 LPN     -0.075400
      2 C2          2.8000    0.4040    1.2850 ca        1 LPN      0.015400
      3 C3          3.2470   -0.0220    2.5490 ca        1 LPN      0.080100
      4 C4          3.7210    0.6810    0.2720 ca        1 LPN     -0.117500
      5 O5          2.3470   -0.1860    3.5930 os        1 LPN     -0.349900
      6 C6          4.6270   -0.1800    2.7760 ca        1 LPN      0.015400
      7 C7          5.0920    0.5310    0.5040 ca        1 LPN     -0.049300
      8 C8          1.8320   -1.5290    3.6890 c3        1 LPN      0.122400
      9 Cl9         5.2150   -0.7070    4.2790 cl        1 LPN     -0.075400
     10 C10         5.5400    0.1010    1.7570 ca        1 LPN     -0.117500
     11 C11         6.0670    0.8380   -0.5690 c3        1 LPN     -0.062800
     12 C12         1.0080   -1.5620    4.9700 c3        1 LPN      0.120400
     13 O13        -0.3320   -1.2150    4.5880 os        1 LPN     -0.318900
     14 C14        -1.1460   -0.7410    5.5890 ca        1 LPN      0.151100
     15 C15        -2.3260   -0.1080    5.1460 ca        1 LPN     -0.174500
     16 C16        -0.8840   -0.8730    6.9590 ca        1 LPN     -0.174500
     17 C17        -3.2120    0.4090    6.0800 ca        1 LPN     -0.096500
     18 C18        -1.7890   -0.3500    7.8800 ca        1 LPN     -0.096500
     19 C19        -2.9470    0.3080    7.4540 ca        1 LPN     -0.168300
     20 C20        -3.9400    0.8430    8.4340 c3        1 LPN     -0.002400
     21 C21        -3.2980    1.8220    9.4280 c3        1 LPN     -0.133700
     22 C22        -4.5840   -0.3020    9.2130 c3        1 LPN     -0.075400
     23 C23        -2.7880    3.0500    8.7080 c         1 LPN      0.567100
     24 C24        -4.3490    2.3030   10.4560 c3        1 LPN      0.170800
     25 C25        -5.5480    0.2110   10.2790 c3        1 LPN      0.151800
     26 O26        -3.4540    3.8720    8.0980 o         1 LPN     -0.423100
     27 N27        -1.2790    3.2910    8.7830 nx        1 LPN     -0.560200
     28 N28        -4.9360    1.1870   11.1610 n7        1 LPN     -0.823200
     29 C29        -0.9210    3.6120   10.1800 cx        1 LPN     -0.001500
     30 C30        -0.8050    4.3220    7.7970 c3        1 LPN      0.168100
     31 C31        -0.5930    5.0090   10.6660 cx        1 LPN     -0.098900
     32 C32         0.4880    3.9750   10.6030 cx        1 LPN     -0.098900
     33 C33        -0.5880    3.7760    6.4260 ca        1 LPN     -0.164300
     34 C34         0.4840    2.9130    6.1410 ca        1 LPN      0.016400
     35 C35        -1.4110    4.2100    5.3840 ca        1 LPN     -0.084000
     36 Cl36        1.4970    2.3520    7.3940 cl        1 LPN     -0.105400
     37 C37         0.7340    2.5040    4.8300 ca        1 LPN     -0.100000
     38 C38        -1.1600    3.8160    4.0630 ca        1 LPN     -0.062300
     39 C39        -0.0840    2.9620    3.7970 ca        1 LPN     -0.079000
     40 C40        -2.0380    4.3010    2.9620 c3        1 LPN     -0.045100
     41 C41        -1.9030    5.7970    2.7590 c3        1 LPN     -0.082400
     42 C42        -2.8170    6.2620    1.6370 c3        1 LPN      0.128400
     43 O43        -2.7210    7.6840    1.6080 os        1 LPN     -0.423600
     44 C44        -3.4740    8.2590    0.5540 c3        1 LPN      0.114700
     45 H4          3.3670    1.0150   -0.7160 ha        1 LPN      0.160000
     46 H8          1.2010   -1.7470    2.7890 h1        1 LPN      0.069200
     47 H8A         2.6830   -2.2540    3.7620 h1        1 LPN      0.069200
     48 H10         6.6200   -0.0210    1.9390 ha        1 LPN      0.160000
     49 H11         6.9750    0.1930   -0.4800 hc        1 LPN      0.057367
     50 H11A        6.3890    1.9080   -0.4930 hc        1 LPN      0.057367
     51 H11B        5.6160    0.6780   -1.5790 hc        1 LPN      0.057367
     52 H12         0.9950   -2.5980    5.4000 h1        1 LPN      0.062700
     53 H12A        1.4130   -0.8290    5.7150 h1        1 LPN      0.062700
     54 H15        -2.5290   -0.0410    4.0670 ha        1 LPN      0.156000
     55 H16         0.0120   -1.4020    7.3130 ha        1 LPN      0.156000
     56 H17        -4.1370    0.8970    5.7330 ha        1 LPN      0.136500
     57 H18        -1.5960   -0.4890    8.9550 ha        1 LPN      0.136500
     58 H20        -4.7510    1.4000    7.8810 hc        1 LPN      0.076700
     59 H21        -2.4700    1.2820    9.9680 hc        1 LPN      0.094700
     60 H22        -5.1510   -0.9540    8.4990 hc        1 LPN      0.070200
     61 H22A       -3.7850   -0.9290    9.6880 hc        1 LPN      0.070200
     62 H24        -3.8440    2.9630   11.2160 h1        1 LPN      0.046200
     63 H24A       -5.1100    2.9280    9.8990 h1        1 LPN      0.046200
     64 H25        -6.4650    0.6240    9.7630 h1        1 LPN      0.051700
     65 H25A       -5.8760   -0.6560   10.9200 h1        1 LPN      0.051700
     66 HN28       -5.5930    1.5140   11.8440 hn        1 LPN      0.391800
     67 H29        -1.5030    2.9570   10.8750 hx        1 LPN      0.133700
     68 H30        -1.5660    5.1570    7.7770 hx        1 LPN      0.112700
     69 H30A        0.1750    4.7410    8.1750 hx        1 LPN      0.112700
     70 H31        -0.5720    5.8590    9.9580 hc        1 LPN      0.108200
     71 H31A       -1.0070    5.3110   11.6480 hc        1 LPN      0.108200
     72 H32         0.8660    3.5180   11.5390 hc        1 LPN      0.108200
     73 H32A        1.2930    4.0710    9.8490 hc        1 LPN      0.108200
     74 H35        -2.2630    4.8760    5.5980 ha        1 LPN      0.153000
     75 H37         1.5680    1.8130    4.6040 ha        1 LPN      0.188000
     76 H39         0.1270    2.6390    2.7630 ha        1 LPN      0.166000
     77 H40        -1.7830    3.7700    2.0060 hc        1 LPN      0.059700
     78 H40A       -3.1060    4.0500    3.2070 hc        1 LPN      0.059700
     79 H41        -2.1690    6.3420    3.7020 hc        1 LPN      0.059200
     80 H41A       -0.8440    6.0630    2.5070 hc        1 LPN      0.059200
     81 H42        -3.8810    5.9620    1.8310 h1        1 LPN      0.029700
     82 H42A       -2.4910    5.8360    0.6510 h1        1 LPN      0.029700
     83 H44        -4.5600    8.0160    0.6670 h1        1 LPN      0.038367
     84 H44A       -3.3040    9.3600    0.6610 h1        1 LPN      0.038367
     85 H44B       -3.1040    7.8990   -0.4380 h1        1 LPN      0.038367
     86 H271       -0.8240    2.3920    8.5470 hn        1 LPN      0.467800
@<TRIPOS>BOND
     1    1    2 1   
     2    2    3 ar  
     3    2    4 ar  
     4    3    5 1   
     5    3    6 ar  
     6    4    7 ar  
     7    4   45 1   
     8    5    8 1   
     9    6    9 1   
    10    6   10 ar  
    11    7   10 ar  
    12    7   11 1   
    13    8   12 1   
    14    8   46 1   
    15    8   47 1   
    16   10   48 1   
    17   11   49 1   
    18   11   50 1   
    19   11   51 1   
    20   12   13 1   
    21   12   52 1   
    22   12   53 1   
    23   13   14 1   
    24   14   15 ar  
    25   14   16 ar  
    26   15   17 ar  
    27   15   54 1   
    28   16   18 ar  
    29   16   55 1   
    30   17   19 ar  
    31   17   56 1   
    32   18   19 ar  
    33   18   57 1   
    34   19   20 1   
    35   20   21 1   
    36   20   22 1   
    37   20   58 1   
    38   21   23 1   
    39   21   24 1   
    40   21   59 1   
    41   22   25 1   
    42   22   60 1   
    43   22   61 1   
    44   23   26 2   
    45   23   27 1   
    46   24   28 1   
    47   24   62 1   
    48   24   63 1   
    49   25   28 1   
    50   25   64 1   
    51   25   65 1   
    52   27   29 1   
    53   27   30 1   
    54   27   86 1   
    55   28   66 1   
    56   29   31 1   
    57   29   32 1   
    58   29   67 1   
    59   30   33 1   
    60   30   68 1   
    61   30   69 1   
    62   31   32 1   
    63   31   70 1   
    64   31   71 1   
    65   32   72 1   
    66   32   73 1   
    67   33   34 ar  
    68   33   35 ar  
    69   34   36 1   
    70   34   37 ar  
    71   35   38 ar  
    72   35   74 1   
    73   37   39 ar  
    74   37   75 1   
    75   38   39 ar  
    76   38   40 1   
    77   39   76 1   
    78   40   41 1   
    79   40   77 1   
    80   40   78 1   
    81   41   42 1   
    82   41   79 1   
    83   41   80 1   
    84   42   43 1   
    85   42   81 1   
    86   42   82 1   
    87   43   44 1   
    88   44   83 1   
    89   44   84 1   
    90   44   85 1   
@<TRIPOS>SUBSTRUCTURE
     1 LPN         1 TEMP              0 ****  ****    0 ROOT
