@<TRIPOS>MOLECULE
LPO
   83    87     1     0     0
SMALL
bcc


@<TRIPOS>ATOM
      1 C1          0.3920   -0.1230    0.1000 c3        1 LPO     -0.107400
      2 C2          1.9160   -0.1970    0.1280 c3        1 LPO      0.154800
      3 N3          2.4400   -0.2860    1.4780 n7        1 LPO     -0.823200
      4 C4          1.8970   -1.4000    2.2230 c3        1 LPO      0.168800
      5 C5          0.3540   -1.3090    2.3050 c3        1 LPO     -0.125700
      6 C6         -0.2480   -1.2880    0.8750 c3        1 LPO      0.231100
      7 C7         -0.1180   -2.5050    3.0980 c         1 LPO      0.571100
      8 N8         -0.9460   -2.1730    4.3500 nx        1 LPO     -0.565200
      9 O9          0.1010   -2.5410    0.2970 oh        1 LPO     -0.592800
     10 C10        -1.7390   -1.1090    0.9190 ca        1 LPO     -0.323600
     11 C11        -2.3160    0.0060    1.5570 ca        1 LPO      0.424200
     12 N12        -3.6370    0.2340    1.6390 nb        1 LPO     -0.724000
     13 C13        -4.4540   -0.6710    1.0340 ca        1 LPO      0.652600
     14 C14        -3.9730   -1.8090    0.3230 ca        1 LPO     -0.253300
     15 C15        -2.6040   -2.0190    0.2830 ca        1 LPO     -0.044000
     16 O16        -5.8190   -0.5560    1.0610 os        1 LPO     -0.434100
     17 C17        -6.3950    0.4500    1.9160 c3        1 LPO      0.131400
     18 C18        -7.8590    0.0580    2.0700 c3        1 LPO      0.118400
     19 O19        -7.8980   -0.8870    3.1580 os        1 LPO     -0.347900
     20 C20        -9.1890   -1.2460    3.5180 ca        1 LPO      0.080100
     21 C21        -9.7950   -2.3820    2.9520 ca        1 LPO      0.015400
     22 C22       -11.0460   -2.8080    3.4020 ca        1 LPO     -0.118000
     23 C23       -11.7090   -2.1080    4.4150 ca        1 LPO     -0.049300
     24 C24       -11.1120   -0.9750    4.9780 ca        1 LPO     -0.118000
     25 C25        -9.8610   -0.5400    4.5330 ca        1 LPO      0.015400
     26 Cl26       -9.1770    0.8440    5.2410 cl        1 LPO     -0.074400
     27 Cl27       -9.0300   -3.2610    1.7130 cl        1 LPO     -0.074400
     28 C28       -13.0440   -2.5520    4.8780 c3        1 LPO     -0.062800
     29 O29         0.1150   -3.6820    2.8910 o         1 LPO     -0.396100
     30 C30        -1.6900   -3.3640    4.8880 c3        1 LPO      0.166100
     31 C31        -0.0520   -1.5440    5.3430 cx        1 LPO     -0.001500
     32 C32        -3.0010   -3.5950    4.2140 ca        1 LPO     -0.166300
     33 C33        -3.1710   -4.7420    3.4330 ca        1 LPO     -0.085000
     34 C34        -4.4200   -5.0510    2.8810 ca        1 LPO     -0.065300
     35 C35        -5.5000   -4.1890    3.1060 ca        1 LPO     -0.083000
     36 C36        -5.3420   -3.0320    3.8680 ca        1 LPO     -0.102000
     37 C37        -4.0940   -2.7370    4.4220 ca        1 LPO      0.015400
     38 C38         0.4980   -2.2620    6.5580 cx        1 LPO     -0.098400
     39 C39        -0.5050   -1.1650    6.7390 cx        1 LPO     -0.098400
     40 Cl40       -3.9170   -1.3210    5.3530 cl        1 LPO     -0.096400
     41 C41        -4.5910   -6.2700    2.0480 c3        1 LPO     -0.053100
     42 C42        -5.4400   -7.3140    2.7630 c3        1 LPO      0.133400
     43 O43        -5.5930   -8.3910    1.8430 os        1 LPO     -0.422600
     44 C44        -6.3650   -9.4560    2.3740 c3        1 LPO      0.114700
     45 H1          0.0470   -0.1600   -0.9660 hc        1 LPO      0.073700
     46 H1A         0.0430    0.8460    0.5400 hc        1 LPO      0.073700
     47 H2          2.3350    0.7410   -0.3350 h1        1 LPO      0.054700
     48 H2A         2.2360   -1.0750   -0.5090 h1        1 LPO      0.054700
     49 HN3         3.4420   -0.3320    1.4670 hn        1 LPO      0.393800
     50 H4          2.1490   -2.4060    1.7710 h1        1 LPO      0.056700
     51 H4A         2.3220   -1.3590    3.2650 h1        1 LPO      0.056700
     52 H5          0.0590   -0.3400    2.7960 hc        1 LPO      0.093700
     53 HO9         0.0200   -2.4510   -0.6620 ho        1 LPO      0.428000
     54 H11        -1.6870    0.7870    2.0260 h4        1 LPO      0.022100
     55 H14        -4.6860   -2.4840   -0.1680 ha        1 LPO      0.175000
     56 H15        -2.1950   -2.9010   -0.2370 ha        1 LPO      0.158000
     57 H17        -5.8860    0.4670    2.9130 h1        1 LPO      0.074700
     58 H17A       -6.3020    1.4430    1.4050 h1        1 LPO      0.074700
     59 H18        -8.2550   -0.4320    1.1430 h1        1 LPO      0.069200
     60 H18A       -8.4680    0.9610    2.3330 h1        1 LPO      0.069200
     61 H22       -11.5170   -3.7000    2.9560 ha        1 LPO      0.159500
     62 H24       -11.6330   -0.4230    5.7770 ha        1 LPO      0.159500
     63 H28       -13.1740   -3.6530    4.7340 hc        1 LPO      0.057033
     64 H28A      -13.1910   -2.3160    5.9610 hc        1 LPO      0.057033
     65 H28B      -13.8420   -2.0260    4.2940 hc        1 LPO      0.057033
     66 H30        -1.8790   -3.1910    5.9880 hx        1 LPO      0.112700
     67 H30A       -1.0220   -4.2680    4.7800 hx        1 LPO      0.112700
     68 H31         0.6310   -0.8270    4.8240 hx        1 LPO      0.131700
     69 H33        -2.3140   -5.4130    3.2540 ha        1 LPO      0.154000
     70 H35        -6.4890   -4.4200    2.6720 ha        1 LPO      0.166000
     71 H36        -6.2000   -2.3500    4.0180 ha        1 LPO      0.190000
     72 H38         1.5610   -2.0810    6.8120 hc        1 LPO      0.107950
     73 H38A        0.2050   -3.3070    6.7710 hc        1 LPO      0.107950
     74 H39        -1.5280   -1.4110    7.0820 hc        1 LPO      0.107950
     75 H39A       -0.1770   -0.1800    7.1240 hc        1 LPO      0.107950
     76 H41        -3.5970   -6.7230    1.7920 hc        1 LPO      0.073200
     77 H41A       -5.0910   -6.0000    1.0780 hc        1 LPO      0.073200
     78 H42        -6.4470   -6.8960    3.0320 h1        1 LPO      0.032200
     79 H42A       -4.9330   -7.6780    3.6950 h1        1 LPO      0.032200
     80 H44        -6.3960  -10.2110    1.5490 h1        1 LPO      0.039700
     81 H44A       -5.8730   -9.8850    3.2820 h1        1 LPO      0.039700
     82 H44B       -7.3960   -9.1070    2.6260 h1        1 LPO      0.039700
     83 H81        -1.6440   -1.4640    4.0720 hn        1 LPO      0.463800
@<TRIPOS>BOND
     1    1    2 1   
     2    1    6 1   
     3    1   45 1   
     4    1   46 1   
     5    2    3 1   
     6    2   47 1   
     7    2   48 1   
     8    3    4 1   
     9    3   49 1   
    10    4    5 1   
    11    4   50 1   
    12    4   51 1   
    13    5    6 1   
    14    5    7 1   
    15    5   52 1   
    16    6    9 1   
    17    6   10 1   
    18    7    8 1   
    19    7   29 2   
    20    8   30 1   
    21    8   31 1   
    22    8   83 1   
    23    9   53 1   
    24   10   11 ar  
    25   10   15 ar  
    26   11   12 ar  
    27   11   54 1   
    28   12   13 ar  
    29   13   14 ar  
    30   13   16 1   
    31   14   15 ar  
    32   14   55 1   
    33   15   56 1   
    34   16   17 1   
    35   17   18 1   
    36   17   57 1   
    37   17   58 1   
    38   18   19 1   
    39   18   59 1   
    40   18   60 1   
    41   19   20 1   
    42   20   21 ar  
    43   20   25 ar  
    44   21   22 ar  
    45   21   27 1   
    46   22   23 ar  
    47   22   61 1   
    48   23   24 ar  
    49   23   28 1   
    50   24   25 ar  
    51   24   62 1   
    52   25   26 1   
    53   28   63 1   
    54   28   64 1   
    55   28   65 1   
    56   30   32 1   
    57   30   66 1   
    58   30   67 1   
    59   31   38 1   
    60   31   39 1   
    61   31   68 1   
    62   32   33 ar  
    63   32   37 ar  
    64   33   34 ar  
    65   33   69 1   
    66   34   35 ar  
    67   34   41 1   
    68   35   36 ar  
    69   35   70 1   
    70   36   37 ar  
    71   36   71 1   
    72   37   40 1   
    73   38   39 1   
    74   38   72 1   
    75   38   73 1   
    76   39   74 1   
    77   39   75 1   
    78   41   42 1   
    79   41   76 1   
    80   41   77 1   
    81   42   43 1   
    82   42   78 1   
    83   42   79 1   
    84   43   44 1   
    85   44   80 1   
    86   44   81 1   
    87   44   82 1   
@<TRIPOS>SUBSTRUCTURE
     1 LPO         1 TEMP              0 ****  ****    0 ROOT
