@<TRIPOS>MOLECULE
LPO
   82    86     1     0     0
SMALL
bcc


@<TRIPOS>ATOM
      1 C1         -4.5370   -3.6750   -0.3420 c3        1 LPO     -0.106400
      2 C2         -6.0330   -3.7580   -0.6340 c3        1 LPO      0.162800
      3 N3         -6.7650   -2.5980   -0.1620 n3        1 LPO     -0.820200
      4 C4         -6.2190   -1.3370   -0.6290 c3        1 LPO      0.164800
      5 C5         -4.7220   -1.1890   -0.3040 c3        1 LPO     -0.109700
      6 C6         -3.9430   -2.3740   -0.9170 c3        1 LPO      0.223100
      7 C7         -4.2740    0.1690   -0.8340 c         1 LPO      0.670100
      8 N8         -4.1780    1.2420    0.0570 n         1 LPO     -0.445800
      9 O9         -4.1740   -2.3410   -2.3230 oh        1 LPO     -0.569800
     10 C10        -2.4740   -2.2920   -0.6040 ca        1 LPO     -0.277600
     11 C11        -2.0000   -2.4580    0.7120 ca        1 LPO      0.437200
     12 N12        -0.7020   -2.4110    1.0620 nb        1 LPO     -0.731000
     13 C13         0.1910   -2.1860    0.0630 ca        1 LPO      0.632600
     14 C14        -0.1780   -1.9940   -1.2960 ca        1 LPO     -0.263300
     15 C15        -1.5290   -2.0420   -1.6120 ca        1 LPO     -0.051000
     16 O16         1.5480   -2.1390    0.2960 os        1 LPO     -0.447100
     17 C17         1.9840   -2.1590    1.6650 c3        1 LPO      0.135400
     18 C18         3.4930   -1.9450    1.6080 c3        1 LPO      0.120400
     19 O19         3.7000   -0.5500    1.9000 os        1 LPO     -0.327900
     20 C20         5.0180   -0.1500    1.7500 ca        1 LPO      0.097100
     21 C21         5.4610    0.3900    0.5280 ca        1 LPO      0.013900
     22 C22         6.7520    0.9130    0.4210 ca        1 LPO     -0.123000
     23 C23         7.6160    0.8980    1.5200 ca        1 LPO     -0.062300
     24 C24         7.1830    0.3550    2.7330 ca        1 LPO     -0.123000
     25 C25         5.8940   -0.1710    2.8510 ca        1 LPO      0.013900
     26 CL26        5.4160   -0.8240    4.3440 cl        1 LPO     -0.066900
     27 CL27        4.4510    0.4260   -0.8350 cl        1 LPO     -0.066900
     28 C28         8.9890    1.4410    1.3950 c3        1 LPO     -0.056800
     29 O29        -4.0740    0.3640   -2.0480 o         1 LPO     -0.590100
     30 C30        -3.7840    2.5460   -0.4370 c3        1 LPO      0.133300
     31 C31        -4.1150    1.0360    1.4680 cx        1 LPO      0.025700
     32 C32        -2.3120    2.8500   -0.3710 ca        1 LPO     -0.101300
     33 C33        -1.4420    2.1080   -1.1790 ca        1 LPO     -0.108000
     34 C34        -0.0670    2.3570   -1.1830 ca        1 LPO     -0.077300
     35 C35         0.4470    3.3720   -0.3670 ca        1 LPO     -0.112000
     36 C36        -0.4040    4.1260    0.4340 ca        1 LPO     -0.129000
     37 C37        -1.7800    3.8680    0.4320 ca        1 LPO      0.026400
     38 C38        -5.3290    0.6360    2.2920 cx        1 LPO     -0.128400
     39 C39        -4.7460    2.0040    2.4530 cx        1 LPO     -0.128400
     40 CL40       -2.7680    4.8350    1.4310 cl        1 LPO     -0.105400
     41 C41         0.8400    1.5360   -2.0290 c3        1 LPO     -0.044100
     42 C42         0.6500    1.8570   -3.5040 c3        1 LPO      0.129400
     43 O43         1.4890    0.9530   -4.2230 os        1 LPO     -0.428600
     44 C44         1.4060    1.1370   -5.6250 c3        1 LPO      0.116700
     45 H1         -4.3570   -3.7160    0.7620 hc        1 LPO      0.055700
     46 H1A        -4.0290   -4.5560   -0.8100 hc        1 LPO      0.055700
     47 H2         -6.1570   -3.9130   -1.7470 h1        1 LPO      0.035700
     48 H2A        -6.4590   -4.6590   -0.1090 h1        1 LPO      0.035700
     49 HN3        -7.7260   -2.6680   -0.4400 hn        1 LPO      0.366800
     50 H4         -6.3350   -1.2000   -1.7460 h1        1 LPO      0.052200
     51 H4A        -6.7860   -0.5130   -0.1090 h1        1 LPO      0.052200
     52 H5         -4.5680   -1.2560    0.8090 hc        1 LPO      0.083700
     53 HO9        -3.7600   -3.1320   -2.6910 ho        1 LPO      0.398000
     54 H11        -2.6980   -2.6350    1.5520 h4        1 LPO      0.023100
     55 H14         0.5960   -1.8090   -2.0520 ha        1 LPO      0.168000
     56 H15        -1.8630   -1.8630   -2.6480 ha        1 LPO      0.162000
     57 H17         1.4830   -1.3410    2.2440 h1        1 LPO      0.070700
     58 H17A        1.7480   -3.1590    2.1120 h1        1 LPO      0.070700
     59 H18         4.0030   -2.5590    2.3930 h1        1 LPO      0.059200
     60 H18A        3.9010   -2.1860    0.5920 h1        1 LPO      0.059200
     61 H22         7.0920    1.3420   -0.5350 ha        1 LPO      0.152000
     62 H24         7.8620    0.3440    3.6000 ha        1 LPO      0.152000
     63 H28         9.0260    2.2640    0.6390 hc        1 LPO      0.050367
     64 H28A        9.3510    1.8430    2.3730 hc        1 LPO      0.050367
     65 H28B        9.6890    0.6310    1.0670 hc        1 LPO      0.050367
     66 H30        -4.1020    2.6180   -1.5200 h1        1 LPO      0.076700
     67 H30A       -4.3620    3.3180    0.1490 h1        1 LPO      0.076700
     68 H31        -3.1390    0.5890    1.7770 h1        1 LPO      0.079700
     69 H33        -1.8620    1.3140   -1.8220 ha        1 LPO      0.161000
     70 H35         1.5290    3.5720   -0.3540 ha        1 LPO      0.140000
     71 H36         0.0060    4.9250    1.0710 ha        1 LPO      0.146000
     72 H38        -6.3120    0.5300    1.8010 hc        1 LPO      0.078950
     73 H38A       -5.1830   -0.1170    3.0870 hc        1 LPO      0.078950
     74 H39        -4.1710    2.2490    3.3640 hc        1 LPO      0.078950
     75 H39A       -5.3170    2.8730    2.0820 hc        1 LPO      0.078950
     76 H41         1.9120    1.7100   -1.7470 hc        1 LPO      0.066700
     77 H41A        0.6270    0.4440   -1.8610 hc        1 LPO      0.066700
     78 H42        -0.4190    1.7080   -3.8130 h1        1 LPO      0.033200
     79 H42A        0.9550    2.9130   -3.7300 h1        1 LPO      0.033200
     80 H44         0.3620    0.9610   -5.9860 h1        1 LPO      0.032367
     81 H44A        1.7350    2.1680   -5.9080 h1        1 LPO      0.032367
     82 H44B        2.1020    0.3730   -6.0510 h1        1 LPO      0.032367
@<TRIPOS>BOND
     1    1    2 1   
     2    1    6 1   
     3    1   45 1   
     4    1   46 1   
     5    2    3 1   
     6    2   47 1   
     7    2   48 1   
     8    3    4 1   
     9    3   49 1   
    10    4    5 1   
    11    4   50 1   
    12    4   51 1   
    13    5    6 1   
    14    5    7 1   
    15    5   52 1   
    16    6    9 1   
    17    6   10 1   
    18    7    8 1   
    19    7   29 2   
    20    8   30 1   
    21    8   31 1   
    22    9   53 1   
    23   10   11 ar  
    24   10   15 ar  
    25   11   12 ar  
    26   11   54 1   
    27   12   13 ar  
    28   13   14 ar  
    29   13   16 1   
    30   14   15 ar  
    31   14   55 1   
    32   15   56 1   
    33   16   17 1   
    34   17   18 1   
    35   17   57 1   
    36   17   58 1   
    37   18   19 1   
    38   18   59 1   
    39   18   60 1   
    40   19   20 1   
    41   20   21 ar  
    42   20   25 ar  
    43   21   22 ar  
    44   21   27 1   
    45   22   23 ar  
    46   22   61 1   
    47   23   24 ar  
    48   23   28 1   
    49   24   25 ar  
    50   24   62 1   
    51   25   26 1   
    52   28   63 1   
    53   28   64 1   
    54   28   65 1   
    55   30   32 1   
    56   30   66 1   
    57   30   67 1   
    58   31   38 1   
    59   31   39 1   
    60   31   68 1   
    61   32   33 ar  
    62   32   37 ar  
    63   33   34 ar  
    64   33   69 1   
    65   34   35 ar  
    66   34   41 1   
    67   35   36 ar  
    68   35   70 1   
    69   36   37 ar  
    70   36   71 1   
    71   37   40 1   
    72   38   39 1   
    73   38   72 1   
    74   38   73 1   
    75   39   74 1   
    76   39   75 1   
    77   41   42 1   
    78   41   76 1   
    79   41   77 1   
    80   42   43 1   
    81   42   78 1   
    82   42   79 1   
    83   43   44 1   
    84   44   80 1   
    85   44   81 1   
    86   44   82 1   
@<TRIPOS>SUBSTRUCTURE
     1 LPO         1 TEMP              0 ****  ****    0 ROOT
