@<TRIPOS>MOLECULE
LPO
   83    87     1     0     0
SMALL
bcc


@<TRIPOS>ATOM
      1 C1          0.3890   -0.1380    0.0780 c3        1 LPO     -0.107400
      2 C2          1.9140   -0.2010    0.1140 c3        1 LPO      0.154800
      3 N3          2.4320   -0.2640    1.4680 n3        1 LPO     -0.823200
      4 C4          1.8930   -1.3690    2.2290 c3        1 LPO      0.168800
      5 C5          0.3490   -1.2860    2.3030 c3        1 LPO     -0.125700
      6 C6         -0.2470   -1.2930    0.8700 c3        1 LPO      0.231100
      7 C7         -0.1190   -2.4720    3.1140 c         1 LPO      0.571100
      8 N8         -0.9540   -2.1250    4.3560 n4        1 LPO     -0.565200
      9 O9          0.1130   -2.5540    0.3150 oh        1 LPO     -0.592800
     10 C10        -1.7390   -1.1240    0.9040 ca        1 LPO     -0.323600
     11 C11        -2.3260   -0.0030    1.5200 ca        1 LPO      0.424200
     12 N12        -3.6500    0.2180    1.5920 nb        1 LPO     -0.724000
     13 C13        -4.4570   -0.7030    1.0000 ca        1 LPO      0.652600
     14 C14        -3.9650   -1.8490    0.3100 ca        1 LPO     -0.253300
     15 C15        -2.5950   -2.0500    0.2800 ca        1 LPO     -0.044000
     16 O16        -5.8240   -0.5970    1.0190 os        1 LPO     -0.434100
     17 C17        -6.4100    0.4200    1.8530 c3        1 LPO      0.131400
     18 C18        -7.8720    0.0210    2.0070 c3        1 LPO      0.118400
     19 O19        -7.9100   -0.9060    3.1110 os        1 LPO     -0.347900
     20 C20        -9.2000   -1.2690    3.4710 ca        1 LPO      0.080100
     21 C21        -9.7950   -2.4180    2.9200 ca        1 LPO      0.015400
     22 C22       -11.0460   -2.8460    3.3710 ca        1 LPO     -0.118000
     23 C23       -11.7180   -2.1340    4.3690 ca        1 LPO     -0.049300
     24 C24       -11.1320   -0.9880    4.9170 ca        1 LPO     -0.118000
     25 C25        -9.8820   -0.5520    4.4710 ca        1 LPO      0.015400
     26 CL26       -9.2120    0.8490    5.1590 cl        1 LPO     -0.074400
     27 CL27       -9.0180   -3.3120    1.7000 cl        1 LPO     -0.074400
     28 C28       -13.0530   -2.5800    4.8320 c3        1 LPO     -0.062800
     29 O29         0.1230   -3.6510    2.9270 o         1 LPO     -0.396100
     30 C30        -1.6930   -3.3110    4.9110 c3        1 LPO      0.166100
     31 C31        -0.0680   -1.4730    5.3420 cx        1 LPO     -0.001500
     32 C32        -2.9990   -3.5620    4.2360 ca        1 LPO     -0.166300
     33 C33        -3.1590   -4.7230    3.4740 ca        1 LPO     -0.085000
     34 C34        -4.4030   -5.0490    2.9220 ca        1 LPO     -0.065300
     35 C35        -5.4900   -4.1910    3.1280 ca        1 LPO     -0.083000
     36 C36        -5.3420   -3.0200    3.8710 ca        1 LPO     -0.102000
     37 C37        -4.0990   -2.7080    4.4250 ca        1 LPO      0.015400
     38 C38         0.4810   -2.1680    6.5710 cx        1 LPO     -0.098400
     39 C39        -0.5300   -1.0750    6.7300 cx        1 LPO     -0.098400
     40 CL40       -3.9340   -1.2750    5.3330 cl        1 LPO     -0.096400
     41 C41        -4.5640   -6.2840    2.1090 c3        1 LPO     -0.053100
     42 C42        -5.4100   -7.3190    2.8380 c3        1 LPO      0.133400
     43 O43        -5.5520   -8.4130    1.9360 os        1 LPO     -0.422600
     44 C44        -6.3220   -9.4730    2.4810 c3        1 LPO      0.114700
     45 H1          0.0500   -0.1950   -0.9890 hc        1 LPO      0.073700
     46 H1A         0.0310    0.8360    0.5000 hc        1 LPO      0.073700
     47 H2          2.3290    0.7320   -0.3630 h1        1 LPO      0.054700
     48 H2A         2.2420   -1.0870   -0.5060 h1        1 LPO      0.054700
     49 HN3         3.4340   -0.3030    1.4620 hn        1 LPO      0.393800
     50 H4          2.1530   -2.3800    1.7950 h1        1 LPO      0.056700
     51 H4A         2.3130   -1.3070    3.2720 h1        1 LPO      0.056700
     52 H5          0.0450   -0.3110    2.7760 hc        1 LPO      0.093700
     53 HO9         0.0360   -2.4810   -0.6460 ho        1 LPO      0.428000
     54 H11        -1.7050    0.7910    1.9780 h4        1 LPO      0.022100
     55 H14        -4.6720   -2.5370   -0.1720 ha        1 LPO      0.175000
     56 H15        -2.1780   -2.9380   -0.2230 ha        1 LPO      0.158000
     57 H17        -5.9060    0.4570    2.8530 h1        1 LPO      0.074700
     58 H17A       -6.3210    1.4040    1.3260 h1        1 LPO      0.074700
     59 H18        -8.2600   -0.4870    1.0870 h1        1 LPO      0.069200
     60 H18A       -8.4880    0.9240    2.2520 h1        1 LPO      0.069200
     61 H22       -11.5080   -3.7480    2.9370 ha        1 LPO      0.159500
     62 H24       -11.6620   -0.4260    5.7040 ha        1 LPO      0.159500
     63 H28       -13.8510   -2.0700    4.2350 hc        1 LPO      0.057033
     64 H28A      -13.2070   -2.3260    5.9100 hc        1 LPO      0.057033
     65 H28B      -13.1730   -3.6840    4.7080 hc        1 LPO      0.057033
     66 H30        -1.0180   -4.2130    4.8210 hx        1 LPO      0.112700
     67 H30A       -1.8880   -3.1220    6.0080 hx        1 LPO      0.112700
     68 H31         0.6130   -0.7600    4.8140 hx        1 LPO      0.131700
     69 H33        -2.2970   -5.3910    3.3100 ha        1 LPO      0.154000
     70 H35        -6.4750   -4.4350    2.6940 ha        1 LPO      0.166000
     71 H36        -6.2050   -2.3400    4.0050 ha        1 LPO      0.190000
     72 H38         1.5420   -1.9760    6.8260 hc        1 LPO      0.107950
     73 H38A        0.1940   -3.2110    6.8010 hc        1 LPO      0.107950
     74 H39        -1.5520   -1.3220    7.0740 hc        1 LPO      0.107950
     75 H39A       -0.2090   -0.0810    7.1000 hc        1 LPO      0.107950
     76 H41        -3.5660   -6.7350    1.8660 hc        1 LPO      0.073200
     77 H41A       -5.0600   -6.0330    1.1320 hc        1 LPO      0.073200
     78 H42        -4.9050   -7.6650    3.7780 h1        1 LPO      0.032200
     79 H42A       -6.4210   -6.9030    3.0940 h1        1 LPO      0.032200
     80 H44        -6.3440  -10.2420    1.6690 h1        1 LPO      0.039700
     81 H44A       -7.3560   -9.1250    2.7210 h1        1 LPO      0.039700
     82 H44B       -5.8330   -9.8830    3.3980 h1        1 LPO      0.039700
     83 H81        -1.6550   -1.4250    4.0640 hn        1 LPO      0.463800
@<TRIPOS>BOND
     1    1    2 1   
     2    1    6 1   
     3    1   45 1   
     4    1   46 1   
     5    2    3 1   
     6    2   47 1   
     7    2   48 1   
     8    3    4 1   
     9    3   49 1   
    10    4    5 1   
    11    4   50 1   
    12    4   51 1   
    13    5    6 1   
    14    5    7 1   
    15    5   52 1   
    16    6    9 1   
    17    6   10 1   
    18    7    8 1   
    19    7   29 2   
    20    8   30 1   
    21    8   31 1   
    22    8   83 1   
    23    9   53 1   
    24   10   11 ar  
    25   10   15 ar  
    26   11   12 ar  
    27   11   54 1   
    28   12   13 ar  
    29   13   14 ar  
    30   13   16 1   
    31   14   15 ar  
    32   14   55 1   
    33   15   56 1   
    34   16   17 1   
    35   17   18 1   
    36   17   57 1   
    37   17   58 1   
    38   18   19 1   
    39   18   59 1   
    40   18   60 1   
    41   19   20 1   
    42   20   21 ar  
    43   20   25 ar  
    44   21   22 ar  
    45   21   27 1   
    46   22   23 ar  
    47   22   61 1   
    48   23   24 ar  
    49   23   28 1   
    50   24   25 ar  
    51   24   62 1   
    52   25   26 1   
    53   28   63 1   
    54   28   64 1   
    55   28   65 1   
    56   30   32 1   
    57   30   66 1   
    58   30   67 1   
    59   31   38 1   
    60   31   39 1   
    61   31   68 1   
    62   32   33 ar  
    63   32   37 ar  
    64   33   34 ar  
    65   33   69 1   
    66   34   35 ar  
    67   34   41 1   
    68   35   36 ar  
    69   35   70 1   
    70   36   37 ar  
    71   36   71 1   
    72   37   40 1   
    73   38   39 1   
    74   38   72 1   
    75   38   73 1   
    76   39   74 1   
    77   39   75 1   
    78   41   42 1   
    79   41   76 1   
    80   41   77 1   
    81   42   43 1   
    82   42   78 1   
    83   42   79 1   
    84   43   44 1   
    85   44   80 1   
    86   44   81 1   
    87   44   82 1   
@<TRIPOS>SUBSTRUCTURE
     1 LPO         1 TEMP              0 ****  ****    0 ROOT
