@<TRIPOS>MOLECULE
LPO
   83    87     1     0     0
SMALL
bcc


@<TRIPOS>ATOM
      1 C1          0.3630   -0.1260    0.0670 c3        1 LPO     -0.146400
      2 C2          1.8900   -0.2040    0.0990 c3        1 LPO      0.148800
      3 N3          2.4590   -0.2640    1.4280 n3        1 LPO     -0.787200
      4 C4          1.8730   -1.2910    2.2440 c3        1 LPO      0.168800
      5 C5          0.3190   -1.2520    2.3170 c3        1 LPO     -0.172700
      6 C6         -0.2740   -1.2650    0.8820 c3        1 LPO      0.235100
      7 C7         -0.1200   -2.4590    3.1070 c         1 LPO      0.576100
      8 N8         -0.9520   -2.1560    4.3650 n4        1 LPO     -0.566200
      9 O9          0.0790   -2.5350    0.3440 oh        1 LPO     -0.589800
     10 C10        -1.7660   -1.0900    0.9140 ca        1 LPO     -0.322600
     11 C11        -2.3500    0.0340    1.5280 ca        1 LPO      0.424200
     12 N12        -3.6740    0.2560    1.6020 nb        1 LPO     -0.724000
     13 C13        -4.4830   -0.6650    1.0120 ca        1 LPO      0.652600
     14 C14        -3.9930   -1.8110    0.3210 ca        1 LPO     -0.252300
     15 C15        -2.6230   -2.0140    0.2900 ca        1 LPO     -0.043000
     16 O16        -5.8490   -0.5590    1.0340 os        1 LPO     -0.434100
     17 C17        -6.4350    0.4510    1.8790 c3        1 LPO      0.131400
     18 C18        -7.8910    0.0380    2.0490 c3        1 LPO      0.118400
     19 O19        -7.9070   -0.8970    3.1460 os        1 LPO     -0.347900
     20 C20        -9.1890   -1.2660    3.5260 ca        1 LPO      0.080100
     21 C21        -9.7930   -2.4100    2.9740 ca        1 LPO      0.015400
     22 C22       -11.0340   -2.8450    3.4440 ca        1 LPO     -0.118000
     23 C23       -11.6900   -2.1440    4.4610 ca        1 LPO     -0.049300
     24 C24       -11.0950   -1.0030    5.0090 ca        1 LPO     -0.118000
     25 C25        -9.8550   -0.5600    4.5450 ca        1 LPO      0.015400
     26 CL26       -9.1750    0.8350    5.2340 cl        1 LPO     -0.074400
     27 CL27       -9.0370   -3.2910    1.7310 cl        1 LPO     -0.074400
     28 C28       -13.0140   -2.5980    4.9450 c3        1 LPO     -0.062800
     29 O29         0.1460   -3.6290    2.8960 o         1 LPO     -0.393100
     30 C30        -1.6830   -3.3630    4.8820 c3        1 LPO      0.166100
     31 C31        -0.0640   -1.5350    5.3670 cx        1 LPO     -0.000500
     32 C32        -2.9950   -3.5930    4.2080 ca        1 LPO     -0.165300
     33 C33        -3.1630   -4.7360    3.4210 ca        1 LPO     -0.085000
     34 C34        -4.4100   -5.0450    2.8680 ca        1 LPO     -0.064300
     35 C35        -5.4930   -4.1880    3.0990 ca        1 LPO     -0.083000
     36 C36        -5.3370   -3.0350    3.8680 ca        1 LPO     -0.101000
     37 C37        -4.0900   -2.7410    4.4230 ca        1 LPO      0.014400
     38 C38         0.5000   -2.2690    6.5650 cx        1 LPO     -0.097900
     39 C39        -0.5150   -1.1880    6.7710 cx        1 LPO     -0.097900
     40 CL40       -3.9170   -1.3310    5.3650 cl        1 LPO     -0.098400
     41 C41        -4.5790   -6.2600    2.0280 c3        1 LPO     -0.053100
     42 C42        -5.4240   -7.3100    2.7380 c3        1 LPO      0.133400
     43 O43        -5.5790   -8.3800    1.8100 os        1 LPO     -0.422600
     44 C44        -6.3450   -9.4520    2.3350 c3        1 LPO      0.114700
     45 H1          0.0130   -0.1980   -0.9950 hc        1 LPO      0.072200
     46 H1A         0.0110    0.8570    0.4730 hc        1 LPO      0.072200
     47 H2          2.2160   -1.1330   -0.4520 h1        1 LPO      0.078700
     48 H2A         2.3190    0.6890   -0.4350 h1        1 LPO      0.078700
     49 HN3         2.4140    0.6320    1.8790 hn        1 LPO      0.366800
     50 H4          2.2870   -1.2130    3.2860 h1        1 LPO      0.079700
     51 H4A         2.1610   -2.2920    1.8070 h1        1 LPO      0.079700
     52 H5         -0.0130   -0.2930    2.8020 hc        1 LPO      0.077700
     53 HO9         0.0260   -2.4700   -0.6190 ho        1 LPO      0.429000
     54 H11        -1.7290    0.8270    1.9860 h4        1 LPO      0.017100
     55 H14        -4.7010   -2.4980   -0.1620 ha        1 LPO      0.175000
     56 H15        -2.2070   -2.9020   -0.2140 ha        1 LPO      0.159000
     57 H17        -5.9200    0.4920    2.8720 h1        1 LPO      0.074700
     58 H17A       -6.3610    1.4370    1.3510 h1        1 LPO      0.074700
     59 H18        -8.5110    0.9350    2.3080 h1        1 LPO      0.069200
     60 H18A       -8.2880   -0.4660    1.1300 h1        1 LPO      0.069200
     61 H22       -11.5020   -3.7440    3.0100 ha        1 LPO      0.159500
     62 H24       -11.6110   -0.4500    5.8110 ha        1 LPO      0.159500
     63 H28       -13.1500   -2.3530    6.0270 hc        1 LPO      0.057367
     64 H28A      -13.8240   -2.0850    4.3650 hc        1 LPO      0.057367
     65 H28B      -13.1340   -3.7010    4.8130 hc        1 LPO      0.057367
     66 H30        -1.8710   -3.2130    5.9870 hx        1 LPO      0.113200
     67 H30A       -1.0080   -4.2600    4.7560 hx        1 LPO      0.113200
     68 H31         0.6090   -0.8010    4.8580 hx        1 LPO      0.124700
     69 H33        -2.3040   -5.4040    3.2370 ha        1 LPO      0.154000
     70 H35        -6.4810   -4.4180    2.6640 ha        1 LPO      0.166000
     71 H36        -6.1970   -2.3560    4.0220 ha        1 LPO      0.190000
     72 H38         0.2210   -3.3220    6.7590 hc        1 LPO      0.108450
     73 H38A        1.5620   -2.0810    6.8190 hc        1 LPO      0.108450
     74 H39        -1.5340   -1.4530    7.1140 hc        1 LPO      0.108450
     75 H39A       -0.1980   -0.2070    7.1740 hc        1 LPO      0.108450
     76 H41        -5.0810   -5.9860    1.0600 hc        1 LPO      0.073200
     77 H41A       -3.5840   -6.7090    1.7680 hc        1 LPO      0.073200
     78 H42        -6.4310   -6.8960    3.0130 h1        1 LPO      0.032200
     79 H42A       -4.9130   -7.6820    3.6650 h1        1 LPO      0.032200
     80 H44        -5.8460   -9.8870    3.2370 h1        1 LPO      0.040033
     81 H44A       -6.3780  -10.2000    1.5040 h1        1 LPO      0.040033
     82 H44B       -7.3760   -9.1080    2.5970 h1        1 LPO      0.040033
     83 H81        -1.6580   -1.4500    4.0990 hn        1 LPO      0.462800
@<TRIPOS>BOND
     1    1    2 1   
     2    1    6 1   
     3    1   45 1   
     4    1   46 1   
     5    2    3 1   
     6    2   47 1   
     7    2   48 1   
     8    3    4 1   
     9    3   49 1   
    10    4    5 1   
    11    4   50 1   
    12    4   51 1   
    13    5    6 1   
    14    5    7 1   
    15    5   52 1   
    16    6    9 1   
    17    6   10 1   
    18    7    8 1   
    19    7   29 2   
    20    8   30 1   
    21    8   31 1   
    22    8   83 1   
    23    9   53 1   
    24   10   11 ar  
    25   10   15 ar  
    26   11   12 ar  
    27   11   54 1   
    28   12   13 ar  
    29   13   14 ar  
    30   13   16 1   
    31   14   15 ar  
    32   14   55 1   
    33   15   56 1   
    34   16   17 1   
    35   17   18 1   
    36   17   57 1   
    37   17   58 1   
    38   18   19 1   
    39   18   59 1   
    40   18   60 1   
    41   19   20 1   
    42   20   21 ar  
    43   20   25 ar  
    44   21   22 ar  
    45   21   27 1   
    46   22   23 ar  
    47   22   61 1   
    48   23   24 ar  
    49   23   28 1   
    50   24   25 ar  
    51   24   62 1   
    52   25   26 1   
    53   28   63 1   
    54   28   64 1   
    55   28   65 1   
    56   30   32 1   
    57   30   66 1   
    58   30   67 1   
    59   31   38 1   
    60   31   39 1   
    61   31   68 1   
    62   32   33 ar  
    63   32   37 ar  
    64   33   34 ar  
    65   33   69 1   
    66   34   35 ar  
    67   34   41 1   
    68   35   36 ar  
    69   35   70 1   
    70   36   37 ar  
    71   36   71 1   
    72   37   40 1   
    73   38   39 1   
    74   38   72 1   
    75   38   73 1   
    76   39   74 1   
    77   39   75 1   
    78   41   42 1   
    79   41   76 1   
    80   41   77 1   
    81   42   43 1   
    82   42   78 1   
    83   42   79 1   
    84   43   44 1   
    85   44   80 1   
    86   44   81 1   
    87   44   82 1   
@<TRIPOS>SUBSTRUCTURE
     1 LPO         1 TEMP              0 ****  ****    0 ROOT
