@<TRIPOS>MOLECULE
LPP
  111   110     1     0     0
SMALL
bcc


@<TRIPOS>ATOM
      1 P1          1.7370   -1.2170   -1.8410 p5        1 LPP      1.323900
      2 O2          2.1830   -2.1750   -2.9250 o         1 LPP     -0.915167
      3 O3          1.6590   -1.7750   -0.4500 o         1 LPP     -0.915167
      4 O4          2.2200    0.1960   -1.9560 o         1 LPP     -0.915167
      5 O5          0.0570   -1.0790   -2.3000 os        1 LPP     -0.564200
      6 C6         -0.7860   -0.6850   -1.3060 c3        1 LPP      0.234400
      7 C7         -2.1270   -1.4680   -1.3020 c3        1 LPP      0.091100
      8 C8         -2.7390   -1.6870   -2.6840 c3        1 LPP      0.144400
      9 O9         -1.8450   -2.7310   -0.6710 os        1 LPP     -0.348900
     10 O27        -2.0930   -2.7700   -3.3460 os        1 LPP     -0.457900
     11 C11        -2.8510   -3.4160   -0.0960 c         1 LPP      0.630100
     12 O10        -4.0050   -2.9610   -0.0570 o         1 LPP     -0.623000
     13 C12        -2.3800   -4.7320    0.4590 c3        1 LPP     -0.139400
     14 C13        -3.1350   -5.1020    1.7150 c3        1 LPP     -0.074400
     15 C14        -2.7420   -6.4820    2.1960 c3        1 LPP     -0.079400
     16 C15        -3.4770   -6.8500    3.4670 c3        1 LPP     -0.077400
     17 C16        -3.0890   -8.2320    3.9470 c3        1 LPP     -0.079400
     18 C17        -3.8230   -8.6000    5.2180 c3        1 LPP     -0.078400
     19 C18        -3.4340   -9.9820    5.6990 c3        1 LPP     -0.079400
     20 C19        -4.1690  -10.3510    6.9700 c3        1 LPP     -0.078400
     21 C20        -3.7800  -11.7320    7.4500 c3        1 LPP     -0.079400
     22 C21        -4.5150  -12.1010    8.7210 c3        1 LPP     -0.078400
     23 C22        -4.1260  -13.4820    9.2010 c3        1 LPP     -0.079400
     24 C23        -4.8610  -13.8510   10.4720 c3        1 LPP     -0.079400
     25 C24        -4.4720  -15.2330   10.9510 c3        1 LPP     -0.079400
     26 C25        -5.2070  -15.6020   12.2230 c3        1 LPP     -0.080400
     27 C26        -4.8220  -16.9780   12.7040 c3        1 LPP     -0.092100
     28 C29        -1.3400   -2.4610   -4.4660 c         1 LPP      0.697100
     29 O28        -1.8290   -1.6280   -5.2400 o         1 LPP     -0.613000
     30 C30        -0.0790   -3.2290   -4.5430 c3        1 LPP     -0.218400
     31 C31         0.5600   -3.2100   -5.9090 c3        1 LPP     -0.037400
     32 C32         2.0310   -3.5520   -5.7850 c3        1 LPP     -0.115400
     33 C33         2.7750   -3.2810   -7.0730 c3        1 LPP     -0.064400
     34 C34         4.2500   -3.5910   -6.9210 c3        1 LPP     -0.082400
     35 C35         5.0170   -3.2790   -8.1870 c3        1 LPP     -0.076400
     36 C36         6.4910   -3.5850   -8.0280 c3        1 LPP     -0.080400
     37 C37         7.2630   -3.2660   -9.2900 c3        1 LPP     -0.077400
     38 C38         8.7370   -3.5710   -9.1280 c3        1 LPP     -0.079400
     39 C39         9.5090   -3.2520  -10.3900 c3        1 LPP     -0.078400
     40 C40        10.9820   -3.5570  -10.2260 c3        1 LPP     -0.079400
     41 C41        11.7550   -3.2380  -11.4880 c3        1 LPP     -0.078400
     42 C42        13.2280   -3.5430  -11.3240 c3        1 LPP     -0.079400
     43 C43        14.0020   -3.2240  -12.5860 c3        1 LPP     -0.080400
     44 C44        15.4700   -3.5260  -12.4270 c3        1 LPP     -0.091100
     45 HC61       -0.3030   -0.8060   -0.2920 h1        1 LPP      0.012700
     46 HC62       -1.1130    0.3920   -1.4540 h1        1 LPP      0.012700
     47 HC7        -2.8790   -0.9130   -0.6730 h1        1 LPP      0.023700
     48 HC81       -3.8130   -2.0020   -2.5850 h1        1 LPP      0.042700
     49 HC82       -2.6590   -0.7390   -3.2760 h1        1 LPP      0.042700
     50 H121       -1.2750   -4.6670    0.6580 hc        1 LPP      0.084200
     51 H122       -2.5370   -5.5050   -0.3390 hc        1 LPP      0.084200
     52 H131       -4.2380   -5.0620    1.5140 hc        1 LPP      0.047200
     53 H132       -2.9180   -4.3460    2.5160 hc        1 LPP      0.047200
     54 H141       -2.9680   -7.2370    1.3980 hc        1 LPP      0.040700
     55 H142       -1.6350   -6.5140    2.3770 hc        1 LPP      0.040700
     56 H151       -3.2470   -6.0960    4.2650 hc        1 LPP      0.036700
     57 H152       -4.5840   -6.8120    3.2850 hc        1 LPP      0.036700
     58 H161       -3.3180   -8.9860    3.1490 hc        1 LPP      0.039200
     59 H162       -1.9820   -8.2680    4.1280 hc        1 LPP      0.039200
     60 H171       -4.9300   -8.5620    5.0380 hc        1 LPP      0.037200
     61 H172       -3.5930   -7.8460    6.0170 hc        1 LPP      0.037200
     62 H181       -3.6630  -10.7360    4.9000 hc        1 LPP      0.039200
     63 H182       -2.3280  -10.0190    5.8800 hc        1 LPP      0.039200
     64 H191       -5.2760  -10.3130    6.7890 hc        1 LPP      0.037700
     65 H192       -3.9400   -9.5960    7.7680 hc        1 LPP      0.037700
     66 H201       -4.0090  -12.4860    6.6510 hc        1 LPP      0.038700
     67 H202       -2.6740  -11.7690    7.6310 hc        1 LPP      0.038700
     68 H211       -5.6220  -12.0630    8.5390 hc        1 LPP      0.038200
     69 H212       -4.2860  -11.3470    9.5190 hc        1 LPP      0.038200
     70 H221       -4.3550  -14.2360    8.4020 hc        1 LPP      0.039200
     71 H222       -3.0190  -13.5200    9.3820 hc        1 LPP      0.039200
     72 H231       -5.9680  -13.8130   10.2900 hc        1 LPP      0.038200
     73 H232       -4.6320  -13.0970   11.2700 hc        1 LPP      0.038200
     74 H241       -3.3660  -15.2700   11.1330 hc        1 LPP      0.039200
     75 H242       -4.7010  -15.9870   10.1530 hc        1 LPP      0.039200
     76 H251       -6.3130  -15.5620   12.0400 hc        1 LPP      0.037700
     77 H252       -4.9770  -14.8470   13.0190 hc        1 LPP      0.037700
     78 H261       -5.0660  -17.7480   11.9330 hc        1 LPP      0.030367
     79 H262       -3.7270  -17.0300   12.9150 hc        1 LPP      0.030367
     80 H263       -5.3750  -17.2300   13.6410 hc        1 LPP      0.030367
     81 H301       -0.2300   -4.2700   -4.1700 hc        1 LPP      0.152700
     82 H302        0.6440   -2.7090   -3.7720 hc        1 LPP      0.152700
     83 H311        0.4460   -2.1860   -6.3550 hc        1 LPP      0.013200
     84 H312        0.0490   -3.9320   -6.6010 hc        1 LPP      0.013200
     85 H321        2.4670   -2.9420   -4.9310 hc        1 LPP      0.090200
     86 H322        2.1430   -4.6320   -5.5060 hc        1 LPP      0.090200
     87 H331        2.3460   -3.8960   -7.9090 hc        1 LPP      0.016700
     88 H332        2.6480   -2.2030   -7.3570 hc        1 LPP      0.016700
     89 H341        4.3810   -4.6740   -6.6590 hc        1 LPP      0.048700
     90 H342        4.6620   -2.9910   -6.0660 hc        1 LPP      0.048700
     91 H351        4.6000   -3.8760   -9.0410 hc        1 LPP      0.029200
     92 H352        4.8850   -2.1950   -8.4460 hc        1 LPP      0.029200
     93 H361        6.9050   -2.9880   -7.1720 hc        1 LPP      0.040700
     94 H362        6.6240   -4.6680   -7.7690 hc        1 LPP      0.040700
     95 H371        6.8480   -3.8610  -10.1460 hc        1 LPP      0.033700
     96 H372        7.1300   -2.1820   -9.5470 hc        1 LPP      0.033700
     97 H381        9.1500   -2.9750   -8.2720 hc        1 LPP      0.039700
     98 H382        8.8700   -4.6550   -8.8700 hc        1 LPP      0.039700
     99 H391        9.3760   -2.1680  -10.6470 hc        1 LPP      0.036200
    100 H392        9.0940   -3.8480  -11.2460 hc        1 LPP      0.036200
    101 H401       11.1150   -4.6410   -9.9680 hc        1 LPP      0.039200
    102 H402       11.3960   -2.9610   -9.3710 hc        1 LPP      0.039200
    103 H411       11.6220   -2.1540  -11.7460 hc        1 LPP      0.037200
    104 H412       11.3410   -3.8340  -12.3440 hc        1 LPP      0.037200
    105 H421       13.3620   -4.6260  -11.0660 hc        1 LPP      0.039200
    106 H422       13.6430   -2.9460  -10.4690 hc        1 LPP      0.039200
    107 H431       13.8660   -2.1410  -12.8430 hc        1 LPP      0.036700
    108 H432       13.5850   -3.8210  -13.4400 hc        1 LPP      0.036700
    109 H441       15.6270   -4.6070  -12.1940 hc        1 LPP      0.029367
    110 H442       16.0220   -3.2840  -13.3670 hc        1 LPP      0.029367
    111 H443       15.9080   -2.9230  -11.5950 hc        1 LPP      0.029367
@<TRIPOS>BOND
     1    1    2 1   
     2    1    3 1   
     3    1    4 1   
     4    1    5 1   
     5    5    6 1   
     6    6    7 1   
     7    6   45 1   
     8    6   46 1   
     9    7    8 1   
    10    7    9 1   
    11    7   47 1   
    12    8   10 1   
    13    8   48 1   
    14    8   49 1   
    15    9   11 1   
    16   10   28 1   
    17   11   12 2   
    18   11   13 1   
    19   13   14 1   
    20   13   50 1   
    21   13   51 1   
    22   14   15 1   
    23   14   52 1   
    24   14   53 1   
    25   15   16 1   
    26   15   54 1   
    27   15   55 1   
    28   16   17 1   
    29   16   56 1   
    30   16   57 1   
    31   17   18 1   
    32   17   58 1   
    33   17   59 1   
    34   18   19 1   
    35   18   60 1   
    36   18   61 1   
    37   19   20 1   
    38   19   62 1   
    39   19   63 1   
    40   20   21 1   
    41   20   64 1   
    42   20   65 1   
    43   21   22 1   
    44   21   66 1   
    45   21   67 1   
    46   22   23 1   
    47   22   68 1   
    48   22   69 1   
    49   23   24 1   
    50   23   70 1   
    51   23   71 1   
    52   24   25 1   
    53   24   72 1   
    54   24   73 1   
    55   25   26 1   
    56   25   74 1   
    57   25   75 1   
    58   26   27 1   
    59   26   76 1   
    60   26   77 1   
    61   27   78 1   
    62   27   79 1   
    63   27   80 1   
    64   28   29 2   
    65   28   30 1   
    66   30   31 1   
    67   30   81 1   
    68   30   82 1   
    69   31   32 1   
    70   31   83 1   
    71   31   84 1   
    72   32   33 1   
    73   32   85 1   
    74   32   86 1   
    75   33   34 1   
    76   33   87 1   
    77   33   88 1   
    78   34   35 1   
    79   34   89 1   
    80   34   90 1   
    81   35   36 1   
    82   35   91 1   
    83   35   92 1   
    84   36   37 1   
    85   36   93 1   
    86   36   94 1   
    87   37   38 1   
    88   37   95 1   
    89   37   96 1   
    90   38   39 1   
    91   38   97 1   
    92   38   98 1   
    93   39   40 1   
    94   39   99 1   
    95   39  100 1   
    96   40   41 1   
    97   40  101 1   
    98   40  102 1   
    99   41   42 1   
   100   41  103 1   
   101   41  104 1   
   102   42   43 1   
   103   42  105 1   
   104   42  106 1   
   105   43   44 1   
   106   43  107 1   
   107   43  108 1   
   108   44  109 1   
   109   44  110 1   
   110   44  111 1   
@<TRIPOS>SUBSTRUCTURE
     1 LPP         1 TEMP              0 ****  ****    0 ROOT
