@<TRIPOS>MOLECULE
LPP
  111   109     1     0     0
SMALL
bcc


@<TRIPOS>ATOM
      1 P1          0.3650    6.5270    7.8330 p4        1 LPP      1.691200
      2 O2         -0.0210    7.4440    6.7010 os        1 LPP     -1.249000
      3 O3          1.7770    6.8280    8.2650 o         1 LPP     -0.908500
      4 O4         -0.5710    6.7420    8.9940 o         1 LPP     -0.957300
      5 O5          0.2710    5.0330    7.3540 os        1 LPP     -0.562200
      6 C6         -0.8920    4.3140    7.6460 c3        1 LPP      0.219400
      7 C7         -0.6910    2.8740    7.2900 c3        1 LPP      0.085100
      8 C8         -2.0330    2.2540    6.9030 c3        1 LPP      0.048400
      9 O9          0.2090    2.7770    6.1970 os        1 LPP     -0.416900
     10 O27        -2.4690    2.7970    5.6530 os        1 LPP     -0.451900
     11 C11         1.3040    1.9010    6.4310 c         1 LPP      0.642100
     12 O10         1.3550    1.2540    7.4540 o         1 LPP     -0.591000
     13 C12         2.4240    1.7880    5.4010 c3        1 LPP     -0.126400
     14 C13         3.0240    0.3720    5.4500 c3        1 LPP     -0.096400
     15 C14         3.9560    0.1770    4.2700 c3        1 LPP     -0.063400
     16 C15         4.2420   -1.3390    4.0790 c3        1 LPP     -0.092400
     17 C16         4.8960   -1.5650    2.7240 c3        1 LPP     -0.073400
     18 C17         4.9330   -3.0730    2.4150 c3        1 LPP     -0.081400
     19 C18         5.1760   -3.2830    0.9110 c3        1 LPP     -0.077400
     20 C19         5.1510   -4.7760    0.5930 c3        1 LPP     -0.074400
     21 C20         4.4050   -5.0040   -0.7380 c3        1 LPP     -0.083400
     22 C21         4.7080   -6.4060   -1.2610 c3        1 LPP     -0.075400
     23 C22         3.4560   -6.9780   -1.9430 c3        1 LPP     -0.082400
     24 C23         3.8700   -7.8140   -3.1480 c3        1 LPP     -0.076400
     25 C24         2.6830   -8.6350   -3.6280 c3        1 LPP     -0.081400
     26 C25         2.8950   -9.0300   -5.0780 c3        1 LPP     -0.078400
     27 C26         1.6870   -9.7970   -5.5720 c3        1 LPP     -0.092100
     28 C29        -3.8500    2.5470    5.3630 c         1 LPP      0.664100
     29 O28        -4.4400    1.6440    5.9340 o         1 LPP     -0.626000
     30 C30        -4.5860    3.4070    4.3220 c3        1 LPP     -0.228400
     31 C31        -5.3130    2.5020    3.3370 c3        1 LPP     -0.034400
     32 C32        -5.9380    3.3450    2.2420 c3        1 LPP     -0.116400
     33 C33        -6.1950    2.4720    1.0090 c3        1 LPP     -0.064400
     34 C34        -6.2310    3.3470   -0.2310 c3        1 LPP     -0.084400
     35 C35        -6.2000    2.4650   -1.4780 c3        1 LPP     -0.071400
     36 C36        -4.8230    2.5380   -2.1140 c3        1 LPP     -0.083400
     37 C37        -4.9670    2.6220   -3.6350 c3        1 LPP     -0.076400
     38 C38        -3.6990    2.0920   -4.2940 c3        1 LPP     -0.081400
     39 C39        -3.4770    2.8110   -5.6400 c3        1 LPP     -0.077400
     40 C40        -2.0040    3.1720   -5.7840 c3        1 LPP     -0.080400
     41 C41        -1.5650    2.9660   -7.2420 c3        1 LPP     -0.078400
     42 C42        -0.1650    3.5280   -7.4340 c3        1 LPP     -0.079400
     43 C43         0.4060    3.0150   -8.7230 c3        1 LPP     -0.080400
     44 C44         1.7880    3.6100   -8.9390 c3        1 LPP     -0.091100
     45 HC61       -1.0910    4.3900    8.6070 h1        1 LPP      0.012700
     46 HC62       -1.6400    4.6780    7.1280 h1        1 LPP      0.012700
     47 HC7        -0.3240    2.3990    8.0560 h1        1 LPP      0.060700
     48 HC81       -2.6970    2.4550    7.5950 h1        1 LPP      0.115700
     49 HC82       -1.9320    1.2850    6.8200 h1        1 LPP      0.115700
     50 H121        2.0620    1.9590    4.5030 hc        1 LPP      0.050200
     51 H122        3.1230    2.4470    5.6030 hc        1 LPP      0.050200
     52 H131        3.5220    0.2590    6.2800 hc        1 LPP      0.080700
     53 H132        2.3050   -0.2880    5.4090 hc        1 LPP      0.080700
     54 H141        4.7950    0.6480    4.4370 hc        1 LPP      0.021700
     55 H142        3.5370    0.5340    3.4600 hc        1 LPP      0.021700
     56 H151        3.4040   -1.8370    4.1230 hc        1 LPP      0.063200
     57 H152        4.8440   -1.6490    4.7880 hc        1 LPP      0.063200
     58 H161        4.3830   -1.1050    2.0360 hc        1 LPP      0.027200
     59 H162        5.8050   -1.2140    2.7390 hc        1 LPP      0.027200
     60 H171        5.6550   -3.4920    2.9240 hc        1 LPP      0.045200
     61 H172        4.0770   -3.4780    2.6670 hc        1 LPP      0.045200
     62 H181        4.4790   -2.8330    0.4050 hc        1 LPP      0.033200
     63 H182        6.0500   -2.9110    0.6660 hc        1 LPP      0.033200
     64 H191        6.0700   -5.1080    0.5140 hc        1 LPP      0.029200
     65 H192        4.6920   -5.2550    1.3120 hc        1 LPP      0.029200
     66 H201        3.4480   -4.9130   -0.5920 hc        1 LPP      0.049700
     67 H202        4.7010   -4.3350   -1.3990 hc        1 LPP      0.049700
     68 H211        5.4450   -6.3610   -1.9120 hc        1 LPP      0.031700
     69 H212        4.9660   -6.9830   -0.5170 hc        1 LPP      0.031700
     70 H221        2.9670   -7.5390   -1.3090 hc        1 LPP      0.046200
     71 H222        2.8800   -6.2410   -2.2400 hc        1 LPP      0.046200
     72 H231        4.5990   -8.4130   -2.8930 hc        1 LPP      0.033200
     73 H232        4.1700   -7.2240   -3.8670 hc        1 LPP      0.033200
     74 H241        1.8680   -8.1040   -3.5520 hc        1 LPP      0.043700
     75 H242        2.6000   -9.4420   -3.0790 hc        1 LPP      0.043700
     76 H251        3.0150   -8.2290   -5.6180 hc        1 LPP      0.034200
     77 H252        3.6930   -9.5960   -5.1490 hc        1 LPP      0.034200
     78 H261        1.6530  -10.6730   -5.1320 hc        1 LPP      0.030700
     79 H262        1.7520   -9.9200   -6.5390 hc        1 LPP      0.030700
     80 H263        0.8760   -9.2970   -5.3620 hc        1 LPP      0.030700
     81 H301       -3.9400    3.9600    3.8400 hc        1 LPP      0.157200
     82 H302       -5.2360    3.9840    4.7750 hc        1 LPP      0.157200
     83 H311       -6.0110    2.0070    3.8050 hc        1 LPP      0.011200
     84 H312       -4.6790    1.8760    2.9430 hc        1 LPP      0.011200
     85 H321       -5.3290    4.0760    2.0040 hc        1 LPP      0.093700
     86 H322       -6.7830    3.7150    2.5590 hc        1 LPP      0.093700
     87 H331       -7.0500    2.0130    1.1080 hc        1 LPP      0.013700
     88 H332       -5.4780    1.8120    0.9220 hc        1 LPP      0.013700
     89 H341       -5.4560    3.9420   -0.2330 hc        1 LPP      0.051700
     90 H342       -7.0500    3.8790   -0.2300 hc        1 LPP      0.051700
     91 H351       -6.8690    2.7770   -2.1140 hc        1 LPP      0.020200
     92 H352       -6.3950    1.5390   -1.2280 hc        1 LPP      0.020200
     93 H361       -4.3570    3.3300   -1.7880 hc        1 LPP      0.050700
     94 H362       -4.3100    1.7350   -1.8780 hc        1 LPP      0.050700
     95 H371       -5.7310    2.0850   -3.9200 hc        1 LPP      0.029200
     96 H372       -5.1060    3.5500   -3.8970 hc        1 LPP      0.029200
     97 H381       -2.9340    2.2560   -3.7080 hc        1 LPP      0.043200
     98 H382       -3.7900    1.1310   -4.4490 hc        1 LPP      0.043200
     99 H391       -4.0190    3.6290   -5.6680 hc        1 LPP      0.033700
    100 H392       -3.7410    2.2190   -6.3740 hc        1 LPP      0.033700
    101 H401       -1.4710    2.6000   -5.2010 hc        1 LPP      0.041200
    102 H402       -1.8720    4.1060   -5.5330 hc        1 LPP      0.041200
    103 H411       -2.1880    3.4310   -7.8390 hc        1 LPP      0.035700
    104 H412       -1.5650    2.0000   -7.4530 hc        1 LPP      0.035700
    105 H421        0.4070    3.2460   -6.6880 hc        1 LPP      0.040200
    106 H422       -0.2060    4.4970   -7.4620 hc        1 LPP      0.040200
    107 H431        0.4730    2.0370   -8.6840 hc        1 LPP      0.035700
    108 H432       -0.1760    3.2710   -9.4610 hc        1 LPP      0.035700
    109 H441        1.7120    4.5830   -9.0530 hc        1 LPP      0.029367
    110 H442        2.1890    3.2190   -9.7390 hc        1 LPP      0.029367
    111 H443        2.3570    3.4130   -8.1560 hc        1 LPP      0.029367
@<TRIPOS>BOND
     1    1    3 1   
     2    1    4 2   
     3    1    5 1   
     4    5    6 1   
     5    6    7 1   
     6    6   45 1   
     7    6   46 1   
     8    7    8 1   
     9    7    9 1   
    10    7   47 1   
    11    8   10 1   
    12    8   48 1   
    13    8   49 1   
    14    9   11 1   
    15   10   28 1   
    16   11   12 2   
    17   11   13 1   
    18   13   14 1   
    19   13   50 1   
    20   13   51 1   
    21   14   15 1   
    22   14   52 1   
    23   14   53 1   
    24   15   16 1   
    25   15   54 1   
    26   15   55 1   
    27   16   17 1   
    28   16   56 1   
    29   16   57 1   
    30   17   18 1   
    31   17   58 1   
    32   17   59 1   
    33   18   19 1   
    34   18   60 1   
    35   18   61 1   
    36   19   20 1   
    37   19   62 1   
    38   19   63 1   
    39   20   21 1   
    40   20   64 1   
    41   20   65 1   
    42   21   22 1   
    43   21   66 1   
    44   21   67 1   
    45   22   23 1   
    46   22   68 1   
    47   22   69 1   
    48   23   24 1   
    49   23   70 1   
    50   23   71 1   
    51   24   25 1   
    52   24   72 1   
    53   24   73 1   
    54   25   26 1   
    55   25   74 1   
    56   25   75 1   
    57   26   27 1   
    58   26   76 1   
    59   26   77 1   
    60   27   78 1   
    61   27   79 1   
    62   27   80 1   
    63   28   29 2   
    64   28   30 1   
    65   30   31 1   
    66   30   81 1   
    67   30   82 1   
    68   31   32 1   
    69   31   83 1   
    70   31   84 1   
    71   32   33 1   
    72   32   85 1   
    73   32   86 1   
    74   33   34 1   
    75   33   87 1   
    76   33   88 1   
    77   34   35 1   
    78   34   89 1   
    79   34   90 1   
    80   35   36 1   
    81   35   91 1   
    82   35   92 1   
    83   36   37 1   
    84   36   93 1   
    85   36   94 1   
    86   37   38 1   
    87   37   95 1   
    88   37   96 1   
    89   38   39 1   
    90   38   97 1   
    91   38   98 1   
    92   39   40 1   
    93   39   99 1   
    94   39  100 1   
    95   40   41 1   
    96   40  101 1   
    97   40  102 1   
    98   41   42 1   
    99   41  103 1   
   100   41  104 1   
   101   42   43 1   
   102   42  105 1   
   103   42  106 1   
   104   43   44 1   
   105   43  107 1   
   106   43  108 1   
   107   44  109 1   
   108   44  110 1   
   109   44  111 1   
@<TRIPOS>SUBSTRUCTURE
     1 LPP         1 TEMP              0 ****  ****    0 ROOT
