@<TRIPOS>MOLECULE
LPP
  111   110     1     0     0
SMALL
bcc


@<TRIPOS>ATOM
      1 P1         -2.8300   -1.6510    2.3880 p5        1 LPP      1.323900
      2 O2         -1.7840   -0.8260    3.1060 o         1 LPP     -0.915167
      3 O3         -2.4000   -2.3030    1.1060 o         1 LPP     -0.915167
      4 O4         -3.7600   -2.4490    3.2500 o         1 LPP     -0.915167
      5 O5         -3.8520   -0.3450    1.8390 os        1 LPP     -0.564200
      6 C6         -4.6360   -0.6350    0.7650 c3        1 LPP      0.234400
      7 C7         -4.6980    0.5220   -0.2700 c3        1 LPP      0.091100
      8 C8         -4.8460    1.9140    0.3420 c3        1 LPP      0.144400
      9 O9         -3.4790    0.4350   -1.0320 os        1 LPP     -0.348900
     10 O27        -3.5870    2.3850    0.8110 os        1 LPP     -0.457900
     11 C11        -3.4410    0.9610   -2.2700 c         1 LPP      0.630100
     12 O10        -4.4460    1.4760   -2.7860 o         1 LPP     -0.624000
     13 C12        -2.0760    0.8270   -2.8880 c3        1 LPP     -0.139400
     14 C13        -2.1670    0.6100   -4.3810 c3        1 LPP     -0.074400
     15 C14        -0.7900    0.5990   -5.0110 c3        1 LPP     -0.079400
     16 C15        -0.8710    0.3600   -6.5030 c3        1 LPP     -0.077400
     17 C16         0.5050    0.3520   -7.1340 c3        1 LPP     -0.079400
     18 C17         0.4250    0.1110   -8.6270 c3        1 LPP     -0.078400
     19 C18         1.8010    0.1030   -9.2580 c3        1 LPP     -0.079400
     20 C19         1.7220   -0.1380  -10.7500 c3        1 LPP     -0.078400
     21 C20         3.0980   -0.1450  -11.3800 c3        1 LPP     -0.079400
     22 C21         3.0180   -0.3860  -12.8730 c3        1 LPP     -0.078400
     23 C22         4.3940   -0.3940  -13.5030 c3        1 LPP     -0.079400
     24 C23         4.3150   -0.6340  -14.9950 c3        1 LPP     -0.079400
     25 C24         5.6910   -0.6410  -15.6250 c3        1 LPP     -0.079400
     26 C25         5.6130   -0.8820  -17.1180 c3        1 LPP     -0.080400
     27 C26         6.9810   -0.8900  -17.7500 c3        1 LPP     -0.092100
     28 C29        -3.4440    2.5300    2.1810 c         1 LPP      0.697100
     29 O28        -4.4110    3.0160    2.7830 o         1 LPP     -0.613000
     30 C30        -2.1180    2.0980    2.6710 c3        1 LPP     -0.218400
     31 C31        -1.7910    2.5960    4.0570 c3        1 LPP     -0.037400
     32 C32        -0.7100    1.7260    4.6650 c3        1 LPP     -0.115400
     33 C33        -0.5370    2.0050    6.1410 c3        1 LPP     -0.064400
     34 C34         0.5200    1.1020    6.7420 c3        1 LPP     -0.082400
     35 C35         0.6710    1.3350    8.2300 c3        1 LPP     -0.076400
     36 C36         1.7250    0.4260    8.8260 c3        1 LPP     -0.080400
     37 C37         1.8730    0.6530   10.3150 c3        1 LPP     -0.077400
     38 C38         2.9260   -0.2590   10.9090 c3        1 LPP     -0.079400
     39 C39         3.0740   -0.0340   12.3980 c3        1 LPP     -0.078400
     40 C40         4.1260   -0.9460   12.9910 c3        1 LPP     -0.079400
     41 C41         4.2750   -0.7210   14.4810 c3        1 LPP     -0.078400
     42 C42         5.3270   -1.6340   15.0730 c3        1 LPP     -0.079400
     43 C43         5.4760   -1.4110   16.5630 c3        1 LPP     -0.080400
     44 C44         6.5230   -2.3170   17.1570 c3        1 LPP     -0.091100
     45 HC61       -5.7210   -0.7640    1.0750 h1        1 LPP      0.012700
     46 HC62       -4.2730   -1.5630    0.2350 h1        1 LPP      0.012700
     47 HC7        -5.5680    0.3530   -0.9650 h1        1 LPP      0.023700
     48 HC81       -5.6030    1.8740    1.1670 h1        1 LPP      0.042700
     49 HC82       -5.1600    2.6500   -0.4480 h1        1 LPP      0.042700
     50 H121       -1.5130    1.7690   -2.6580 hc        1 LPP      0.084200
     51 H122       -1.5350   -0.0240   -2.3910 hc        1 LPP      0.084200
     52 H131       -2.6840   -0.3640   -4.5860 hc        1 LPP      0.047200
     53 H132       -2.7950    1.4200   -4.8400 hc        1 LPP      0.047200
     54 H141       -0.2790    1.5780   -4.8140 hc        1 LPP      0.040700
     55 H142       -0.1670   -0.2020   -4.5330 hc        1 LPP      0.040700
     56 H151       -1.3800   -0.6210   -6.6980 hc        1 LPP      0.036700
     57 H152       -1.4990    1.1580   -6.9790 hc        1 LPP      0.036700
     58 H161        1.0140    1.3320   -6.9380 hc        1 LPP      0.039200
     59 H162        1.1320   -0.4470   -6.6570 hc        1 LPP      0.039200
     60 H171       -0.0840   -0.8700   -8.8220 hc        1 LPP      0.036700
     61 H172       -0.2030    0.9090   -9.1030 hc        1 LPP      0.036700
     62 H181        2.3100    1.0830   -9.0610 hc        1 LPP      0.039200
     63 H182        2.4280   -0.6960   -8.7800 hc        1 LPP      0.039200
     64 H191        1.2130   -1.1190  -10.9450 hc        1 LPP      0.037700
     65 H192        1.0930    0.6600  -11.2270 hc        1 LPP      0.037700
     66 H201        3.6060    0.8350  -11.1840 hc        1 LPP      0.038700
     67 H202        3.7250   -0.9440  -10.9030 hc        1 LPP      0.038700
     68 H211        2.5100   -1.3670  -13.0680 hc        1 LPP      0.038200
     69 H212        2.3900    0.4120  -13.3490 hc        1 LPP      0.038200
     70 H221        4.9030    0.5870  -13.3060 hc        1 LPP      0.039200
     71 H222        5.0220   -1.1920  -13.0260 hc        1 LPP      0.039200
     72 H231        3.8060   -1.6150  -15.1910 hc        1 LPP      0.038200
     73 H232        3.6870    0.1640  -15.4720 hc        1 LPP      0.038200
     74 H241        6.2000    0.3390  -15.4290 hc        1 LPP      0.039200
     75 H242        6.3190   -1.4400  -15.1490 hc        1 LPP      0.039200
     76 H251        5.1030   -1.8620  -17.3120 hc        1 LPP      0.037700
     77 H252        4.9840   -0.0830  -17.5920 hc        1 LPP      0.037700
     78 H261        6.9010   -1.0690  -18.8490 hc        1 LPP      0.030367
     79 H262        7.4960    0.0880  -17.5880 hc        1 LPP      0.030367
     80 H263        7.6150   -1.6960  -17.3070 hc        1 LPP      0.030367
     81 H301       -1.3210    2.3650    1.9350 hc        1 LPP      0.152700
     82 H302       -2.1650    0.9200    2.6850 hc        1 LPP      0.152700
     83 H311       -2.7160    2.5500    4.6920 hc        1 LPP      0.013200
     84 H312       -1.4600    3.6680    4.0300 hc        1 LPP      0.013200
     85 H321        0.2600    1.9070    4.1330 hc        1 LPP      0.090200
     86 H322       -0.9870    0.6380    4.4900 hc        1 LPP      0.090200
     87 H331       -1.5130    1.8380    6.6690 hc        1 LPP      0.016700
     88 H332       -0.2520    3.0780    6.3050 hc        1 LPP      0.016700
     89 H341        1.5020    1.2820    6.2310 hc        1 LPP      0.048700
     90 H342        0.2380    0.0320    6.5500 hc        1 LPP      0.048700
     91 H351       -0.3120    1.1540    8.7380 hc        1 LPP      0.029200
     92 H352        0.9480    2.4060    8.4190 hc        1 LPP      0.029200
     93 H361        2.7080    0.6070    8.3180 hc        1 LPP      0.040700
     94 H362        1.4460   -0.6430    8.6330 hc        1 LPP      0.040700
     95 H371        0.8890    0.4700   10.8220 hc        1 LPP      0.033700
     96 H372        2.1510    1.7220   10.5080 hc        1 LPP      0.033700
     97 H381        3.9100   -0.0780   10.4010 hc        1 LPP      0.039700
     98 H382        2.6470   -1.3290   10.7160 hc        1 LPP      0.039700
     99 H391        2.0900   -0.2160   12.9050 hc        1 LPP      0.036200
    100 H392        3.3520    1.0360   12.5910 hc        1 LPP      0.036200
    101 H401        5.1100   -0.7650   12.4840 hc        1 LPP      0.039200
    102 H402        3.8470   -2.0160   12.7980 hc        1 LPP      0.039200
    103 H411        3.2910   -0.9030   14.9880 hc        1 LPP      0.037200
    104 H412        4.5530    0.3480   14.6740 hc        1 LPP      0.037200
    105 H421        6.3110   -1.4530   14.5660 hc        1 LPP      0.039200
    106 H422        5.0480   -2.7040   14.8810 hc        1 LPP      0.039200
    107 H431        4.4910   -1.5910   17.0680 hc        1 LPP      0.036700
    108 H432        5.7530   -0.3400   16.7540 hc        1 LPP      0.036700
    109 H441        6.6170   -2.1370   18.2550 hc        1 LPP      0.029367
    110 H442        6.2520   -3.3890   16.9980 hc        1 LPP      0.029367
    111 H443        7.5180   -2.1350   16.6830 hc        1 LPP      0.029367
@<TRIPOS>BOND
     1    1    2 1   
     2    1    3 1   
     3    1    4 1   
     4    1    5 1   
     5    5    6 1   
     6    6    7 1   
     7    6   45 1   
     8    6   46 1   
     9    7    8 1   
    10    7    9 1   
    11    7   47 1   
    12    8   10 1   
    13    8   48 1   
    14    8   49 1   
    15    9   11 1   
    16   10   28 1   
    17   11   12 2   
    18   11   13 1   
    19   13   14 1   
    20   13   50 1   
    21   13   51 1   
    22   14   15 1   
    23   14   52 1   
    24   14   53 1   
    25   15   16 1   
    26   15   54 1   
    27   15   55 1   
    28   16   17 1   
    29   16   56 1   
    30   16   57 1   
    31   17   18 1   
    32   17   58 1   
    33   17   59 1   
    34   18   19 1   
    35   18   60 1   
    36   18   61 1   
    37   19   20 1   
    38   19   62 1   
    39   19   63 1   
    40   20   21 1   
    41   20   64 1   
    42   20   65 1   
    43   21   22 1   
    44   21   66 1   
    45   21   67 1   
    46   22   23 1   
    47   22   68 1   
    48   22   69 1   
    49   23   24 1   
    50   23   70 1   
    51   23   71 1   
    52   24   25 1   
    53   24   72 1   
    54   24   73 1   
    55   25   26 1   
    56   25   74 1   
    57   25   75 1   
    58   26   27 1   
    59   26   76 1   
    60   26   77 1   
    61   27   78 1   
    62   27   79 1   
    63   27   80 1   
    64   28   29 2   
    65   28   30 1   
    66   30   31 1   
    67   30   81 1   
    68   30   82 1   
    69   31   32 1   
    70   31   83 1   
    71   31   84 1   
    72   32   33 1   
    73   32   85 1   
    74   32   86 1   
    75   33   34 1   
    76   33   87 1   
    77   33   88 1   
    78   34   35 1   
    79   34   89 1   
    80   34   90 1   
    81   35   36 1   
    82   35   91 1   
    83   35   92 1   
    84   36   37 1   
    85   36   93 1   
    86   36   94 1   
    87   37   38 1   
    88   37   95 1   
    89   37   96 1   
    90   38   39 1   
    91   38   97 1   
    92   38   98 1   
    93   39   40 1   
    94   39   99 1   
    95   39  100 1   
    96   40   41 1   
    97   40  101 1   
    98   40  102 1   
    99   41   42 1   
   100   41  103 1   
   101   41  104 1   
   102   42   43 1   
   103   42  105 1   
   104   42  106 1   
   105   43   44 1   
   106   43  107 1   
   107   43  108 1   
   108   44  109 1   
   109   44  110 1   
   110   44  111 1   
@<TRIPOS>SUBSTRUCTURE
     1 LPP         1 TEMP              0 ****  ****    0 ROOT
