@<TRIPOS>MOLECULE
LPP
  111   110     1     0     0
SMALL
bcc


@<TRIPOS>ATOM
      1 P1          1.7180   -1.2120   -1.8450 p5        1 LPP      1.323900
      2 O2          2.1690   -2.1700   -2.9260 o         1 LPP     -0.915167
      3 O3          1.6370   -1.7690   -0.4530 o         1 LPP     -0.915167
      4 O4          2.2000    0.2020   -1.9580 o         1 LPP     -0.915167
      5 O5          0.0390   -1.0760   -2.3090 os        1 LPP     -0.564200
      6 C6         -0.8070   -0.6830   -1.3170 c3        1 LPP      0.234400
      7 C7         -2.1470   -1.4690   -1.3170 c3        1 LPP      0.091100
      8 C8         -2.7550   -1.6880   -2.7000 c3        1 LPP      0.144400
      9 O9         -1.8630   -2.7310   -0.6860 os        1 LPP     -0.348900
     10 O27        -2.1060   -2.7710   -3.3610 os        1 LPP     -0.457900
     11 C11        -2.8690   -3.4200   -0.1130 c         1 LPP      0.630100
     12 O10        -4.0240   -2.9660   -0.0760 o         1 LPP     -0.624000
     13 C12        -2.3960   -4.7340    0.4420 c3        1 LPP     -0.139400
     14 C13        -3.1510   -5.1050    1.6990 c3        1 LPP     -0.074400
     15 C14        -2.7540   -6.4840    2.1800 c3        1 LPP     -0.079400
     16 C15        -3.4890   -6.8530    3.4520 c3        1 LPP     -0.077400
     17 C16        -3.0960   -8.2330    3.9330 c3        1 LPP     -0.079400
     18 C17        -3.8290   -8.6020    5.2050 c3        1 LPP     -0.078400
     19 C18        -3.4360   -9.9820    5.6870 c3        1 LPP     -0.079400
     20 C19        -4.1690  -10.3510    6.9590 c3        1 LPP     -0.078400
     21 C20        -3.7750  -11.7310    7.4410 c3        1 LPP     -0.079400
     22 C21        -4.5080  -12.1000    8.7130 c3        1 LPP     -0.078400
     23 C22        -4.1150  -13.4800    9.1940 c3        1 LPP     -0.079400
     24 C23        -4.8470  -13.8490   10.4660 c3        1 LPP     -0.079400
     25 C24        -4.4540  -15.2290   10.9470 c3        1 LPP     -0.079400
     26 C25        -5.1860  -15.6000   12.2190 c3        1 LPP     -0.080400
     27 C26        -4.7980  -16.9730   12.7020 c3        1 LPP     -0.092100
     28 C29        -1.3500   -2.4600   -4.4790 c         1 LPP      0.697100
     29 O28        -1.8380   -1.6280   -5.2540 o         1 LPP     -0.613000
     30 C30        -0.0880   -3.2260   -4.5510 c3        1 LPP     -0.218400
     31 C31         0.5560   -3.2070   -5.9160 c3        1 LPP     -0.037400
     32 C32         2.0260   -3.5480   -5.7870 c3        1 LPP     -0.115400
     33 C33         2.7750   -3.2780   -7.0730 c3        1 LPP     -0.064400
     34 C34         4.2480   -3.5870   -6.9150 c3        1 LPP     -0.082400
     35 C35         5.0200   -3.2760   -8.1800 c3        1 LPP     -0.076400
     36 C36         6.4940   -3.5820   -8.0160 c3        1 LPP     -0.080400
     37 C37         7.2690   -3.2660   -9.2770 c3        1 LPP     -0.077400
     38 C38         8.7420   -3.5710   -9.1090 c3        1 LPP     -0.079400
     39 C39         9.5180   -3.2540  -10.3700 c3        1 LPP     -0.078400
     40 C40        10.9910   -3.5590  -10.2010 c3        1 LPP     -0.079400
     41 C41        11.7670   -3.2420  -11.4620 c3        1 LPP     -0.078400
     42 C42        13.2400   -3.5480  -11.2930 c3        1 LPP     -0.079400
     43 C43        14.0180   -3.2310  -12.5530 c3        1 LPP     -0.080400
     44 C44        15.4850   -3.5340  -12.3890 c3        1 LPP     -0.091100
     45 HC61       -0.3270   -0.8030   -0.3020 h1        1 LPP      0.012700
     46 HC62       -1.1360    0.3930   -1.4660 h1        1 LPP      0.012700
     47 HC7        -2.9020   -0.9160   -0.6900 h1        1 LPP      0.023700
     48 HC81       -3.8290   -2.0050   -2.6040 h1        1 LPP      0.042700
     49 HC82       -2.6740   -0.7410   -3.2920 h1        1 LPP      0.042700
     50 H121       -1.2920   -4.6680    0.6410 hc        1 LPP      0.084200
     51 H122       -2.5520   -5.5080   -0.3560 hc        1 LPP      0.084200
     52 H131       -4.2540   -5.0680    1.4970 hc        1 LPP      0.047200
     53 H132       -2.9360   -4.3480    2.4990 hc        1 LPP      0.047200
     54 H141       -2.9790   -7.2400    1.3830 hc        1 LPP      0.040700
     55 H142       -1.6470   -6.5130    2.3620 hc        1 LPP      0.040700
     56 H151       -3.2610   -6.0970    4.2490 hc        1 LPP      0.036700
     57 H152       -4.5960   -6.8180    3.2700 hc        1 LPP      0.036700
     58 H161       -3.3240   -8.9880    3.1360 hc        1 LPP      0.039200
     59 H162       -1.9890   -8.2660    4.1140 hc        1 LPP      0.039200
     60 H171       -4.9360   -8.5680    5.0250 hc        1 LPP      0.036700
     61 H172       -3.6010   -7.8460    6.0030 hc        1 LPP      0.036700
     62 H181       -3.6630  -10.7370    4.8890 hc        1 LPP      0.039200
     63 H182       -2.3290  -10.0150    5.8670 hc        1 LPP      0.039200
     64 H191       -5.2760  -10.3170    6.7790 hc        1 LPP      0.037700
     65 H192       -3.9410   -9.5950    7.7560 hc        1 LPP      0.037700
     66 H201       -4.0030  -12.4860    6.6430 hc        1 LPP      0.038700
     67 H202       -2.6680  -11.7650    7.6210 hc        1 LPP      0.038700
     68 H211       -5.6150  -12.0660    8.5320 hc        1 LPP      0.038200
     69 H212       -4.2800  -11.3450    9.5100 hc        1 LPP      0.038200
     70 H221       -4.3420  -14.2360    8.3960 hc        1 LPP      0.039200
     71 H222       -3.0080  -13.5140    9.3740 hc        1 LPP      0.039200
     72 H231       -5.9540  -13.8150   10.2850 hc        1 LPP      0.038200
     73 H232       -4.6200  -13.0940   11.2630 hc        1 LPP      0.038200
     74 H241       -3.3470  -15.2640   11.1270 hc        1 LPP      0.039200
     75 H242       -4.6820  -15.9850   10.1490 hc        1 LPP      0.039200
     76 H251       -6.2930  -15.5630   12.0370 hc        1 LPP      0.037700
     77 H252       -4.9580  -14.8420   13.0150 hc        1 LPP      0.037700
     78 H261       -5.0400  -17.7450   11.9310 hc        1 LPP      0.030367
     79 H262       -3.7020  -17.0220   12.9120 hc        1 LPP      0.030367
     80 H263       -5.3480  -17.2260   13.6400 hc        1 LPP      0.030367
     81 H301       -0.2390   -4.2680   -4.1780 hc        1 LPP      0.152700
     82 H302        0.6320   -2.7050   -3.7780 hc        1 LPP      0.152700
     83 H311        0.4420   -2.1830   -6.3620 hc        1 LPP      0.013200
     84 H312        0.0470   -3.9290   -6.6090 hc        1 LPP      0.013200
     85 H321        2.4600   -2.9380   -4.9310 hc        1 LPP      0.090200
     86 H322        2.1380   -4.6280   -5.5070 hc        1 LPP      0.090200
     87 H331        2.3480   -3.8930   -7.9090 hc        1 LPP      0.016700
     88 H332        2.6490   -2.2000   -7.3570 hc        1 LPP      0.016700
     89 H341        4.3800   -4.6700   -6.6520 hc        1 LPP      0.048700
     90 H342        4.6590   -2.9860   -6.0600 hc        1 LPP      0.048700
     91 H351        4.6050   -3.8740   -9.0340 hc        1 LPP      0.029200
     92 H352        4.8890   -2.1930   -8.4400 hc        1 LPP      0.029200
     93 H361        6.9050   -2.9850   -7.1600 hc        1 LPP      0.040700
     94 H362        6.6250   -4.6650   -7.7550 hc        1 LPP      0.040700
     95 H371        6.8560   -3.8620  -10.1320 hc        1 LPP      0.033700
     96 H372        7.1370   -2.1820   -9.5350 hc        1 LPP      0.033700
     97 H381        9.1530   -2.9740   -8.2540 hc        1 LPP      0.039700
     98 H382        8.8740   -4.6540   -8.8490 hc        1 LPP      0.039700
     99 H391        9.3860   -2.1700  -10.6290 hc        1 LPP      0.036200
    100 H392        9.1060   -3.8510  -11.2260 hc        1 LPP      0.036200
    101 H401       11.1230   -4.6430   -9.9410 hc        1 LPP      0.039200
    102 H402       11.4030   -2.9620   -9.3460 hc        1 LPP      0.039200
    103 H411       11.6350   -2.1590  -11.7210 hc        1 LPP      0.037200
    104 H412       11.3550   -3.8390  -12.3180 hc        1 LPP      0.037200
    105 H421       13.3720   -4.6310  -11.0330 hc        1 LPP      0.039200
    106 H422       13.6520   -2.9500  -10.4370 hc        1 LPP      0.039200
    107 H431       13.8830   -2.1470  -12.8120 hc        1 LPP      0.036700
    108 H432       13.6030   -3.8280  -13.4080 hc        1 LPP      0.036700
    109 H441       15.6400   -4.6140  -12.1550 hc        1 LPP      0.029367
    110 H442       16.0390   -3.2930  -13.3280 hc        1 LPP      0.029367
    111 H443       15.9210   -2.9300  -11.5570 hc        1 LPP      0.029367
@<TRIPOS>BOND
     1    1    2 1   
     2    1    3 1   
     3    1    4 1   
     4    1    5 1   
     5    5    6 1   
     6    6    7 1   
     7    6   45 1   
     8    6   46 1   
     9    7    8 1   
    10    7    9 1   
    11    7   47 1   
    12    8   10 1   
    13    8   48 1   
    14    8   49 1   
    15    9   11 1   
    16   10   28 1   
    17   11   12 2   
    18   11   13 1   
    19   13   14 1   
    20   13   50 1   
    21   13   51 1   
    22   14   15 1   
    23   14   52 1   
    24   14   53 1   
    25   15   16 1   
    26   15   54 1   
    27   15   55 1   
    28   16   17 1   
    29   16   56 1   
    30   16   57 1   
    31   17   18 1   
    32   17   58 1   
    33   17   59 1   
    34   18   19 1   
    35   18   60 1   
    36   18   61 1   
    37   19   20 1   
    38   19   62 1   
    39   19   63 1   
    40   20   21 1   
    41   20   64 1   
    42   20   65 1   
    43   21   22 1   
    44   21   66 1   
    45   21   67 1   
    46   22   23 1   
    47   22   68 1   
    48   22   69 1   
    49   23   24 1   
    50   23   70 1   
    51   23   71 1   
    52   24   25 1   
    53   24   72 1   
    54   24   73 1   
    55   25   26 1   
    56   25   74 1   
    57   25   75 1   
    58   26   27 1   
    59   26   76 1   
    60   26   77 1   
    61   27   78 1   
    62   27   79 1   
    63   27   80 1   
    64   28   29 2   
    65   28   30 1   
    66   30   31 1   
    67   30   81 1   
    68   30   82 1   
    69   31   32 1   
    70   31   83 1   
    71   31   84 1   
    72   32   33 1   
    73   32   85 1   
    74   32   86 1   
    75   33   34 1   
    76   33   87 1   
    77   33   88 1   
    78   34   35 1   
    79   34   89 1   
    80   34   90 1   
    81   35   36 1   
    82   35   91 1   
    83   35   92 1   
    84   36   37 1   
    85   36   93 1   
    86   36   94 1   
    87   37   38 1   
    88   37   95 1   
    89   37   96 1   
    90   38   39 1   
    91   38   97 1   
    92   38   98 1   
    93   39   40 1   
    94   39   99 1   
    95   39  100 1   
    96   40   41 1   
    97   40  101 1   
    98   40  102 1   
    99   41   42 1   
   100   41  103 1   
   101   41  104 1   
   102   42   43 1   
   103   42  105 1   
   104   42  106 1   
   105   43   44 1   
   106   43  107 1   
   107   43  108 1   
   108   44  109 1   
   109   44  110 1   
   110   44  111 1   
@<TRIPOS>SUBSTRUCTURE
     1 LPP         1 TEMP              0 ****  ****    0 ROOT
