@<TRIPOS>MOLECULE
LPQ
   85    90     1     0     0
SMALL
bcc


@<TRIPOS>ATOM
      1 C1         -0.0210    0.5490    0.3710 c3        1 LPQ     -0.114400
      2 C2          1.4460    0.9450    0.5250 c3        1 LPQ      0.144800
      3 N3          1.9480    0.8430    1.8790 n3        1 LPQ     -0.786200
      4 C4          1.6890   -0.4300    2.4870 c3        1 LPQ      0.171800
      5 C5          0.2180   -0.9250    2.3950 c3        1 LPQ     -0.179700
      6 C6         -0.2820   -0.8430    0.9420 c3        1 LPQ      0.002600
      7 C7         -1.7300   -1.1830    0.8400 ca        1 LPQ     -0.260600
      8 C8         -2.7140   -0.4290    1.5100 ca        1 LPQ      0.429200
      9 N9         -4.0290   -0.7040    1.4770 nb        1 LPQ     -0.723000
     10 C10        -4.4100   -1.7640    0.7170 ca        1 LPQ      0.614600
     11 C11        -3.5100   -2.5570   -0.0440 ca        1 LPQ     -0.250300
     12 C12        -2.1570   -2.2510    0.0330 ca        1 LPQ     -0.046000
     13 O13        -5.7230   -2.1870    0.6810 os        1 LPQ     -0.468100
     14 C14        -6.7290   -1.2680    1.1450 c3        1 LPQ      0.120400
     15 C15         0.1630   -2.3520    2.8840 c         1 LPQ      0.568100
     16 O16         0.0960   -3.3810    2.2330 o         1 LPQ     -0.414100
     17 N17         0.2400   -2.5270    4.4100 n4        1 LPQ     -0.569200
     18 C18        -8.0570   -1.9680    0.8890 c3        1 LPQ      0.119400
     19 O19        -8.3180   -2.8430    2.0100 os        1 LPQ     -0.398900
     20 C20        -9.6330   -2.8020    2.4580 ca        1 LPQ      0.059100
     21 C21       -10.7050   -3.2840    1.6850 ca        1 LPQ     -0.000600
     22 C22       -12.0040   -3.2610    2.2040 ca        1 LPQ     -0.100000
     23 C23       -12.2510   -2.7750    3.4920 ca        1 LPQ     -0.034300
     24 C24       -11.1820   -2.3230    4.2770 ca        1 LPQ     -0.100000
     25 C25        -9.8870   -2.3420    3.7630 ca        1 LPQ     -0.000600
     26 CL26      -10.4630   -3.9040    0.1270 cl        1 LPQ     -0.079900
     27 CL27       -8.6020   -1.8080    4.7640 cl        1 LPQ     -0.079900
     28 C28       -13.6340   -2.7260    4.0180 c3        1 LPQ     -0.073800
     29 C29        -0.7990   -3.4810    4.9120 c3        1 LPQ      0.157100
     30 C30         1.6150   -2.9330    4.7750 cx        1 LPQ     -0.007500
     31 C31        -2.2000   -2.9550    4.8720 ca        1 LPQ     -0.141300
     32 C32        -3.1720   -3.6940    4.1860 ca        1 LPQ     -0.062000
     33 C33        -4.5100   -3.2850    4.1820 ca        1 LPQ     -0.134300
     34 C34        -4.8760   -2.1170    4.8590 ca        1 LPQ     -0.082000
     35 C35        -3.9240   -1.3850    5.5650 ca        1 LPQ     -0.090000
     36 C36        -2.5900   -1.8050    5.5770 ca        1 LPQ      0.031400
     37 CL37       -1.4620   -0.8980    6.4650 cl        1 LPQ     -0.049400
     38 C38        -5.5010   -4.0670    3.3780 c3        1 LPQ      0.148100
     39 N39        -6.7870   -4.3270    4.0950 n4        1 LPQ     -0.734000
     40 C40         1.9960   -4.3160    5.2620 cx        1 LPQ     -0.093400
     41 C41         2.0410   -3.1600    6.2120 cx        1 LPQ     -0.093400
     42 C42        -7.5200   -5.4490    3.4830 cx        1 LPQ     -0.000500
     43 C43        -8.3880   -6.3560    4.3310 cx        1 LPQ     -0.102900
     44 C44        -7.1190   -6.8860    3.7390 cx        1 LPQ     -0.102900
     45 H1         -0.6810    1.3000    0.8780 hc        1 LPQ      0.071700
     46 H1A        -0.2870    0.5490   -0.7190 hc        1 LPQ      0.071700
     47 H2          2.0810    0.2820   -0.1290 h1        1 LPQ      0.084200
     48 H2A         1.5850    2.0070    0.1750 h1        1 LPQ      0.084200
     49 HN3         1.6140    1.5990    2.4490 hn        1 LPQ      0.376800
     50 H4          1.9820   -0.3710    3.5720 h1        1 LPQ      0.063200
     51 H4A         2.3420   -1.1920    1.9700 h1        1 LPQ      0.063200
     52 H5         -0.4390   -0.2750    3.0380 hc        1 LPQ      0.087700
     53 H6          0.3160   -1.5860    0.3360 hc        1 LPQ      0.087700
     54 H8         -2.4420    0.4620    2.1090 h4        1 LPQ      0.027100
     55 H11        -3.8920   -3.3690   -0.6780 ha        1 LPQ      0.176000
     56 H12        -1.4250   -2.8420   -0.5420 ha        1 LPQ      0.164000
     57 H14        -6.6680   -0.3170    0.5560 h1        1 LPQ      0.072700
     58 H14A       -6.5800   -1.0610    2.2360 h1        1 LPQ      0.072700
     59 H18        -7.9990   -2.6220   -0.0220 h1        1 LPQ      0.090200
     60 H18A       -8.8700   -1.2060    0.7730 h1        1 LPQ      0.090200
     61 H22       -12.8450   -3.6280    1.5890 ha        1 LPQ      0.175000
     62 H24       -11.3710   -1.9460    5.2960 ha        1 LPQ      0.175000
     63 H28       -14.2440   -3.5770    3.6230 hc        1 LPQ      0.069700
     64 H28A      -14.1250   -1.7690    3.7000 hc        1 LPQ      0.069700
     65 H28B      -13.6450   -2.7690    5.1350 hc        1 LPQ      0.069700
     66 H29        -0.7130   -4.4230    4.2920 hx        1 LPQ      0.120700
     67 H29A       -0.5440   -3.7340    5.9850 hx        1 LPQ      0.120700
     68 H30         2.3390   -2.4150    4.0970 hx        1 LPQ      0.141700
     69 H32        -2.8750   -4.6060    3.6380 ha        1 LPQ      0.160000
     70 H34        -5.9130   -1.7440    4.8250 ha        1 LPQ      0.155000
     71 H35        -4.2240   -0.4720    6.1100 ha        1 LPQ      0.188000
     72 H38        -5.0650   -5.0670    3.0830 hx        1 LPQ      0.128700
     73 H38A       -5.7580   -3.4980    2.4270 hx        1 LPQ      0.128700
     74 HN39       -7.3950   -3.4750    4.0430 hn        1 LPQ      0.458300
     75 H40         2.9420   -4.7430    4.8700 hc        1 LPQ      0.111700
     76 H40A        1.2290   -5.1000    5.3970 hc        1 LPQ      0.111700
     77 H41         3.0180   -2.7390    6.5220 hc        1 LPQ      0.111700
     78 H41A        1.3000   -3.1020    7.0310 hc        1 LPQ      0.111700
     79 H42        -7.8740   -5.1460    2.4660 hx        1 LPQ      0.163700
     80 H43        -8.4500   -6.2050    5.4260 hc        1 LPQ      0.109700
     81 H43A       -9.3650   -6.6640    3.9080 hc        1 LPQ      0.109700
     82 H44        -7.1640   -7.5890    2.8840 hc        1 LPQ      0.109700
     83 H44A       -6.2710   -7.1160    4.4110 hc        1 LPQ      0.109700
     84 H171        0.0720   -1.6060    4.8480 hn        1 LPQ      0.456800
     85 H392       -6.5990   -4.5300    5.0820 hn        1 LPQ      0.458300
@<TRIPOS>BOND
     1    1    2 1   
     2    1    6 1   
     3    1   45 1   
     4    1   46 1   
     5    2    3 1   
     6    2   47 1   
     7    2   48 1   
     8    3    4 1   
     9    3   49 1   
    10    4    5 1   
    11    4   50 1   
    12    4   51 1   
    13    5    6 1   
    14    5   15 1   
    15    5   52 1   
    16    6    7 1   
    17    6   53 1   
    18    7    8 ar  
    19    7   12 ar  
    20    8    9 ar  
    21    8   54 1   
    22    9   10 ar  
    23   10   11 ar  
    24   10   13 1   
    25   11   12 ar  
    26   11   55 1   
    27   12   56 1   
    28   13   14 1   
    29   14   18 1   
    30   14   57 1   
    31   14   58 1   
    32   15   16 2   
    33   15   17 1   
    34   17   29 1   
    35   17   30 1   
    36   17   84 1   
    37   18   19 1   
    38   18   59 1   
    39   18   60 1   
    40   19   20 1   
    41   20   21 ar  
    42   20   25 ar  
    43   21   22 ar  
    44   21   26 1   
    45   22   23 ar  
    46   22   61 1   
    47   23   24 ar  
    48   23   28 1   
    49   24   25 ar  
    50   24   62 1   
    51   25   27 1   
    52   28   63 1   
    53   28   64 1   
    54   28   65 1   
    55   29   31 1   
    56   29   66 1   
    57   29   67 1   
    58   30   40 1   
    59   30   41 1   
    60   30   68 1   
    61   31   32 ar  
    62   31   36 ar  
    63   32   33 ar  
    64   32   69 1   
    65   33   34 ar  
    66   33   38 1   
    67   34   35 ar  
    68   34   70 1   
    69   35   36 ar  
    70   35   71 1   
    71   36   37 1   
    72   38   39 1   
    73   38   72 1   
    74   38   73 1   
    75   39   42 1   
    76   39   74 1   
    77   39   85 1   
    78   40   41 1   
    79   40   75 1   
    80   40   76 1   
    81   41   77 1   
    82   41   78 1   
    83   42   43 1   
    84   42   44 1   
    85   42   79 1   
    86   43   44 1   
    87   43   80 1   
    88   43   81 1   
    89   44   82 1   
    90   44   83 1   
@<TRIPOS>SUBSTRUCTURE
     1 LPQ         1 TEMP              0 ****  ****    0 ROOT
