@<TRIPOS>MOLECULE
LPQ
   85    90     1     0     0
SMALL
bcc


@<TRIPOS>ATOM
      1 C1          0.2760    0.0870    0.1240 c3        1 LPQ     -0.077400
      2 C2          1.7940    0.2490    0.0890 c3        1 LPQ      0.151800
      3 N3          2.3920    0.1430    1.4060 n7        1 LPQ     -0.827200
      4 C4          2.0370   -1.0710    2.1010 c3        1 LPQ      0.177800
      5 C5          0.4960   -1.1690    2.2640 c3        1 LPQ     -0.133700
      6 C6         -0.1330   -1.1890    0.8600 c3        1 LPQ     -0.002400
      7 C7         -1.6160   -1.3230    0.8800 ca        1 LPQ     -0.266600
      8 C8         -2.4410   -0.3960    1.5460 ca        1 LPQ      0.433200
      9 N9         -3.7820   -0.4740    1.5920 nb        1 LPQ     -0.714000
     10 C10        -4.3570   -1.5030    0.9160 ca        1 LPQ      0.626600
     11 C11        -3.6250   -2.4590    0.1610 ca        1 LPQ     -0.272300
     12 C12        -2.2400   -2.3540    0.1560 ca        1 LPQ     -0.046000
     13 O13        -5.7180   -1.7270    0.9570 os        1 LPQ     -0.475100
     14 C14        -6.5390   -0.7000    1.5460 c3        1 LPQ      0.125400
     15 C15         0.1860   -2.4450    3.0100 c         1 LPQ      0.567100
     16 O16         0.2340   -3.5870    2.5840 o         1 LPQ     -0.421100
     17 N17        -0.2140   -2.2840    4.4890 nx        1 LPQ     -0.562200
     18 C18        -7.9630   -1.2340    1.5050 c3        1 LPQ      0.119400
     19 O19        -8.0970   -2.1600    2.6090 os        1 LPQ     -0.409900
     20 C20        -9.3990   -2.2450    3.0930 ca        1 LPQ      0.035100
     21 C21       -10.3070   -3.1600    2.5300 ca        1 LPQ      0.007900
     22 C22       -11.5930   -3.2870    3.0570 ca        1 LPQ     -0.108500
     23 C23       -11.9860   -2.5060    4.1520 ca        1 LPQ     -0.026300
     24 C24       -11.0810   -1.6030    4.7200 ca        1 LPQ     -0.108500
     25 C25        -9.7930   -1.4660    4.1940 ca        1 LPQ      0.007900
     26 Cl26       -9.8580   -4.1200    1.1980 cl        1 LPQ     -0.075900
     27 Cl27       -8.7270   -0.3520    4.9040 cl        1 LPQ     -0.075900
     28 C28       -13.3610   -2.6210    4.6910 c3        1 LPQ     -0.074800
     29 C29        -1.1230   -3.3800    4.9600 c3        1 LPQ      0.152100
     30 C30         1.0220   -2.1500    5.2880 cx        1 LPQ     -0.011500
     31 C31        -2.5750   -3.0840    4.7460 ca        1 LPQ     -0.146300
     32 C32        -3.3140   -3.8930    3.8770 ca        1 LPQ     -0.064000
     33 C33        -4.6830   -3.6690    3.6870 ca        1 LPQ     -0.137300
     34 C34        -5.3200   -2.6330    4.3790 ca        1 LPQ     -0.089000
     35 C35        -4.6000   -1.8440    5.2740 ca        1 LPQ     -0.091000
     36 C36        -3.2300   -2.0630    5.4560 ca        1 LPQ      0.036400
     37 Cl37       -2.3840   -1.0750    6.5440 cl        1 LPQ     -0.046400
     38 C38        -5.3930   -4.4950    2.6600 c3        1 LPQ      0.159100
     39 N39        -6.8210   -4.7980    2.9920 ny        1 LPQ     -0.729000
     40 C40         1.7070   -3.3090    5.9810 cx        1 LPQ     -0.092900
     41 C41         1.0680   -2.2330    6.8010 cx        1 LPQ     -0.092900
     42 C42        -7.2130   -6.1420    2.5360 cx        1 LPQ     -0.008500
     43 C43        -8.3330   -6.8940    3.2280 cx        1 LPQ     -0.098400
     44 C44        -6.9220   -7.3730    3.3710 cx        1 LPQ     -0.098400
     45 H1         -0.1040    0.0410   -0.9290 hc        1 LPQ      0.073200
     46 H1A        -0.1940    0.9760    0.6190 hc        1 LPQ      0.073200
     47 H2          2.2190   -0.5110   -0.6310 h1        1 LPQ      0.061200
     48 H2A         2.0420    1.2750   -0.3080 h1        1 LPQ      0.061200
     49 HN3         3.3890    0.2500    1.3630 hn        1 LPQ      0.404800
     50 H4          2.3810   -2.0100    1.5750 h1        1 LPQ      0.046700
     51 H4A         2.5300   -1.0380    3.1120 h1        1 LPQ      0.046700
     52 H5          0.1180   -0.2670    2.8210 hc        1 LPQ      0.098700
     53 H6          0.3050   -2.0730    0.3090 hc        1 LPQ      0.083700
     54 H8         -2.0090    0.4790    2.0700 h4        1 LPQ      0.033100
     55 H11        -4.1550   -3.2260   -0.4190 ha        1 LPQ      0.166000
     56 H12        -1.6370   -3.0710   -0.4240 ha        1 LPQ      0.161000
     57 H14        -6.2150   -0.5080    2.6010 h1        1 LPQ      0.081200
     58 H14A       -6.4570    0.2340    0.9310 h1        1 LPQ      0.081200
     59 H18        -8.6830   -0.3830    1.6200 h1        1 LPQ      0.084700
     60 H18A       -8.1700   -1.8010    0.5600 h1        1 LPQ      0.084700
     61 H22       -12.3090   -3.9940    2.6040 ha        1 LPQ      0.175000
     62 H24       -11.3910   -0.9880    5.5820 ha        1 LPQ      0.175000
     63 H28       -13.3800   -2.4140    5.7900 hc        1 LPQ      0.070033
     64 H28A      -14.0270   -1.8750    4.1840 hc        1 LPQ      0.070033
     65 H28B      -13.7810   -3.6420    4.5130 hc        1 LPQ      0.070033
     66 H29        -0.8260   -4.3340    4.4290 hx        1 LPQ      0.123200
     67 H29A       -0.9540   -3.5400    6.0680 hx        1 LPQ      0.123200
     68 H30         1.6660   -1.3670    4.8150 hx        1 LPQ      0.139700
     69 H32        -2.8080   -4.7070    3.3300 ha        1 LPQ      0.158000
     70 H34        -6.3860   -2.3940    4.2060 ha        1 LPQ      0.173000
     71 H35        -5.1110   -1.0370    5.8300 ha        1 LPQ      0.187000
     72 H38        -4.8530   -5.4770    2.5180 hx        1 LPQ      0.120200
     73 H38A       -5.3830   -3.9300    1.6750 hx        1 LPQ      0.120200
     74 HN39       -6.9630   -4.7200    4.0060 hn        1 LPQ      0.467800
     75 H40         1.2500   -4.3160    5.9600 hc        1 LPQ      0.112200
     76 H40A        2.8120   -3.3650    5.9090 hc        1 LPQ      0.112200
     77 H41         0.1580   -2.4550    7.3900 hc        1 LPQ      0.112200
     78 H41A        1.7060   -1.4890    7.3220 hc        1 LPQ      0.112200
     79 H42        -7.1240   -6.2070    1.4270 hx        1 LPQ      0.144700
     80 H43        -9.0430   -7.4510    2.5850 hc        1 LPQ      0.112200
     81 H43A       -8.8420   -6.4500    4.1050 hc        1 LPQ      0.112200
     82 H44        -6.4190   -7.2720    4.3510 hc        1 LPQ      0.112200
     83 H44A       -6.5950   -8.2870    2.8370 hc        1 LPQ      0.112200
     84 H171       -0.7200   -1.3900    4.5770 hn        1 LPQ      0.457800
     85 H392       -7.4380   -4.1010    2.5300 hn        1 LPQ      0.467800
@<TRIPOS>BOND
     1    1    2 1   
     2    1    6 1   
     3    1   45 1   
     4    1   46 1   
     5    2    3 1   
     6    2   47 1   
     7    2   48 1   
     8    3    4 1   
     9    3   49 1   
    10    4    5 1   
    11    4   50 1   
    12    4   51 1   
    13    5    6 1   
    14    5   15 1   
    15    5   52 1   
    16    6    7 1   
    17    6   53 1   
    18    7    8 ar  
    19    7   12 ar  
    20    8    9 ar  
    21    8   54 1   
    22    9   10 ar  
    23   10   11 ar  
    24   10   13 1   
    25   11   12 ar  
    26   11   55 1   
    27   12   56 1   
    28   13   14 1   
    29   14   18 1   
    30   14   57 1   
    31   14   58 1   
    32   15   16 2   
    33   15   17 1   
    34   17   29 1   
    35   17   30 1   
    36   17   84 1   
    37   18   19 1   
    38   18   59 1   
    39   18   60 1   
    40   19   20 1   
    41   20   21 ar  
    42   20   25 ar  
    43   21   22 ar  
    44   21   26 1   
    45   22   23 ar  
    46   22   61 1   
    47   23   24 ar  
    48   23   28 1   
    49   24   25 ar  
    50   24   62 1   
    51   25   27 1   
    52   28   63 1   
    53   28   64 1   
    54   28   65 1   
    55   29   31 1   
    56   29   66 1   
    57   29   67 1   
    58   30   40 1   
    59   30   41 1   
    60   30   68 1   
    61   31   32 ar  
    62   31   36 ar  
    63   32   33 ar  
    64   32   69 1   
    65   33   34 ar  
    66   33   38 1   
    67   34   35 ar  
    68   34   70 1   
    69   35   36 ar  
    70   35   71 1   
    71   36   37 1   
    72   38   39 1   
    73   38   72 1   
    74   38   73 1   
    75   39   42 1   
    76   39   74 1   
    77   39   85 1   
    78   40   41 1   
    79   40   75 1   
    80   40   76 1   
    81   41   77 1   
    82   41   78 1   
    83   42   43 1   
    84   42   44 1   
    85   42   79 1   
    86   43   44 1   
    87   43   80 1   
    88   43   81 1   
    89   44   82 1   
    90   44   83 1   
@<TRIPOS>SUBSTRUCTURE
     1 LPQ         1 TEMP              0 ****  ****    0 ROOT
