@<TRIPOS>MOLECULE
LPQ
   85    90     1     0     0
SMALL
bcc


@<TRIPOS>ATOM
      1 C1          0.2530    0.1480    0.1490 c3        1 LPQ     -0.077400
      2 C2          1.7700    0.3170    0.1100 c3        1 LPQ      0.151800
      3 N3          2.3740    0.1930    1.4220 n3        1 LPQ     -0.827200
      4 C4          2.0270   -1.0340    2.0990 c3        1 LPQ      0.177800
      5 C5          0.4870   -1.1410    2.2680 c3        1 LPQ     -0.133700
      6 C6         -0.1480   -1.1410    0.8660 c3        1 LPQ     -0.002400
      7 C7         -1.6300   -1.2830    0.8900 ca        1 LPQ     -0.266600
      8 C8         -2.4560   -0.3690    1.5740 ca        1 LPQ      0.433200
      9 N9         -3.7970   -0.4530    1.6240 nb        1 LPQ     -0.714000
     10 C10        -4.3700   -1.4740    0.9340 ca        1 LPQ      0.626600
     11 C11        -3.6380   -2.4150    0.1620 ca        1 LPQ     -0.272300
     12 C12        -2.2530   -2.3050    0.1530 ca        1 LPQ     -0.046000
     13 O13        -5.7300   -1.7050    0.9780 os        1 LPQ     -0.475100
     14 C14        -6.5530   -0.6890    1.5850 c3        1 LPQ      0.125400
     15 C15         0.1860   -2.4310    2.9940 c         1 LPQ      0.567100
     16 O16         0.2370   -3.5650    2.5490 o         1 LPQ     -0.421100
     17 N17        -0.2080   -2.2960    4.4770 n4        1 LPQ     -0.562200
     18 C18        -7.9750   -1.2290    1.5420 c3        1 LPQ      0.119400
     19 O19        -8.1000   -2.1710    2.6340 os        1 LPQ     -0.409900
     20 C20        -9.3990   -2.2650    3.1250 ca        1 LPQ      0.035100
     21 C21       -10.3090   -3.1730    2.5550 ca        1 LPQ      0.007900
     22 C22       -11.5910   -3.3090    3.0880 ca        1 LPQ     -0.108500
     23 C23       -11.9790   -2.5450    4.1970 ca        1 LPQ     -0.026300
     24 C24       -11.0710   -1.6490    4.7720 ca        1 LPQ     -0.108500
     25 C25        -9.7870   -1.5020    4.2410 ca        1 LPQ      0.007900
     26 CL26       -9.8680   -4.1130    1.2060 cl        1 LPQ     -0.075900
     27 CL27       -8.7180   -0.3970    4.9590 cl        1 LPQ     -0.075900
     28 C28       -13.3500   -2.6690    4.7430 c3        1 LPQ     -0.074800
     29 C29        -1.1110   -3.4030    4.9340 c3        1 LPQ      0.152100
     30 C30         1.0310   -2.1700    5.2730 cx        1 LPQ     -0.011500
     31 C31        -2.5650   -3.1090    4.7310 ca        1 LPQ     -0.146300
     32 C32        -3.3050   -3.9060    3.8530 ca        1 LPQ     -0.064000
     33 C33        -4.6760   -3.6850    3.6730 ca        1 LPQ     -0.137300
     34 C34        -5.3130   -2.6630    4.3840 ca        1 LPQ     -0.089000
     35 C35        -4.5920   -1.8850    5.2880 ca        1 LPQ     -0.091000
     36 C36        -3.2210   -2.1020    5.4600 ca        1 LPQ      0.036400
     37 CL37       -2.3740   -1.1280    6.5590 cl        1 LPQ     -0.046400
     38 C38        -5.3870   -4.4980    2.6360 c3        1 LPQ      0.159100
     39 N39        -6.8130   -4.8100    2.9680 n4        1 LPQ     -0.729000
     40 C40         1.7230   -3.3380    5.9440 cx        1 LPQ     -0.092900
     41 C41         1.0830   -2.2770    6.7840 cx        1 LPQ     -0.092900
     42 C42        -7.2030   -6.1470    2.4910 cx        1 LPQ     -0.008500
     43 C43        -8.3180   -6.9140    3.1740 cx        1 LPQ     -0.098400
     44 C44        -6.9060   -7.3920    3.3040 cx        1 LPQ     -0.098400
     45 H1         -0.1320    0.1170   -0.9040 hc        1 LPQ      0.073200
     46 H1A        -0.2190    1.0270    0.6600 hc        1 LPQ      0.073200
     47 H2          2.0110    1.3510   -0.2720 h1        1 LPQ      0.061200
     48 H2A         2.1950   -0.4300   -0.6250 h1        1 LPQ      0.061200
     49 HN3         3.3700    0.3050    1.3760 hn        1 LPQ      0.404800
     50 H4          2.5240   -1.0150    3.1080 h1        1 LPQ      0.046700
     51 H4A         2.3730   -1.9630    1.5560 h1        1 LPQ      0.046700
     52 H5          0.1080   -0.2500    2.8400 hc        1 LPQ      0.098700
     53 H6          0.2920   -2.0140    0.2980 hc        1 LPQ      0.083700
     54 H8         -2.0250    0.5000    2.1090 h4        1 LPQ      0.033100
     55 H11        -4.1660   -3.1750   -0.4270 ha        1 LPQ      0.166000
     56 H12        -1.6490   -3.0100   -0.4410 ha        1 LPQ      0.161000
     57 H14        -6.2250   -0.5120    2.6420 h1        1 LPQ      0.081200
     58 H14A       -6.4770    0.2540    0.9840 h1        1 LPQ      0.081200
     59 H18        -8.6980   -0.3830    1.6720 h1        1 LPQ      0.084700
     60 H18A       -8.1830   -1.7840    0.5910 h1        1 LPQ      0.084700
     61 H22       -12.3090   -4.0110    2.6300 ha        1 LPQ      0.175000
     62 H24       -11.3770   -1.0460    5.6450 ha        1 LPQ      0.175000
     63 H28       -13.7680   -3.6890    4.5570 hc        1 LPQ      0.070033
     64 H28A      -14.0210   -1.9210    4.2480 hc        1 LPQ      0.070033
     65 H28B      -13.3630   -2.4740    5.8440 hc        1 LPQ      0.070033
     66 H29        -0.8130   -4.3460    4.3860 hx        1 LPQ      0.123200
     67 H29A       -0.9370   -3.5800    6.0380 hx        1 LPQ      0.123200
     68 H30         1.6690   -1.3770    4.8090 hx        1 LPQ      0.139700
     69 H32        -2.7990   -4.7100    3.2910 ha        1 LPQ      0.158000
     70 H34        -6.3810   -2.4250    4.2190 ha        1 LPQ      0.173000
     71 H35        -5.1030   -1.0890    5.8590 ha        1 LPQ      0.187000
     72 H38        -4.8440   -5.4760    2.4760 hx        1 LPQ      0.120200
     73 H38A       -5.3830   -3.9170    1.6600 hx        1 LPQ      0.120200
     74 HN39       -7.4340   -4.1070    2.5220 hn        1 LPQ      0.467800
     75 H40         2.8280   -3.3880    5.8650 hc        1 LPQ      0.112200
     76 H40A        1.2700   -4.3460    5.9070 hc        1 LPQ      0.112200
     77 H41         0.1770   -2.5130    7.3730 hc        1 LPQ      0.112200
     78 H41A        1.7210   -1.5400    7.3140 hc        1 LPQ      0.112200
     79 H42        -7.1180   -6.1930    1.3800 hx        1 LPQ      0.144700
     80 H43        -9.0300   -7.4620    2.5240 hc        1 LPQ      0.112200
     81 H43A       -8.8260   -6.4870    4.0600 hc        1 LPQ      0.112200
     82 H44        -6.3990   -7.3070    4.2840 hc        1 LPQ      0.112200
     83 H44A       -6.5780   -8.2950    2.7520 hc        1 LPQ      0.112200
     84 H171       -0.7170   -1.4050    4.5820 hn        1 LPQ      0.457800
     85 H392       -6.9510   -4.7500    3.9840 hn        1 LPQ      0.467800
@<TRIPOS>BOND
     1    1    2 1   
     2    1    6 1   
     3    1   45 1   
     4    1   46 1   
     5    2    3 1   
     6    2   47 1   
     7    2   48 1   
     8    3    4 1   
     9    3   49 1   
    10    4    5 1   
    11    4   50 1   
    12    4   51 1   
    13    5    6 1   
    14    5   15 1   
    15    5   52 1   
    16    6    7 1   
    17    6   53 1   
    18    7    8 ar  
    19    7   12 ar  
    20    8    9 ar  
    21    8   54 1   
    22    9   10 ar  
    23   10   11 ar  
    24   10   13 1   
    25   11   12 ar  
    26   11   55 1   
    27   12   56 1   
    28   13   14 1   
    29   14   18 1   
    30   14   57 1   
    31   14   58 1   
    32   15   16 2   
    33   15   17 1   
    34   17   29 1   
    35   17   30 1   
    36   17   84 1   
    37   18   19 1   
    38   18   59 1   
    39   18   60 1   
    40   19   20 1   
    41   20   21 ar  
    42   20   25 ar  
    43   21   22 ar  
    44   21   26 1   
    45   22   23 ar  
    46   22   61 1   
    47   23   24 ar  
    48   23   28 1   
    49   24   25 ar  
    50   24   62 1   
    51   25   27 1   
    52   28   63 1   
    53   28   64 1   
    54   28   65 1   
    55   29   31 1   
    56   29   66 1   
    57   29   67 1   
    58   30   40 1   
    59   30   41 1   
    60   30   68 1   
    61   31   32 ar  
    62   31   36 ar  
    63   32   33 ar  
    64   32   69 1   
    65   33   34 ar  
    66   33   38 1   
    67   34   35 ar  
    68   34   70 1   
    69   35   36 ar  
    70   35   71 1   
    71   36   37 1   
    72   38   39 1   
    73   38   72 1   
    74   38   73 1   
    75   39   42 1   
    76   39   74 1   
    77   39   85 1   
    78   40   41 1   
    79   40   75 1   
    80   40   76 1   
    81   41   77 1   
    82   41   78 1   
    83   42   43 1   
    84   42   44 1   
    85   42   79 1   
    86   43   44 1   
    87   43   80 1   
    88   43   81 1   
    89   44   82 1   
    90   44   83 1   
@<TRIPOS>SUBSTRUCTURE
     1 LPQ         1 TEMP              0 ****  ****    0 ROOT
