@<TRIPOS>MOLECULE
LPQ
   83    82     1     0     0
SMALL
bcc


@<TRIPOS>ATOM
      1 C1          3.3800    0.7300   -4.5540 c3        1 LPQ     -0.152000
      2 C2          4.8550    0.5730   -4.3360 c3        1 LPQ     -0.078000
      3 N3          5.2390    0.6480   -2.9390 n3        1 LPQ     -0.298000
      4 C4          4.4660   -0.2620   -2.0680 c3        1 LPQ     -0.077000
      5 C5          2.9280   -0.0980   -2.2270 c3        1 LPQ     -0.111000
      6 C6          2.5720   -0.1880   -3.7100 c3        1 LPQ     -0.050000
      7 C7          1.0630    0.1650   -3.8870 c2        1 LPQ     -0.165000
      8 C8          0.3250    0.6120   -2.7920 c1        1 LPQ     -0.034000
      9 N9         -1.0370    0.7300   -2.8840 n1        1 LPQ     -0.205000
     10 C10        -1.6760    0.4100   -4.0500 c1        1 LPQ      0.128000
     11 C11        -0.9420   -0.0370   -5.1470 c1        1 LPQ     -0.196000
     12 C12         0.4210   -0.1560   -5.0580 c2        1 LPQ     -0.052000
     13 O13        -3.1030    0.4150   -4.1030 os        1 LPQ     -0.208000
     14 C14        -3.7240    1.1570   -3.0430 c3        1 LPQ     -0.014000
     15 C15         2.1230   -1.1190   -1.3560 c2        1 LPQ      0.316000
     16 O16         1.3890   -1.9250   -1.8990 o         1 LPQ     -0.363000
     17 N17         2.0400   -0.9250    0.0950 n         1 LPQ     -0.300000
     18 C18        -5.1690    0.6810   -2.8660 c3        1 LPQ     -0.030000
     19 O19        -5.6440    1.0760   -1.5830 os        1 LPQ     -0.211000
     20 C20        -6.9220    1.6920   -1.6080 c2        1 LPQ      0.053000
     21 C21        -8.0570    0.9220   -1.8240 c2        1 LPQ     -0.063000
     22 C22        -9.3190    1.5090   -1.7590 c1        1 LPQ     -0.123000
     23 C23        -9.4410    2.8650   -1.4800 c1        1 LPQ     -0.055000
     24 C24        -8.3030    3.6370   -1.2640 c1        1 LPQ     -0.122000
     25 C25        -7.0440    3.0510   -1.3280 c1        1 LPQ     -0.064000
     26 CL26       -7.9070   -0.7940   -2.1090 cl        1 LPQ      0.014000
     27 CL27       -5.6200    4.0060   -0.9920 cl        1 LPQ      0.005000
     28 C28       -10.8310    3.5060   -1.3820 c3        1 LPQ     -0.182000
     29 C29         3.0410   -0.1060    0.7780 c3        1 LPQ      0.020000
     30 C30         1.0850   -1.6920    0.8700 cx        1 LPQ     -0.022000
     31 C31         3.5940   -0.8810    2.0140 c2        1 LPQ     -0.086000
     32 C32         3.6670   -0.2490    3.2560 c2        1 LPQ     -0.113000
     33 C33         4.0370   -0.9750    4.3900 c1        1 LPQ     -0.115000
     34 C34         4.3350   -2.3330    4.2800 c1        1 LPQ     -0.118000
     35 C35         4.2620   -2.9650    3.0400 c1        1 LPQ     -0.118000
     36 C36         3.8920   -2.2390    1.9060 c1        1 LPQ     -0.048000
     37 CL37        3.9450   -2.9960    0.3300 cl        1 LPQ     -0.004000
     38 C38         4.2670   -0.2440    5.7310 c3        1 LPQ     -0.037000
     39 N39         3.0140    0.2690    6.2190 n3        1 LPQ     -0.269000
     40 C40         1.5420   -2.1100    2.2540 cx        1 LPQ     -0.226000
     41 C41         1.4630   -3.1360    1.1390 cx        1 LPQ     -0.226000
     42 C42         2.2150   -0.8170    6.7280 cx        1 LPQ     -0.102000
     43 C43         1.4230   -0.5170    7.9900 cx        1 LPQ     -0.205000
     44 C44         2.6610   -1.3970    8.0610 cx        1 LPQ     -0.205000
     45 H1          3.1790    0.5490   -5.5000 hc        1 LPQ      0.092000
     46 H1A         3.1260    1.6560   -4.3470 hc        1 LPQ      0.092000
     47 H2          5.3220    1.2810   -4.8290 h1        1 LPQ      0.071500
     48 H2A         5.1350   -0.2990   -4.6940 h1        1 LPQ      0.071500
     49 HN3         6.1330    0.4640   -2.8570 hn        1 LPQ      0.163000
     50 H4          4.7070   -0.0850   -1.1340 h1        1 LPQ      0.084500
     51 H4A         4.7090   -1.1890   -2.2870 h1        1 LPQ      0.084500
     52 H5          2.6250    0.7560   -1.8450 hc        1 LPQ      0.114000
     53 H6          2.7200   -1.1120   -4.0160 hc        1 LPQ      0.120000
     54 H8          0.7800    0.8410   -1.9580 ha        1 LPQ      0.159000
     55 H11        -1.4020   -0.2670   -5.9850 ha        1 LPQ      0.159000
     56 H12         0.9400   -0.4720   -5.8340 ha        1 LPQ      0.153000
     57 H14        -3.2270    1.0130   -2.2100 h1        1 LPQ      0.109500
     58 H14A       -3.7190    2.1110   -3.2660 h1        1 LPQ      0.109500
     59 H18        -5.2030   -0.2960   -2.9400 h1        1 LPQ      0.098000
     60 H18A       -5.7330    1.0830   -3.5620 h1        1 LPQ      0.098000
     61 H22       -10.1210    0.9660   -1.9110 ha        1 LPQ      0.152000
     62 H24        -8.3890    4.5940   -1.0670 ha        1 LPQ      0.152000
     63 H28       -11.4260    2.9190   -0.8640 hc        1 LPQ      0.090000
     64 H28A      -11.1990    3.6300   -2.2850 hc        1 LPQ      0.090000
     65 H28B      -10.7600    4.3780   -0.9330 hc        1 LPQ      0.090000
     66 H29         3.7770    0.0930    0.1620 h1        1 LPQ      0.098500
     67 H29A        2.6270    0.7370    1.0780 h1        1 LPQ      0.098500
     68 H30         0.1220   -1.5140    0.7740 h1        1 LPQ      0.152000
     69 H32         3.4560    0.7100    3.3330 ha        1 LPQ      0.139000
     70 H34         4.5960   -2.8460    5.0800 ha        1 LPQ      0.145500
     71 H35         4.4730   -3.9240    2.9630 ha        1 LPQ      0.145500
     72 H38         4.6420   -0.8740    6.3880 h1        1 LPQ      0.103000
     73 H38A        4.8950    0.4990    5.5950 h1        1 LPQ      0.103000
     74 HN39        2.5670    0.6830    5.5370 hn        1 LPQ      0.160000
     75 H40         2.4360   -1.8290    2.5050 hc        1 LPQ      0.113750
     76 H40A        0.8360   -2.1670    2.9380 hc        1 LPQ      0.113750
     77 H41         0.7130   -3.7700    1.1950 hc        1 LPQ      0.113750
     78 H41A        2.3200   -3.4270    0.7680 hc        1 LPQ      0.113750
     79 H42         1.7990   -1.4500    6.1050 h1        1 LPQ      0.103000
     80 H43         0.5630   -0.9850    8.0750 hc        1 LPQ      0.113000
     81 H43A        1.5240    0.3900    8.3520 hc        1 LPQ      0.113000
     82 H44         2.4950   -2.3580    8.1850 hc        1 LPQ      0.113000
     83 H44A        3.4560   -0.9820    8.4610 hc        1 LPQ      0.113000
@<TRIPOS>BOND
     1    1    2 1   
     2    1    6 1   
     3    1   45 1   
     4    1   46 1   
     5    2    3 1   
     6    2   47 1   
     7    2   48 1   
     8    3    4 1   
     9    3   49 1   
    10    4    5 1   
    11    4   50 1   
    12    4   51 1   
    13    5    6 1   
    14    5   15 1   
    15    5   52 1   
    16    6    7 1   
    17    6   53 1   
    18    7    8 1   
    19    7   12 1   
    20    8   54 1   
    21    9   10 1   
    22   10   13 1   
    23   11   12 1   
    24   11   55 1   
    25   12   56 1   
    26   13   14 1   
    27   14   18 1   
    28   14   57 1   
    29   14   58 1   
    30   15   16 1   
    31   15   17 1   
    32   17   29 1   
    33   17   30 1   
    34   18   19 1   
    35   18   59 1   
    36   18   60 1   
    37   19   20 1   
    38   20   21 1   
    39   20   25 1   
    40   21   22 1   
    41   21   26 1   
    42   22   61 1   
    43   23   24 1   
    44   23   28 1   
    45   24   62 1   
    46   25   27 1   
    47   28   63 1   
    48   28   64 1   
    49   28   65 1   
    50   29   31 1   
    51   29   66 1   
    52   29   67 1   
    53   30   40 1   
    54   30   41 1   
    55   30   68 1   
    56   31   32 1   
    57   31   36 1   
    58   32   33 1   
    59   32   69 1   
    60   33   38 1   
    61   34   35 1   
    62   34   70 1   
    63   35   71 1   
    64   36   37 1   
    65   38   39 1   
    66   38   72 1   
    67   38   73 1   
    68   39   42 1   
    69   39   74 1   
    70   40   41 1   
    71   40   75 1   
    72   40   76 1   
    73   41   77 1   
    74   41   78 1   
    75   42   43 1   
    76   42   44 1   
    77   42   79 1   
    78   43   44 1   
    79   43   80 1   
    80   43   81 1   
    81   44   82 1   
    82   44   83 1   
@<TRIPOS>SUBSTRUCTURE
     1 LPQ         1 TEMP              0 ****  ****    0 ROOT
