@<TRIPOS>MOLECULE
LPQ
   83    88     1     0     0
SMALL
bcc


@<TRIPOS>ATOM
      1 C1         -4.5750   -3.5160   -1.6130 c3        1 LPQ     -0.073400
      2 C2         -6.0760   -3.5470   -1.8840 c3        1 LPQ      0.158800
      3 N3         -6.8330   -2.7750   -0.9180 n3        1 LPQ     -0.819200
      4 C4         -6.3770   -1.4050   -0.7960 c3        1 LPQ      0.163800
      5 C5         -4.8720   -1.2980   -0.4900 c3        1 LPQ     -0.119700
      6 C6         -4.0550   -2.0840   -1.5210 c3        1 LPQ     -0.003400
      7 C7         -2.5990   -2.0880   -1.1960 ca        1 LPQ     -0.235600
      8 C8         -2.1090   -2.6650   -0.0070 ca        1 LPQ      0.432200
      9 N9         -0.8090   -2.7150    0.3340 nb        1 LPQ     -0.729000
     10 C10         0.0720   -2.1660   -0.5430 ca        1 LPQ      0.629600
     11 C11        -0.3110   -1.5580   -1.7690 ca        1 LPQ     -0.261300
     12 C12        -1.6640   -1.5290   -2.0820 ca        1 LPQ     -0.056000
     13 O13         1.4310   -2.1700   -0.3100 os        1 LPQ     -0.450100
     14 C14         1.8800   -2.6910    0.9530 c3        1 LPQ      0.136400
     15 C15        -4.5190    0.1870   -0.5600 c         1 LPQ      0.669100
     16 O16        -4.5170    0.7770   -1.6630 o         1 LPQ     -0.626100
     17 N17        -4.2720    0.9020    0.6060 n         1 LPQ     -0.435800
     18 C18         3.3920   -2.4930    0.9520 c3        1 LPQ      0.120400
     19 O19         3.6390   -1.3850    1.8390 os        1 LPQ     -0.327900
     20 C20         4.9730   -1.0190    1.8970 ca        1 LPQ      0.098100
     21 C21         5.4660    0.0000    1.0600 ca        1 LPQ      0.014900
     22 C22         6.7780    0.4570    1.2090 ca        1 LPQ     -0.123000
     23 C23         7.6140   -0.0960    2.1830 ca        1 LPQ     -0.062300
     24 C24         7.1320   -1.1150    3.0110 ca        1 LPQ     -0.123000
     25 C25         5.8220   -1.5790    2.8690 ca        1 LPQ      0.014900
     26 CL26        4.4910    0.7010   -0.1400 cl        1 LPQ     -0.067900
     27 CL27        5.2840   -2.8220    3.8960 cl        1 LPQ     -0.067900
     28 C28         8.9980    0.4050    2.3490 c3        1 LPQ     -0.056800
     29 C29        -3.9120    2.3040    0.5270 c3        1 LPQ      0.136300
     30 C30        -4.0770    0.2440    1.8590 cx        1 LPQ      0.026700
     31 C31        -2.4430    2.5880    0.3640 ca        1 LPQ     -0.108300
     32 C32        -1.8620    2.3640   -0.8910 ca        1 LPQ     -0.103000
     33 C33        -0.5100    2.6320   -1.1160 ca        1 LPQ     -0.097300
     34 C34         0.2770    3.1350   -0.0750 ca        1 LPQ     -0.095000
     35 C35        -0.2880    3.3740    1.1740 ca        1 LPQ     -0.133000
     36 C36        -1.6440    3.1010    1.3940 ca        1 LPQ      0.032400
     37 CL37       -2.2760    3.4230    2.9440 cl        1 LPQ     -0.104400
     38 C38         0.0900    2.3360   -2.4590 c3        1 LPQ      0.208100
     39 N39         0.9120    3.4200   -2.9750 n3        1 LPQ     -0.791200
     40 C40        -5.2080   -0.4490    2.6030 cx        1 LPQ     -0.128400
     41 C41        -4.6230    0.8110    3.1580 cx        1 LPQ     -0.128400
     42 C42         1.2930    3.2350   -4.3390 cx        1 LPQ      0.121500
     43 C43         1.5910    4.4120   -5.2430 cx        1 LPQ     -0.153900
     44 C44         0.4040    3.5430   -5.5330 cx        1 LPQ     -0.153900
     45 H1         -4.3500   -4.0610   -0.6590 hc        1 LPQ      0.052700
     46 H1A        -4.0490   -4.0500   -2.4450 hc        1 LPQ      0.052700
     47 H2         -6.2520   -3.1930   -2.9430 h1        1 LPQ      0.032200
     48 H2A        -6.4360   -4.6130   -1.8170 h1        1 LPQ      0.032200
     49 HN3        -7.8070   -2.7850   -1.1590 hn        1 LPQ      0.366800
     50 H4         -6.5820   -0.7990   -1.7290 h1        1 LPQ      0.043200
     51 H4A        -6.9480   -0.9350    0.0540 h1        1 LPQ      0.043200
     52 H5         -4.6690   -1.7260    0.5290 hc        1 LPQ      0.082700
     53 H6         -4.2050   -1.5830   -2.5220 hc        1 LPQ      0.076700
     54 H8         -2.8000   -3.1200    0.7270 h4        1 LPQ      0.024100
     55 H11         0.4530   -1.1270   -2.4260 ha        1 LPQ      0.157000
     56 H12        -2.0040   -1.0600   -3.0190 ha        1 LPQ      0.147000
     57 H14         1.3990   -2.1280    1.7950 h1        1 LPQ      0.071200
     58 H14A        1.6270   -3.7800    1.0150 h1        1 LPQ      0.071200
     59 H18         3.9070   -3.4020    1.3550 h1        1 LPQ      0.058700
     60 H18A        3.7730   -2.2490   -0.0730 h1        1 LPQ      0.058700
     61 H22         7.1570    1.2590    0.5560 ha        1 LPQ      0.152000
     62 H24         7.7900   -1.5530    3.7780 ha        1 LPQ      0.152000
     63 H28         9.0090    1.2540    3.0790 hc        1 LPQ      0.050367
     64 H28A        9.6710   -0.3990    2.7350 hc        1 LPQ      0.050367
     65 H28B        9.4090    0.7740    1.3770 hc        1 LPQ      0.050367
     66 H29        -4.4500    2.7460   -0.3650 h1        1 LPQ      0.074700
     67 H29A       -4.2980    2.8110    1.4570 h1        1 LPQ      0.074700
     68 H30        -3.0730   -0.2430    1.9150 h1        1 LPQ      0.085700
     69 H32        -2.4970    1.9650   -1.7020 ha        1 LPQ      0.163000
     70 H34         1.3460    3.3410   -0.2420 ha        1 LPQ      0.154000
     71 H35         0.3330    3.7720    1.9900 ha        1 LPQ      0.148000
     72 H38         0.7580    1.4300   -2.3570 h1        1 LPQ      0.043700
     73 H38A       -0.7370    2.0590   -3.1790 h1        1 LPQ      0.043700
     74 HN39        0.4560    4.3040   -2.8420 hn        1 LPQ      0.362800
     75 H40        -6.2310   -0.4240    2.1870 hc        1 LPQ      0.078950
     76 H40A       -4.9840   -1.4150    3.0890 hc        1 LPQ      0.078950
     77 H41        -3.9680    0.7650    4.0470 hc        1 LPQ      0.078950
     78 H41A       -5.2340    1.7310    3.1440 hc        1 LPQ      0.078950
     79 H42         1.9570    2.3440   -4.4270 h1        1 LPQ      0.090700
     80 H43         1.4220    5.4400   -4.8740 hc        1 LPQ      0.072450
     81 H43A        2.4790    4.3520   -5.8960 hc        1 LPQ      0.072450
     82 H44         0.4330    2.8630   -6.4020 hc        1 LPQ      0.072450
     83 H44A       -0.6080    3.9520   -5.3670 hc        1 LPQ      0.072450
@<TRIPOS>BOND
     1    1    2 1   
     2    1    6 1   
     3    1   45 1   
     4    1   46 1   
     5    2    3 1   
     6    2   47 1   
     7    2   48 1   
     8    3    4 1   
     9    3   49 1   
    10    4    5 1   
    11    4   50 1   
    12    4   51 1   
    13    5    6 1   
    14    5   15 1   
    15    5   52 1   
    16    6    7 1   
    17    6   53 1   
    18    7    8 ar  
    19    7   12 ar  
    20    8    9 ar  
    21    8   54 1   
    22    9   10 ar  
    23   10   11 ar  
    24   10   13 1   
    25   11   12 ar  
    26   11   55 1   
    27   12   56 1   
    28   13   14 1   
    29   14   18 1   
    30   14   57 1   
    31   14   58 1   
    32   15   16 2   
    33   15   17 1   
    34   17   29 1   
    35   17   30 1   
    36   18   19 1   
    37   18   59 1   
    38   18   60 1   
    39   19   20 1   
    40   20   21 ar  
    41   20   25 ar  
    42   21   22 ar  
    43   21   26 1   
    44   22   23 ar  
    45   22   61 1   
    46   23   24 ar  
    47   23   28 1   
    48   24   25 ar  
    49   24   62 1   
    50   25   27 1   
    51   28   63 1   
    52   28   64 1   
    53   28   65 1   
    54   29   31 1   
    55   29   66 1   
    56   29   67 1   
    57   30   40 1   
    58   30   41 1   
    59   30   68 1   
    60   31   32 ar  
    61   31   36 ar  
    62   32   33 ar  
    63   32   69 1   
    64   33   34 ar  
    65   33   38 1   
    66   34   35 ar  
    67   34   70 1   
    68   35   36 ar  
    69   35   71 1   
    70   36   37 1   
    71   38   39 1   
    72   38   72 1   
    73   38   73 1   
    74   39   42 1   
    75   39   74 1   
    76   40   41 1   
    77   40   75 1   
    78   40   76 1   
    79   41   77 1   
    80   41   78 1   
    81   42   43 1   
    82   42   44 1   
    83   42   79 1   
    84   43   44 1   
    85   43   80 1   
    86   43   81 1   
    87   44   82 1   
    88   44   83 1   
@<TRIPOS>SUBSTRUCTURE
     1 LPQ         1 TEMP              0 ****  ****    0 ROOT
