@<TRIPOS>MOLECULE
LPR
   58    52     1     0     0
SMALL
bcc


@<TRIPOS>ATOM
      1 O2         -1.8430   -0.3270    1.9160 o         1 LPR     -0.556000
      2 O3         -0.6690   -1.5850    0.4820 o         1 LPR     -0.556000
      3 C3         -0.7660   -0.6930    1.3570 c2        1 LPR      0.334000
      4 C4          0.5570    0.0480    1.7750 c3        1 LPR     -0.165000
      5 C14         1.6510   -0.9890    2.0060 c3        1 LPR     -0.155000
      6 C15         2.9800   -0.3760    2.3970 c3        1 LPR     -0.152000
      7 C16         4.1610   -1.1970    2.0070 c2        1 LPR     -0.142000
      8 C17         5.2210   -0.6290    1.4200 c2        1 LPR     -0.213000
      9 C18         5.4620   -2.6100    5.8080 c1        1 LPR      0.277000
     10 C19         4.9430   -2.2490    4.6530 c2        1 LPR     -0.516000
     11 C20         4.6410   -3.1330    3.5850 c1        1 LPR     -0.041000
     12 C21         4.1340   -2.6580    2.3070 c3        1 LPR     -0.181000
     13 HB          0.8460    0.7080    0.9070 hx        1 LPR      0.134000
     14 H141        1.7420   -1.5600    1.0430 hc        1 LPR      0.098000
     15 H142        1.3170   -1.7150    2.7940 hc        1 LPR      0.098000
     16 H151        3.0720    0.6470    1.9310 hc        1 LPR      0.105500
     17 H152        3.0030   -0.2140    3.5140 hc        1 LPR      0.105500
     18 H17         5.2750    0.4540    1.2080 ha        1 LPR      0.126000
     19 H18         6.1090   -1.2070    1.1350 ha        1 LPR      0.126000
     20 H19         4.7290   -1.1470    4.5440 ha        1 LPR      0.231000
     21 H20         3.0720   -3.0500    2.2490 hc        1 LPR      0.131500
     22 H21         4.7110   -3.2160    1.5120 hc        1 LPR      0.131500
     23 N1          0.3280    0.9430    2.9470 n4        1 LPR     -0.006000
     24 N3         -3.2880    2.1380    0.8060 n3        1 LPR     -0.226000
     25 C1          2.1470    2.3700    3.8470 c2        1 LPR      0.355000
     26 C2          1.0270    2.2730    2.8630 c2        1 LPR     -0.108000
     27 O1          2.0590    1.7620    4.9590 o         1 LPR     -0.507000
     28 C10         0.5930    3.1960    2.0740 c1        1 LPR     -0.398000
     29 C11        -0.0980    3.9130    1.1430 c2        1 LPR      0.054000
     30 C12        -1.2110    4.6550    1.3410 c2        1 LPR     -0.462000
     31 C13        -4.4960    2.1800    0.3450 c1        1 LPR     -0.252000
     32 H1         -0.6900    1.1150    2.9930 hn        1 LPR      0.229000
     33 H3N1       -2.8000    1.3130    1.1150 hn        1 LPR      0.222500
     34 H3N2       -2.7520    2.9840    0.8760 hn        1 LPR      0.222500
     35 HA          0.6130    0.4600    3.8040 hn        1 LPR      0.229000
     36 H101        2.0080   -0.4830    5.5450 ha        1 LPR      0.000500
     37 H102        1.5410   -0.9360    5.3530 ha        1 LPR      0.000500
     38 H111       -2.8360    0.9810    3.5160 ha        1 LPR      0.000500
     39 H112       -2.7010    1.3160    4.0910 ha        1 LPR      0.000500
     40 H121        0.3540    3.8830    0.1290 ha        1 LPR      0.106000
     41 H122       -1.6940    4.7440    2.3170 ha        1 LPR      0.089000
     42 H131       -1.6530    5.2440    0.5350 ha        1 LPR      0.089000
     43 H132       -5.0220    1.2000    0.2970 ha        1 LPR      0.014000
     44 O4          6.4700    3.1380    4.0090 o         1 LPR     -0.447000
     45 O5          4.1500    0.5890    6.0110 o         1 LPR     -0.252000
     46 N2          3.2490    3.1360    3.6080 n         1 LPR     -0.313000
     47 C5          4.0260    1.7030    6.3660 c1        1 LPR      0.236000
     48 C6          5.4610    2.8560    0.7880 c2        1 LPR     -0.408000
     49 C7          5.1170    3.2650    2.0260 c2        1 LPR     -0.146000
     50 C8          3.6750    3.6170    2.3140 c3        1 LPR      0.012000
     51 C9          6.0660    3.7650    3.0240 c1        1 LPR     -0.115000
     52 H5          3.9630    3.1240    4.3140 hn        1 LPR      0.242000
     53 H6          4.7480    2.7960   -0.0410 ha        1 LPR      0.072500
     54 H62         6.4930    2.5960    0.5390 ha        1 LPR      0.072500
     55 H7          7.6850    5.3430    3.8240 ha        1 LPR      0.000500
     56 H72         8.1490    5.8090    4.0040 ha        1 LPR      0.000500
     57 H8C1        3.5620    4.7400    2.3110 h1        1 LPR      0.089000
     58 H8C2        2.9950    3.2020    1.5170 h1        1 LPR      0.089000
@<TRIPOS>BOND
     1    1    3 1   
     2    2    3 1   
     3    3    4 1   
     4    4    5 1   
     5    4   13 1   
     6    4   23 1   
     7    5    6 1   
     8    5   14 1   
     9    5   15 1   
    10    6    7 1   
    11    6   16 1   
    12    6   17 1   
    13    7    8 1   
    14    7   12 1   
    15    8   18 1   
    16    8   19 1   
    17    9   10 1   
    18   10   11 1   
    19   10   20 1   
    20   11   12 1   
    21   12   21 1   
    22   12   22 1   
    23   23   26 1   
    24   23   32 1   
    25   23   35 1   
    26   24   31 1   
    27   24   33 1   
    28   24   34 1   
    29   25   26 1   
    30   25   27 1   
    31   25   46 1   
    32   26   28 1   
    33   28   29 1   
    34   29   30 1   
    35   29   40 1   
    36   30   41 1   
    37   30   42 1   
    38   31   43 1   
    39   36   37 1   
    40   38   39 1   
    41   44   51 1   
    42   45   47 1   
    43   46   50 1   
    44   46   52 1   
    45   48   49 1   
    46   48   53 1   
    47   48   54 1   
    48   49   50 1   
    49   49   51 1   
    50   50   57 1   
    51   50   58 1   
    52   55   56 1   
@<TRIPOS>SUBSTRUCTURE
     1 LPR         1 TEMP              0 ****  ****    0 ROOT
