@<TRIPOS>MOLECULE
LPR
   58    59     1     0     0
SMALL
bcc


@<TRIPOS>ATOM
      1 O2          2.5420    2.6770    1.1920 o         1 LPR     -0.847800
      2 O3          1.1640    2.8810   -0.5520 o         1 LPR     -0.847800
      3 C3          1.5740    2.2840    0.4840 c         1 LPR      0.926600
      4 C4          0.7760    1.0140    0.9400 c3        1 LPR      0.046500
      5 C14         1.1110    0.7380    2.4100 c3        1 LPR     -0.064400
      6 C15         0.2550   -0.3570    3.0120 c3        1 LPR     -0.059100
      7 C16         0.2610   -0.3880    4.5010 ca        1 LPR     -0.040300
      8 C17        -0.8080   -0.9950    5.1760 ca        1 LPR     -0.134000
      9 C18        -0.8210   -1.0660    6.5670 ca        1 LPR     -0.140000
     10 C19         0.2340   -0.5310    7.3060 ca        1 LPR     -0.162000
     11 C20         1.2990    0.0770    6.6440 ca        1 LPR     -0.140000
     12 C21         1.3150    0.1490    5.2510 ca        1 LPR     -0.134000
     13 HB         -0.3200    1.3020    0.8860 h1        1 LPR      0.013700
     14 H141        2.1990    0.4810    2.4950 hc        1 LPR      0.053700
     15 H142        0.9550    1.7000    2.9650 hc        1 LPR      0.053700
     16 H151       -0.8040   -0.2420    2.6490 hc        1 LPR      0.057700
     17 H152        0.6130   -1.3610    2.6520 hc        1 LPR      0.057700
     18 H17        -1.6440   -1.4140    4.5960 ha        1 LPR      0.144500
     19 H18        -1.6660   -1.5430    7.0830 ha        1 LPR      0.112500
     20 H19         0.2230   -0.5850    8.4030 ha        1 LPR      0.107000
     21 H20         2.1310    0.5060    7.2200 ha        1 LPR      0.112500
     22 H21         2.1570    0.6380    4.7350 ha        1 LPR      0.144500
     23 N1          1.0350   -0.1430    0.0840 n3        1 LPR     -0.786200
     24 N3          5.1120   -2.2990   -4.8680 n3        1 LPR     -0.907800
     25 C1         -1.0800   -0.2730   -1.2650 c         1 LPR      0.629100
     26 C2          0.4560   -0.0230   -1.2440 c3        1 LPR      0.098500
     27 O1         -1.5470   -1.2260   -0.5920 o         1 LPR     -0.678100
     28 C10         1.0390   -1.0460   -2.2330 c3        1 LPR     -0.069400
     29 C11         2.5120   -0.8100   -2.4820 c3        1 LPR     -0.072400
     30 C12         3.0200   -1.7150   -3.5840 c3        1 LPR     -0.117400
     31 C13         4.5150   -1.5070   -3.8160 c3        1 LPR      0.137800
     32 H1          0.6630   -0.9700    0.5230 hn        1 LPR      0.339800
     33 H3N1        4.9630   -3.2740   -4.6900 hn        1 LPR      0.330300
     34 H3N2        4.6810   -2.0810   -5.7470 hn        1 LPR      0.330300
     35 HA          0.7050    1.0180   -1.6180 h1        1 LPR      0.124700
     36 H101        0.4690   -0.9510   -3.1950 hc        1 LPR      0.049700
     37 H102        0.8760   -2.0860   -1.8470 hc        1 LPR      0.049700
     38 H111        3.0920   -0.9940   -1.5400 hc        1 LPR      0.054200
     39 H112        2.6780    0.2630   -2.7650 hc        1 LPR      0.054200
     40 H121        2.4530   -1.5060   -4.5300 hc        1 LPR      0.032700
     41 H122        2.8230   -2.7850   -3.3100 hc        1 LPR      0.032700
     42 H131        5.0660   -1.7370   -2.8600 h1        1 LPR      0.051200
     43 H132        4.6970   -0.4210   -4.0550 h1        1 LPR      0.051200
     44 O4         -5.0170   -0.7630   -3.5260 o         1 LPR     -0.847800
     45 O5         -2.9600   -0.8760   -4.3720 o         1 LPR     -0.847800
     46 N2         -1.8710    0.4990   -2.0790 n         1 LPR     -0.414800
     47 C5         -3.3100    0.2870   -2.2220 c3        1 LPR     -0.024300
     48 C6         -3.9470    1.6950   -2.2860 c3        1 LPR     -0.078400
     49 C7         -2.8100    2.6650   -2.5850 c3        1 LPR     -0.088400
     50 C8         -1.5070    1.8510   -2.4690 c3        1 LPR      0.074000
     51 C9         -3.7730   -0.5200   -3.4790 c         1 LPR      0.917600
     52 H5         -3.6870   -0.2800   -1.3250 h1        1 LPR      0.062700
     53 H6         -4.4310    1.9450   -1.3100 hc        1 LPR      0.036700
     54 H62        -4.7350    1.7170   -3.0780 hc        1 LPR      0.036700
     55 H7         -2.8000    3.5160   -1.8630 hc        1 LPR      0.025200
     56 H72        -2.9060    3.0880   -3.6140 hc        1 LPR      0.025200
     57 H8C1       -0.8100    2.3250   -1.7180 h1        1 LPR      0.064200
     58 H8C2       -0.9860    1.8150   -3.4650 h1        1 LPR      0.064200
@<TRIPOS>BOND
     1    1    3 1   
     2    2    3 1   
     3    3    4 1   
     4    4    5 1   
     5    4   13 1   
     6    4   23 1   
     7    5    6 1   
     8    5   14 1   
     9    5   15 1   
    10    6    7 1   
    11    6   16 1   
    12    6   17 1   
    13    7    8 ar  
    14    7   12 ar  
    15    8    9 ar  
    16    8   18 1   
    17    9   10 ar  
    18    9   19 1   
    19   10   11 ar  
    20   10   20 1   
    21   11   12 ar  
    22   11   21 1   
    23   12   22 1   
    24   23   26 1   
    25   23   32 1   
    26   24   31 1   
    27   24   33 1   
    28   24   34 1   
    29   25   26 1   
    30   25   27 2   
    31   25   46 1   
    32   26   28 1   
    33   26   35 1   
    34   28   29 1   
    35   28   36 1   
    36   28   37 1   
    37   29   30 1   
    38   29   38 1   
    39   29   39 1   
    40   30   31 1   
    41   30   40 1   
    42   30   41 1   
    43   31   42 1   
    44   31   43 1   
    45   44   51 1   
    46   45   51 1   
    47   46   47 1   
    48   46   50 1   
    49   47   48 1   
    50   47   51 1   
    51   47   52 1   
    52   48   49 1   
    53   48   53 1   
    54   48   54 1   
    55   49   50 1   
    56   49   55 1   
    57   49   56 1   
    58   50   57 1   
    59   50   58 1   
@<TRIPOS>SUBSTRUCTURE
     1 LPR         1 TEMP              0 ****  ****    0 ROOT
