@<TRIPOS>MOLECULE
LPS
   74    73     1     0     0
SMALL
bcc


@<TRIPOS>ATOM
      1 OT2        -1.8500   -1.1150   -9.9050 o         1 LPS     -0.858300
      2 C          -1.5240    0.0670   -9.6040 c         1 LPS      0.914600
      3 OT1        -1.7340    1.0660  -10.3530 o         1 LPS     -0.858300
      4 C12        -0.8160    0.3070   -8.2320 c3        1 LPS      0.020500
      5 N           0.3460    1.1700   -8.3670 n3        1 LPS     -0.899800
      6 C11        -1.8940    0.8140   -7.2460 c3        1 LPS      0.158400
      7 O12        -1.3070    1.3300   -6.0770 os        1 LPS     -0.607200
      8 P          -1.7790    0.7490   -4.6310 p5        1 LPS      1.433800
      9 O13        -1.1670    1.6220   -3.6030 o         1 LPS     -0.836500
     10 O14        -3.1880    0.3190   -4.6490 o         1 LPS     -0.836500
     11 O11        -0.8470   -0.6330   -4.5510 os        1 LPS     -0.579200
     12 C1          0.5150   -0.4750   -4.7770 c3        1 LPS      0.171400
     13 C2          1.3220   -0.8760   -3.5260 c3        1 LPS      0.092100
     14 O21         0.7150   -1.9440   -2.8170 oh        1 LPS     -0.651800
     15 C3          1.5190    0.3290   -2.6030 c3        1 LPS      0.088400
     16 O31         2.3360    0.0070   -1.4770 os        1 LPS     -0.466600
     17 C31         1.6580   -0.6530   -0.4210 c3        1 LPS      0.343900
     18 O32         2.2380   -1.9400   -0.3880 oh        1 LPS     -0.648800
     19 C32         1.9860    0.0560    0.8940 c3        1 LPS     -0.081400
     20 C33         1.1620   -0.5120    2.0270 c3        1 LPS     -0.079400
     21 C34         1.5090    0.1510    3.3430 c3        1 LPS     -0.076400
     22 C35         0.6760   -0.4100    4.4760 c3        1 LPS     -0.079400
     23 C36         1.0240    0.2490    5.7940 c3        1 LPS     -0.078400
     24 C37         0.1910   -0.3110    6.9270 c3        1 LPS     -0.079400
     25 C38         0.5390    0.3460    8.2450 c3        1 LPS     -0.078400
     26 C39        -0.2950   -0.2140    9.3770 c3        1 LPS     -0.079400
     27 C40         0.0530    0.4430   10.6950 c3        1 LPS     -0.078400
     28 C41        -0.7810   -0.1170   11.8270 c3        1 LPS     -0.079400
     29 C42        -0.4330    0.5400   13.1450 c3        1 LPS     -0.078400
     30 C43        -1.2670   -0.0200   14.2770 c3        1 LPS     -0.079400
     31 C44        -0.9200    0.6360   15.5960 c3        1 LPS     -0.080400
     32 C45        -1.7480    0.0810   16.7260 c3        1 LPS     -0.092100
     33 H12        -0.4350   -0.6830   -7.8490 h1        1 LPS      0.044700
     34 HN1         0.1670    1.8350   -9.1000 hn        1 LPS      0.332300
     35 HN2         0.4700    1.6850   -7.5130 hn        1 LPS      0.332300
     36 H111       -2.5970   -0.0210   -6.9840 h1        1 LPS      0.038200
     37 H112       -2.4670    1.6490   -7.7410 h1        1 LPS      0.038200
     38 H11         0.8140   -1.1610   -5.6200 h1        1 LPS      0.042200
     39 H12A        0.7510    0.5880   -5.0590 h1        1 LPS      0.042200
     40 H2          2.3300   -1.2750   -3.8330 h1        1 LPS      0.040700
     41 H21        -0.2400   -1.8940   -2.9700 ho        1 LPS      0.440000
     42 H31A        2.1090    1.1190   -3.1400 h1        1 LPS      0.084700
     43 H32A        0.5320    0.7580   -2.2810 h1        1 LPS      0.084700
     44 H31         0.5480   -0.7190   -0.5990 h2        1 LPS      0.056700
     45 H32         2.1430   -2.3110   -1.2770 ho        1 LPS      0.436000
     46 H321        3.0780   -0.0640    1.1100 hc        1 LPS      0.050700
     47 H322        1.7750    1.1480    0.7610 hc        1 LPS      0.050700
     48 H331        0.0710   -0.3690    1.8090 hc        1 LPS      0.047700
     49 H332        1.3460   -1.6170    2.0950 hc        1 LPS      0.047700
     50 H341        2.5980   -0.0010    3.5660 hc        1 LPS      0.034700
     51 H342        1.3390    1.2570    3.2630 hc        1 LPS      0.034700
     52 H351       -0.4130   -0.2540    4.2540 hc        1 LPS      0.040200
     53 H352        0.8430   -1.5160    4.5530 hc        1 LPS      0.040200
     54 H361        2.1130    0.0930    6.0160 hc        1 LPS      0.036200
     55 H362        0.8580    1.3550    5.7170 hc        1 LPS      0.036200
     56 H371       -0.8980   -0.1550    6.7040 hc        1 LPS      0.039200
     57 H372        0.3560   -1.4180    7.0030 hc        1 LPS      0.039200
     58 H381        1.6270    0.1900    8.4670 hc        1 LPS      0.037700
     59 H382        0.3730    1.4530    8.1680 hc        1 LPS      0.037700
     60 H391       -1.3840   -0.0580    9.1550 hc        1 LPS      0.039700
     61 H392       -0.1300   -1.3210    9.4530 hc        1 LPS      0.039700
     62 H401        1.1410    0.2870   10.9170 hc        1 LPS      0.038200
     63 H402       -0.1130    1.5500   10.6180 hc        1 LPS      0.038200
     64 H411       -1.8700    0.0400   11.6050 hc        1 LPS      0.039200
     65 H412       -0.6160   -1.2240   11.9030 hc        1 LPS      0.039200
     66 H421        0.6550    0.3840   13.3670 hc        1 LPS      0.038200
     67 H422       -0.5990    1.6470   13.0680 hc        1 LPS      0.038200
     68 H431       -2.3560    0.1360   14.0550 hc        1 LPS      0.039200
     69 H432       -1.1020   -1.1270   14.3540 hc        1 LPS      0.039200
     70 H441        0.1690    0.4800   15.8150 hc        1 LPS      0.037200
     71 H442       -1.0850    1.7440   15.5170 hc        1 LPS      0.037200
     72 H451       -1.4770    0.5790   17.6880 hc        1 LPS      0.030367
     73 H452       -2.8360    0.2500   16.5370 hc        1 LPS      0.030367
     74 H453       -1.5790   -1.0170   16.8360 hc        1 LPS      0.030367
@<TRIPOS>BOND
     1    1    2 1   
     2    2    3 1   
     3    2    4 1   
     4    4    5 1   
     5    4    6 1   
     6    4   33 1   
     7    5   34 1   
     8    5   35 1   
     9    6    7 1   
    10    6   36 1   
    11    6   37 1   
    12    7    8 1   
    13    8    9 1   
    14    8   10 1   
    15    8   11 1   
    16   11   12 1   
    17   12   13 1   
    18   12   38 1   
    19   12   39 1   
    20   13   14 1   
    21   13   15 1   
    22   13   40 1   
    23   14   41 1   
    24   15   16 1   
    25   15   42 1   
    26   15   43 1   
    27   16   17 1   
    28   17   18 1   
    29   17   19 1   
    30   17   44 1   
    31   18   45 1   
    32   19   20 1   
    33   19   46 1   
    34   19   47 1   
    35   20   21 1   
    36   20   48 1   
    37   20   49 1   
    38   21   22 1   
    39   21   50 1   
    40   21   51 1   
    41   22   23 1   
    42   22   52 1   
    43   22   53 1   
    44   23   24 1   
    45   23   54 1   
    46   23   55 1   
    47   24   25 1   
    48   24   56 1   
    49   24   57 1   
    50   25   26 1   
    51   25   58 1   
    52   25   59 1   
    53   26   27 1   
    54   26   60 1   
    55   26   61 1   
    56   27   28 1   
    57   27   62 1   
    58   27   63 1   
    59   28   29 1   
    60   28   64 1   
    61   28   65 1   
    62   29   30 1   
    63   29   66 1   
    64   29   67 1   
    65   30   31 1   
    66   30   68 1   
    67   30   69 1   
    68   31   32 1   
    69   31   70 1   
    70   31   71 1   
    71   32   72 1   
    72   32   73 1   
    73   32   74 1   
@<TRIPOS>SUBSTRUCTURE
     1 LPS         1 TEMP              0 ****  ****    0 ROOT
