@<TRIPOS>MOLECULE
LPS
   74    73     1     0     0
SMALL
bcc


@<TRIPOS>ATOM
      1 OT2        -2.6940   -8.7770  -11.7460 o         1 LPS     -0.858800
      2 C          -1.4520   -8.5860  -11.7650 c         1 LPS      0.915600
      3 OT1        -0.8390   -8.5220  -12.8720 o         1 LPS     -0.858800
      4 C12        -0.7000   -8.3380  -10.4640 c3        1 LPS      0.039500
      5 N           0.5000   -9.1020  -10.4550 n3        1 LPS     -0.899800
      6 C11        -0.3650   -6.8790  -10.3480 c3        1 LPS      0.154400
      7 O12        -0.9390   -6.3590   -9.1760 os        1 LPS     -0.597200
      8 P          -0.8110   -4.8120   -8.8970 p5        1 LPS      1.421800
      9 O13         0.6400   -4.3960   -9.0160 o         1 LPS     -0.831000
     10 O14        -1.6360   -4.0510   -9.9010 o         1 LPS     -0.831000
     11 O11        -1.3420   -4.4910   -7.4140 os        1 LPS     -0.579200
     12 C1         -1.2220   -3.1430   -6.9160 c3        1 LPS      0.164400
     13 C2         -1.8050   -3.0680   -5.4950 c3        1 LPS      0.070100
     14 O21        -3.1650   -3.4200   -5.5270 oh        1 LPS     -0.651800
     15 C3         -1.6620   -1.6680   -4.9670 c3        1 LPS      0.139400
     16 O31        -1.9180   -1.6610   -3.5730 os        1 LPS     -0.471600
     17 C31        -1.7970   -0.3830   -2.9740 c3        1 LPS      0.347900
     18 O32        -2.8750    0.4160   -3.3600 oh        1 LPS     -0.643800
     19 C32        -1.7900   -0.5290   -1.4620 c3        1 LPS     -0.146400
     20 C33        -1.2950    0.7710   -0.8290 c3        1 LPS     -0.059400
     21 C34        -1.2570    0.6160    0.7040 c3        1 LPS     -0.115400
     22 C35        -0.5890    1.8710    1.3390 c3        1 LPS     -0.052400
     23 C36        -0.5560    1.7110    2.9080 c3        1 LPS     -0.107400
     24 C37         0.2260    2.9310    3.5500 c3        1 LPS     -0.065400
     25 C38         0.2620    2.7680    5.0930 c3        1 LPS     -0.084400
     26 C39         1.0870    3.9150    5.7130 c3        1 LPS     -0.075400
     27 C40         1.1920    3.7080    7.2360 c3        1 LPS     -0.081400
     28 C41         2.0280    4.8350    7.8470 c3        1 LPS     -0.077400
     29 C42         2.0860    4.6600    9.3850 c3        1 LPS     -0.080400
     30 C43         2.9300    5.7820    9.9970 c3        1 LPS     -0.078400
     31 C44         3.0410    5.5710   11.5050 c3        1 LPS     -0.081400
     32 C45         3.8560    6.7110   12.1230 c3        1 LPS     -0.090100
     33 H12        -1.2580   -8.6020   -9.7120 h1        1 LPS      0.038700
     34 HN1         0.6570   -9.4160   -9.6080 hn        1 LPS      0.335800
     35 HN2         0.4180   -9.8000  -11.0260 hn        1 LPS      0.335800
     36 H111        0.6100   -6.7690  -10.3110 h1        1 LPS      0.030200
     37 H112       -0.7150   -6.4040  -11.1190 h1        1 LPS      0.030200
     38 H11        -1.7170   -2.5280   -7.5070 h1        1 LPS      0.032700
     39 H12A       -0.2670   -2.8830   -6.8940 h1        1 LPS      0.032700
     40 H2         -1.3250   -3.6820   -4.9150 h1        1 LPS      0.077700
     41 H21        -3.3230   -4.0460   -4.9180 ho        1 LPS      0.446000
     42 H31A       -0.7500   -1.3480   -5.1340 h1        1 LPS      0.045200
     43 H32A       -2.3050   -1.0780   -5.4220 h1        1 LPS      0.045200
     44 H31        -0.9560    0.0380   -3.2670 h2        1 LPS      0.062700
     45 H32        -2.5680    1.1840   -3.7120 ho        1 LPS      0.438000
     46 H321       -2.6920   -0.7180   -1.1500 hc        1 LPS      0.083700
     47 H322       -1.1940   -1.2650   -1.2070 hc        1 LPS      0.083700
     48 H331       -0.3910    0.9740   -1.1610 hc        1 LPS      0.017200
     49 H332       -1.8950    1.4930   -1.0660 hc        1 LPS      0.017200
     50 H341       -2.1640    0.5260    1.0430 hc        1 LPS      0.085700
     51 H342       -0.7360   -0.1890    0.9410 hc        1 LPS      0.085700
     52 H351       -1.1010    2.6630    1.1050 hc        1 LPS      0.009200
     53 H352        0.3340    1.9620    0.9960 hc        1 LPS      0.009200
     54 H361       -1.4730    1.6930    3.2530 hc        1 LPS      0.080700
     55 H362       -0.0980    0.8660    3.1430 hc        1 LPS      0.080700
     56 H371       -0.2280    3.7680    3.3210 hc        1 LPS      0.017700
     57 H372        1.1450    2.9510    3.2020 hc        1 LPS      0.017700
     58 H381       -0.6500    2.7960    5.4440 hc        1 LPS      0.053200
     59 H382        0.6720    1.9140    5.3200 hc        1 LPS      0.053200
     60 H391        0.6440    4.7740    5.5290 hc        1 LPS      0.027700
     61 H392        1.9850    3.9200    5.3220 hc        1 LPS      0.027700
     62 H401        0.3000    3.7160    7.6270 hc        1 LPS      0.043700
     63 H402        1.6190    2.8520    7.4190 hc        1 LPS      0.043700
     64 H411        1.6190    5.6990    7.6310 hc        1 LPS      0.033200
     65 H412        2.9400    4.8030    7.4780 hc        1 LPS      0.033200
     66 H421        2.4910    3.7930    9.6000 hc        1 LPS      0.040700
     67 H422        1.1810    4.6960    9.7510 hc        1 LPS      0.040700
     68 H431        2.5050    6.6410    9.8190 hc        1 LPS      0.035700
     69 H432        3.8250    5.7720    9.5990 hc        1 LPS      0.035700
     70 H441        3.4850    4.7210   11.6820 hc        1 LPS      0.038700
     71 H442        2.1450    5.5600   11.8990 hc        1 LPS      0.038700
     72 H451        3.9230    6.5770   13.0900 hc        1 LPS      0.027367
     73 H452        4.7580    6.7200   11.7300 hc        1 LPS      0.027367
     74 H453        3.4100    7.5710   11.9410 hc        1 LPS      0.027367
@<TRIPOS>BOND
     1    1    2 1   
     2    2    3 1   
     3    2    4 1   
     4    4    5 1   
     5    4    6 1   
     6    4   33 1   
     7    5   34 1   
     8    5   35 1   
     9    6    7 1   
    10    6   36 1   
    11    6   37 1   
    12    7    8 1   
    13    8    9 1   
    14    8   10 1   
    15    8   11 1   
    16   11   12 1   
    17   12   13 1   
    18   12   38 1   
    19   12   39 1   
    20   13   14 1   
    21   13   15 1   
    22   13   40 1   
    23   14   41 1   
    24   15   16 1   
    25   15   42 1   
    26   15   43 1   
    27   16   17 1   
    28   17   18 1   
    29   17   19 1   
    30   17   44 1   
    31   18   45 1   
    32   19   20 1   
    33   19   46 1   
    34   19   47 1   
    35   20   21 1   
    36   20   48 1   
    37   20   49 1   
    38   21   22 1   
    39   21   50 1   
    40   21   51 1   
    41   22   23 1   
    42   22   52 1   
    43   22   53 1   
    44   23   24 1   
    45   23   54 1   
    46   23   55 1   
    47   24   25 1   
    48   24   56 1   
    49   24   57 1   
    50   25   26 1   
    51   25   58 1   
    52   25   59 1   
    53   26   27 1   
    54   26   60 1   
    55   26   61 1   
    56   27   28 1   
    57   27   62 1   
    58   27   63 1   
    59   28   29 1   
    60   28   64 1   
    61   28   65 1   
    62   29   30 1   
    63   29   66 1   
    64   29   67 1   
    65   30   31 1   
    66   30   68 1   
    67   30   69 1   
    68   31   32 1   
    69   31   70 1   
    70   31   71 1   
    71   32   72 1   
    72   32   73 1   
    73   32   74 1   
@<TRIPOS>SUBSTRUCTURE
     1 LPS         1 TEMP              0 ****  ****    0 ROOT
