@<TRIPOS>MOLECULE
LPX
   74    73     1     0     0
SMALL
bcc


@<TRIPOS>ATOM
      1 O7          0.9070   -3.9340    0.4870 o         1 LPX     -0.538000
      2 C6          1.6570   -2.9570    0.4770 c         1 LPX      0.636100
      3 O6          2.0590   -2.4400    1.6810 os        1 LPX     -0.450900
      4 C5          1.5760   -3.1020    2.8590 c3        1 LPX      0.138400
      5 C4          2.2060   -2.3530    4.0360 c3        1 LPX      0.128100
      6 O5          2.1390   -3.2370    5.1440 oh        1 LPX     -0.598800
      7 C3          1.4360   -1.0570    4.3180 c3        1 LPX      0.124400
      8 O1          2.0520   -0.4020    5.4080 os        1 LPX     -0.573200
      9 P1          2.5280    1.1130    5.2040 p5        1 LPX      1.638500
     10 O3          4.0740    1.0230    5.5430 oh        1 LPX     -0.752400
     11 O2          1.9900    1.8270    6.5360 os        1 LPX     -0.583200
     12 C1          1.5630    3.1670    6.4500 c3        1 LPX      0.165400
     13 C2          2.5470    4.0880    7.1900 c3        1 LPX      0.126800
     14 N1          3.8320    4.1780    6.5410 n8        1 LPX     -0.940800
     15 O4          2.1090    1.7330    3.9560 o         1 LPX     -0.814300
     16 C7          2.2410   -2.2150   -0.6840 c3        1 LPX     -0.127400
     17 C8          1.2940   -2.2180   -1.8650 c3        1 LPX     -0.079400
     18 C9          1.9440   -1.5840   -3.0750 c3        1 LPX     -0.079400
     19 C10         0.9980   -1.5700   -4.2560 c3        1 LPX     -0.078400
     20 C11         1.6470   -0.9420   -5.4710 c3        1 LPX     -0.079400
     21 C12         0.7010   -0.9280   -6.6530 c3        1 LPX     -0.079400
     22 C13         1.3490   -0.3010   -7.8680 c3        1 LPX     -0.079400
     23 C14         0.4040   -0.2880   -9.0500 c3        1 LPX     -0.079400
     24 C15         1.0530    0.3390  -10.2650 c3        1 LPX     -0.079400
     25 C16         0.1080    0.3510  -11.4480 c3        1 LPX     -0.079400
     26 C17         0.7560    0.9780  -12.6630 c3        1 LPX     -0.078400
     27 C18        -0.1880    0.9890  -13.8460 c3        1 LPX     -0.079400
     28 C19         0.4610    1.6170  -15.0620 c3        1 LPX     -0.079400
     29 C20        -0.4830    1.6280  -16.2460 c3        1 LPX     -0.080400
     30 C21         0.1580    2.2520  -17.4580 c3        1 LPX     -0.092100
     31 H5          1.9010   -4.1740    2.8510 h1        1 LPX      0.068700
     32 H5A         0.4570   -3.0510    2.8800 h1        1 LPX      0.068700
     33 H4          3.2840   -2.1190    3.8120 h1        1 LPX      0.059700
     34 HO5         2.3530   -2.7100    5.9260 ho        1 LPX      0.425000
     35 H3          1.4310   -0.3970    3.4080 h1        1 LPX      0.075700
     36 H3A         0.3830   -1.3100    4.6290 h1        1 LPX      0.075700
     37 H1          0.5690    3.2260    6.9750 h1        1 LPX      0.064200
     38 H1A         1.4430    3.4600    5.3700 h1        1 LPX      0.064200
     39 H2          2.7070    3.6670    8.2230 h1        1 LPX      0.044700
     40 H2A         2.0360    5.0890    7.2990 h1        1 LPX      0.044700
     41 HN1         4.4910    4.6540    7.1230 hn        1 LPX      0.360800
     42 HN1A        3.7640    4.6500    5.6610 hn        1 LPX      0.360800
     43 H7          2.4840   -1.1630   -0.3740 hc        1 LPX      0.081200
     44 H7A         3.2060   -2.7230   -0.9540 hc        1 LPX      0.081200
     45 H8          0.9900   -3.2730   -2.0980 hc        1 LPX      0.057700
     46 H8A         0.3590   -1.6560   -1.5990 hc        1 LPX      0.057700
     47 H9          2.2570   -0.5350   -2.8300 hc        1 LPX      0.041700
     48 H9A         2.8730   -2.1530   -3.3450 hc        1 LPX      0.041700
     49 H10         0.6820   -2.6190   -4.4980 hc        1 LPX      0.042200
     50 H10A        0.0700   -0.9990   -3.9880 hc        1 LPX      0.042200
     51 H11         2.5750   -1.5120   -5.7390 hc        1 LPX      0.039700
     52 H11A        1.9620    0.1070   -5.2290 hc        1 LPX      0.039700
     53 H12        -0.2280   -0.3580   -6.3850 hc        1 LPX      0.040700
     54 H12A        0.3850   -1.9780   -6.8940 hc        1 LPX      0.040700
     55 H13         1.6640    0.7490   -7.6270 hc        1 LPX      0.039700
     56 H13A        2.2780   -0.8710   -8.1350 hc        1 LPX      0.039700
     57 H14        -0.5250    0.2810   -8.7830 hc        1 LPX      0.039700
     58 H14A        0.0900   -1.3380   -9.2920 hc        1 LPX      0.039700
     59 H15         1.3660    1.3890  -10.0240 hc        1 LPX      0.039700
     60 H15A        1.9820   -0.2300  -10.5320 hc        1 LPX      0.039700
     61 H16        -0.8210    0.9200  -11.1820 hc        1 LPX      0.039700
     62 H16A       -0.2060   -0.6990  -11.6890 hc        1 LPX      0.039700
     63 H17         1.6860    0.4090  -12.9300 hc        1 LPX      0.039700
     64 H17A        1.0700    2.0280  -12.4220 hc        1 LPX      0.039700
     65 H18        -0.5010   -0.0610  -14.0870 hc        1 LPX      0.039700
     66 H18A       -1.1170    1.5580  -13.5800 hc        1 LPX      0.039700
     67 H19         0.7730    2.6670  -14.8210 hc        1 LPX      0.039700
     68 H19A        1.3900    1.0480  -15.3280 hc        1 LPX      0.039700
     69 H20        -1.4130    2.1950  -15.9770 hc        1 LPX      0.038700
     70 H20A       -0.7960    0.5770  -16.4840 hc        1 LPX      0.038700
     71 H21         1.0730    1.6850  -17.7560 hc        1 LPX      0.032700
     72 H21A        0.4550    3.3080  -17.2480 hc        1 LPX      0.032700
     73 H21B       -0.5530    2.2500  -18.3180 hc        1 LPX      0.032700
     74 H131        4.3780    1.5020    6.3140 ho        1 LPX      0.497000
@<TRIPOS>BOND
     1    1    2 2   
     2    2    3 1   
     3    2   16 1   
     4    3    4 1   
     5    4    5 1   
     6    4   31 1   
     7    4   32 1   
     8    5    6 1   
     9    5    7 1   
    10    5   33 1   
    11    6   34 1   
    12    7    8 1   
    13    7   35 1   
    14    7   36 1   
    15    8    9 1   
    16    9   10 1   
    17    9   11 1   
    18    9   15 2   
    19   10   74 1   
    20   11   12 1   
    21   12   13 1   
    22   12   37 1   
    23   12   38 1   
    24   13   14 1   
    25   13   39 1   
    26   13   40 1   
    27   14   41 1   
    28   14   42 1   
    29   16   17 1   
    30   16   43 1   
    31   16   44 1   
    32   17   18 1   
    33   17   45 1   
    34   17   46 1   
    35   18   19 1   
    36   18   47 1   
    37   18   48 1   
    38   19   20 1   
    39   19   49 1   
    40   19   50 1   
    41   20   21 1   
    42   20   51 1   
    43   20   52 1   
    44   21   22 1   
    45   21   53 1   
    46   21   54 1   
    47   22   23 1   
    48   22   55 1   
    49   22   56 1   
    50   23   24 1   
    51   23   57 1   
    52   23   58 1   
    53   24   25 1   
    54   24   59 1   
    55   24   60 1   
    56   25   26 1   
    57   25   61 1   
    58   25   62 1   
    59   26   27 1   
    60   26   63 1   
    61   26   64 1   
    62   27   28 1   
    63   27   65 1   
    64   27   66 1   
    65   28   29 1   
    66   28   67 1   
    67   28   68 1   
    68   29   30 1   
    69   29   69 1   
    70   29   70 1   
    71   30   71 1   
    72   30   72 1   
    73   30   73 1   
@<TRIPOS>SUBSTRUCTURE
     1 LPX         1 TEMP              0 ****  ****    0 ROOT
