@<TRIPOS>MOLECULE
LPX
   73    71     1     0     0
SMALL
bcc


@<TRIPOS>ATOM
      1 O7         -1.4130    0.8530    4.9030 o         1 LPX     -0.374000
      2 C6         -0.5610   -0.0150    4.6550 c1        1 LPX      0.302000
      3 O6         -0.5560   -1.2420    5.3880 o         1 LPX     -0.265000
      4 C5         -1.5800   -1.3270    6.3820 c3        1 LPX     -0.013000
      5 C4         -1.4090   -2.6160    7.1820 c3        1 LPX      0.007000
      6 O5         -0.9580   -3.6350    6.3360 oh        1 LPX     -0.356000
      7 C3         -2.7310   -3.0100    7.7840 c3        1 LPX      0.003000
      8 O1         -2.6830   -4.3940    8.1910 os        1 LPX     -0.745000
      9 P1         -3.9050   -4.9810    9.0810 p5        1 LPX      1.889000
     10 O3         -5.2230   -4.4960    8.5120 o         1 LPX     -0.816000
     11 O2         -3.8680   -6.5540    9.0510 os        1 LPX     -0.732000
     12 C1         -4.7400   -7.2670    9.9140 c3        1 LPX      0.002000
     13 C2         -4.6450   -8.7540    9.6160 c3        1 LPX     -0.125000
     14 N1         -5.3800   -9.4880   10.6080 n3        1 LPX     -0.337000
     15 O4         -3.7660   -4.5020   10.5090 o         1 LPX     -0.816000
     16 C7          0.5190    0.2520    3.6110 c3        1 LPX     -0.159000
     17 C8         -0.0310    1.1870    2.5330 c3        1 LPX     -0.157000
     18 C9          0.8030    1.0170    1.2250 c3        1 LPX     -0.157000
     19 C10         0.4960    2.1920    0.2570 c3        1 LPX     -0.157000
     20 C11         0.7490    1.7330   -1.2030 c3        1 LPX     -0.158000
     21 C12         0.8630    2.9730   -2.1300 c3        1 LPX     -0.158000
     22 C13         0.7320    2.5210   -3.6120 c3        1 LPX     -0.158000
     23 C14         1.4350    3.5380   -4.5240 c3        1 LPX     -0.158000
     24 C15         1.2520    3.1180   -5.9990 c3        1 LPX     -0.158000
     25 C16         2.1770    3.9680   -6.8960 c3        1 LPX     -0.158000
     26 C17         2.1180    3.4150   -8.3950 c3        1 LPX     -0.158000
     27 C18         3.1260    4.1960   -9.2780 c3        1 LPX     -0.158000
     28 C19         3.2780    3.4770  -10.6510 c3        1 LPX     -0.158000
     29 C20         4.2600    4.2460  -11.5290 c3        1 LPX     -0.159000
     30 C21         4.5930    3.4020  -12.7850 c3        1 LPX     -0.210000
     31 H5         -1.5160   -0.5610    6.9820 h1        1 LPX      0.097500
     32 H5A        -2.4580   -1.3270    5.9460 h1        1 LPX      0.097500
     33 H4         -0.7500   -2.4710    7.9020 h1        1 LPX      0.103000
     34 HO5        -0.2350   -4.0490    6.7150 ho        1 LPX      0.233000
     35 H3         -3.4420   -2.8900    7.1180 h1        1 LPX      0.083000
     36 H3A        -2.9150   -2.4480    8.5620 h1        1 LPX      0.083000
     37 H1         -5.6700   -6.9600    9.7710 h1        1 LPX      0.066500
     38 H1A        -4.4840   -7.1050   10.8400 h1        1 LPX      0.066500
     39 H2         -3.7020   -9.0330    9.6330 h1        1 LPX      0.095000
     40 H2A        -5.0280   -8.9370    8.7180 h1        1 LPX      0.095000
     41 HN1        -4.8150  -10.0200   11.0690 hn        1 LPX      0.126000
     42 HN1A       -6.0180  -10.0040   10.1980 hn        1 LPX      0.126000
     43 H7          1.2870    0.6670    4.0390 hc        1 LPX      0.115500
     44 H7A         0.7860   -0.5740    3.2100 hc        1 LPX      0.115500
     45 H8          0.0320    2.1110    2.8420 hc        1 LPX      0.094500
     46 H8A        -0.9660    0.9660    2.3560 hc        1 LPX      0.094500
     47 H9          1.7540    1.0160    1.4430 hc        1 LPX      0.079000
     48 H9A         0.5640    0.1640    0.7910 hc        1 LPX      0.079000
     49 H10        -0.4450    2.4630    0.3570 hc        1 LPX      0.080500
     50 H10A        1.0860    2.9600    0.4700 hc        1 LPX      0.080500
     51 H11        -0.0010    1.1660   -1.5030 hc        1 LPX      0.078500
     52 H11A        1.5920    1.2130   -1.2430 hc        1 LPX      0.078500
     53 H12         0.1440    3.6110   -1.9160 hc        1 LPX      0.079000
     54 H12A        1.7450    3.4090   -1.9940 hc        1 LPX      0.079000
     55 H13         1.1490    1.6410   -3.7220 hc        1 LPX      0.078500
     56 H13A       -0.2230    2.4660   -3.8560 hc        1 LPX      0.078500
     57 H14         1.0480    4.4160   -4.3880 hc        1 LPX      0.078500
     58 H14A        2.3990    3.5650   -4.3070 hc        1 LPX      0.078500
     59 H15         0.3310    3.2580   -6.2610 hc        1 LPX      0.078500
     60 H15A        1.4790    2.1730   -6.0990 hc        1 LPX      0.078500
     61 H16         3.1040    3.9110   -6.5590 hc        1 LPX      0.078500
     62 H16A        1.8780    4.9080   -6.8800 hc        1 LPX      0.078500
     63 H17         1.2200    3.5320   -8.7490 hc        1 LPX      0.078500
     64 H17A        2.3530    2.4460   -8.4010 hc        1 LPX      0.078500
     65 H18         2.7990    5.1010   -9.4200 hc        1 LPX      0.078000
     66 H18A        3.9890    4.2290   -8.8310 hc        1 LPX      0.078000
     67 H19         2.4190    3.4380  -11.0890 hc        1 LPX      0.078500
     68 H19A        3.6130    2.5650  -10.5070 hc        1 LPX      0.078500
     69 H20         5.0810    4.4210  -11.0250 hc        1 LPX      0.077000
     70 H20A        3.8660    5.0790  -11.7980 hc        1 LPX      0.077000
     71 H21         3.7670    3.1890  -13.2630 hc        1 LPX      0.070667
     72 H21A        5.0380    2.5670  -12.5100 hc        1 LPX      0.070667
     73 H21B        5.1940    3.9150  -13.3780 hc        1 LPX      0.070667
@<TRIPOS>BOND
     1    1    2 1   
     2    2   16 1   
     3    3    4 1   
     4    4    5 1   
     5    4   31 1   
     6    4   32 1   
     7    5    6 1   
     8    5    7 1   
     9    5   33 1   
    10    6   34 1   
    11    7    8 1   
    12    7   35 1   
    13    7   36 1   
    14    8    9 1   
    15    9   10 1   
    16    9   11 1   
    17    9   15 1   
    18   11   12 1   
    19   12   13 1   
    20   12   37 1   
    21   12   38 1   
    22   13   14 1   
    23   13   39 1   
    24   13   40 1   
    25   14   41 1   
    26   14   42 1   
    27   16   17 1   
    28   16   43 1   
    29   16   44 1   
    30   17   18 1   
    31   17   45 1   
    32   17   46 1   
    33   18   19 1   
    34   18   47 1   
    35   18   48 1   
    36   19   20 1   
    37   19   49 1   
    38   19   50 1   
    39   20   21 1   
    40   20   51 1   
    41   20   52 1   
    42   21   22 1   
    43   21   53 1   
    44   21   54 1   
    45   22   23 1   
    46   22   55 1   
    47   22   56 1   
    48   23   24 1   
    49   23   57 1   
    50   23   58 1   
    51   24   25 1   
    52   24   59 1   
    53   24   60 1   
    54   25   26 1   
    55   25   61 1   
    56   25   62 1   
    57   26   27 1   
    58   26   63 1   
    59   26   64 1   
    60   27   28 1   
    61   27   65 1   
    62   27   66 1   
    63   28   29 1   
    64   28   67 1   
    65   28   68 1   
    66   29   30 1   
    67   29   69 1   
    68   29   70 1   
    69   30   71 1   
    70   30   72 1   
    71   30   73 1   
@<TRIPOS>SUBSTRUCTURE
     1 LPX         1 TEMP              0 ****  ****    0 ROOT
