@<TRIPOS>MOLECULE
LPX
   74    73     1     0     0
SMALL
bcc


@<TRIPOS>ATOM
      1 O7          0.3580   -2.2520    0.3710 o         1 LPX     -0.540000
      2 C6          1.4360   -1.7010    0.1470 c         1 LPX      0.635100
      3 O6          2.1450   -1.2110    1.2120 os        1 LPX     -0.446900
      4 C5          1.5800   -1.4260    2.5150 c3        1 LPX      0.136400
      5 C4          2.6480   -0.9650    3.5100 c3        1 LPX      0.142100
      6 O5          3.1130   -2.1310    4.1710 oh        1 LPX     -0.599800
      7 C3          2.0440    0.0180    4.5160 c3        1 LPX      0.128400
      8 O1          3.0600    0.3370    5.4500 os        1 LPX     -0.565200
      9 P1          2.6680    1.5070    6.4690 p5        1 LPX      1.633500
     10 O3          3.9990    2.3660    6.5210 oh        1 LPX     -0.747400
     11 O2          2.7500    0.7730    7.8940 os        1 LPX     -0.587200
     12 C1          1.8590    1.1790    8.9080 c3        1 LPX      0.165400
     13 C2          2.6200    1.9150   10.0240 c3        1 LPX      0.126800
     14 N1          3.1410    3.1930    9.6030 n3        1 LPX     -0.940800
     15 O4          1.4010    2.1610    6.1830 o         1 LPX     -0.814300
     16 C7          2.1380   -1.4800   -1.1560 c3        1 LPX     -0.127400
     17 C8          1.1470   -1.2060   -2.2680 c3        1 LPX     -0.079400
     18 C9          1.8510   -1.1260   -3.6060 c3        1 LPX     -0.078400
     19 C10         0.8690   -0.8340   -4.7200 c3        1 LPX     -0.079400
     20 C11         1.5680   -0.7610   -6.0610 c3        1 LPX     -0.079400
     21 C12         0.5860   -0.4690   -7.1760 c3        1 LPX     -0.079400
     22 C13         1.2840   -0.3980   -8.5170 c3        1 LPX     -0.078400
     23 C14         0.3030   -0.1080   -9.6320 c3        1 LPX     -0.079400
     24 C15         1.0000   -0.0380  -10.9730 c3        1 LPX     -0.079400
     25 C16         0.0190    0.2520  -12.0890 c3        1 LPX     -0.079400
     26 C17         0.7160    0.3200  -13.4310 c3        1 LPX     -0.078400
     27 C18        -0.2660    0.6090  -14.5460 c3        1 LPX     -0.079400
     28 C19         0.4310    0.6770  -15.8880 c3        1 LPX     -0.079400
     29 C20        -0.5490    0.9670  -17.0040 c3        1 LPX     -0.080400
     30 C21         0.1410    1.0360  -18.3420 c3        1 LPX     -0.092100
     31 H5          1.3460   -2.5150    2.6480 h1        1 LPX      0.070700
     32 H5A         0.6400   -0.8220    2.5980 h1        1 LPX      0.070700
     33 H4          3.5060   -0.4710    2.9720 h1        1 LPX      0.070700
     34 HO5         3.7310   -1.8330    4.8520 ho        1 LPX      0.423000
     35 H3          1.1900   -0.4460    5.0770 h1        1 LPX      0.060700
     36 H3A         1.7020    0.9610    4.0110 h1        1 LPX      0.060700
     37 H1          1.4170    0.2420    9.3480 h1        1 LPX      0.064200
     38 H1A         1.0430    1.8150    8.4640 h1        1 LPX      0.064200
     39 H2          3.4900    1.2690   10.3350 h1        1 LPX      0.044700
     40 H2A         1.9140    1.9920   10.9020 h1        1 LPX      0.044700
     41 HN1         2.4040    3.8460    9.4240 hn        1 LPX      0.360800
     42 HN1A        3.7570    3.5700   10.2940 hn        1 LPX      0.360800
     43 H7          2.8640   -0.6310   -1.0550 hc        1 LPX      0.078700
     44 H7A         2.7270   -2.4110   -1.3790 hc        1 LPX      0.078700
     45 H8          0.3730   -2.0180   -2.2880 hc        1 LPX      0.057700
     46 H8A         0.6110   -0.2420   -2.0630 hc        1 LPX      0.057700
     47 H9          2.3780   -2.0950   -3.8130 hc        1 LPX      0.041200
     48 H9A         2.6340   -0.3230   -3.5740 hc        1 LPX      0.041200
     49 H10         0.0830   -1.6350   -4.7480 hc        1 LPX      0.042700
     50 H10A        0.3450    0.1370   -4.5150 hc        1 LPX      0.042700
     51 H11         2.3530    0.0400   -6.0320 hc        1 LPX      0.039700
     52 H11A        2.0920   -1.7310   -6.2650 hc        1 LPX      0.039700
     53 H12         0.0630    0.5020   -6.9720 hc        1 LPX      0.040700
     54 H12A       -0.2000   -1.2690   -7.2030 hc        1 LPX      0.040700
     55 H13         1.8080   -1.3690   -8.7200 hc        1 LPX      0.039700
     56 H13A        2.0700    0.4020   -8.4900 hc        1 LPX      0.039700
     57 H14        -0.4840   -0.9070   -9.6580 hc        1 LPX      0.039700
     58 H14A       -0.2210    0.8640   -9.4290 hc        1 LPX      0.039700
     59 H15         1.7870    0.7620  -10.9470 hc        1 LPX      0.039700
     60 H15A        1.5240   -1.0100  -11.1760 hc        1 LPX      0.039700
     61 H16        -0.5040    1.2240  -11.8870 hc        1 LPX      0.039700
     62 H16A       -0.7680   -0.5480  -12.1140 hc        1 LPX      0.039700
     63 H17         1.2390   -0.6520  -13.6330 hc        1 LPX      0.039700
     64 H17A        1.5030    1.1190  -13.4050 hc        1 LPX      0.039700
     65 H18        -1.0530   -0.1900  -14.5710 hc        1 LPX      0.039700
     66 H18A       -0.7880    1.5810  -14.3440 hc        1 LPX      0.039700
     67 H19         1.2180    1.4770  -15.8630 hc        1 LPX      0.039700
     68 H19A        0.9540   -0.2940  -16.0900 hc        1 LPX      0.039700
     69 H20        -1.0720    1.9380  -16.7990 hc        1 LPX      0.038700
     70 H20A       -1.3360    0.1670  -17.0260 hc        1 LPX      0.038700
     71 H21         0.9120    1.8440  -18.3470 hc        1 LPX      0.032700
     72 H21A        0.6470    0.0680  -18.5750 hc        1 LPX      0.032700
     73 H21B       -0.6000    1.2500  -19.1500 hc        1 LPX      0.032700
     74 H131        4.4670    2.3890    7.3560 ho        1 LPX      0.497000
@<TRIPOS>BOND
     1    1    2 2   
     2    2    3 1   
     3    2   16 1   
     4    3    4 1   
     5    4    5 1   
     6    4   31 1   
     7    4   32 1   
     8    5    6 1   
     9    5    7 1   
    10    5   33 1   
    11    6   34 1   
    12    7    8 1   
    13    7   35 1   
    14    7   36 1   
    15    8    9 1   
    16    9   10 1   
    17    9   11 1   
    18    9   15 2   
    19   10   74 1   
    20   11   12 1   
    21   12   13 1   
    22   12   37 1   
    23   12   38 1   
    24   13   14 1   
    25   13   39 1   
    26   13   40 1   
    27   14   41 1   
    28   14   42 1   
    29   16   17 1   
    30   16   43 1   
    31   16   44 1   
    32   17   18 1   
    33   17   45 1   
    34   17   46 1   
    35   18   19 1   
    36   18   47 1   
    37   18   48 1   
    38   19   20 1   
    39   19   49 1   
    40   19   50 1   
    41   20   21 1   
    42   20   51 1   
    43   20   52 1   
    44   21   22 1   
    45   21   53 1   
    46   21   54 1   
    47   22   23 1   
    48   22   55 1   
    49   22   56 1   
    50   23   24 1   
    51   23   57 1   
    52   23   58 1   
    53   24   25 1   
    54   24   59 1   
    55   24   60 1   
    56   25   26 1   
    57   25   61 1   
    58   25   62 1   
    59   26   27 1   
    60   26   63 1   
    61   26   64 1   
    62   27   28 1   
    63   27   65 1   
    64   27   66 1   
    65   28   29 1   
    66   28   67 1   
    67   28   68 1   
    68   29   30 1   
    69   29   69 1   
    70   29   70 1   
    71   30   71 1   
    72   30   72 1   
    73   30   73 1   
@<TRIPOS>SUBSTRUCTURE
     1 LPX         1 TEMP              0 ****  ****    0 ROOT
