@<TRIPOS>MOLECULE
LPX
   74    73     1     0     0
SMALL
bcc


@<TRIPOS>ATOM
      1 O7          0.7760   -3.9320    0.5070 o         1 LPX     -0.538000
      2 C6          1.5650   -2.9870    0.4900 c         1 LPX      0.636100
      3 O6          1.9860   -2.4750    1.6900 os        1 LPX     -0.450900
      4 C5          1.4730   -3.1040    2.8740 c3        1 LPX      0.138400
      5 C4          2.1230   -2.3640    4.0450 c3        1 LPX      0.128100
      6 O5          2.0210   -3.2310    5.1620 oh        1 LPX     -0.598800
      7 C3          1.3970   -1.0380    4.3070 c3        1 LPX      0.124400
      8 O1          2.0320   -0.3910    5.3910 os        1 LPX     -0.573200
      9 P1          2.5600    1.1030    5.1710 p5        1 LPX      1.638500
     10 O3          4.1010    0.9650    5.5190 oh        1 LPX     -0.752400
     11 O2          2.0410    1.8520    6.4920 os        1 LPX     -0.583200
     12 C1          1.6610    3.2050    6.3860 c3        1 LPX      0.165400
     13 C2          2.6730    4.1020    7.1190 c3        1 LPX      0.126800
     14 N1          3.9630    4.1390    6.4750 n3        1 LPX     -0.940800
     15 O4          2.1680    1.7220    3.9140 o         1 LPX     -0.814300
     16 C7          2.1820   -2.2810   -0.6760 c3        1 LPX     -0.127400
     17 C8          1.2270   -2.2330   -1.8500 c3        1 LPX     -0.079400
     18 C9          1.9040   -1.6410   -3.0680 c3        1 LPX     -0.079400
     19 C10         0.9490   -1.5730   -4.2410 c3        1 LPX     -0.078400
     20 C11         1.6230   -0.9870   -5.4620 c3        1 LPX     -0.079400
     21 C12         0.6700   -0.9180   -6.6360 c3        1 LPX     -0.079400
     22 C13         1.3430   -0.3320   -7.8580 c3        1 LPX     -0.079400
     23 C14         0.3900   -0.2630   -9.0310 c3        1 LPX     -0.079400
     24 C15         1.0640    0.3230  -10.2530 c3        1 LPX     -0.079400
     25 C16         0.1100    0.3910  -11.4270 c3        1 LPX     -0.079400
     26 C17         0.7840    0.9770  -12.6490 c3        1 LPX     -0.078400
     27 C18        -0.1700    1.0460  -13.8220 c3        1 LPX     -0.079400
     28 C19         0.5040    1.6310  -15.0450 c3        1 LPX     -0.079400
     29 C20        -0.4490    1.7000  -16.2190 c3        1 LPX     -0.080400
     30 C21         0.2170    2.2830  -17.4390 c3        1 LPX     -0.092100
     31 H5          0.3570   -3.0140    2.8880 h1        1 LPX      0.068700
     32 H5A         1.7610   -4.1870    2.8800 h1        1 LPX      0.068700
     33 H4          3.2100   -2.1700    3.8230 h1        1 LPX      0.059700
     34 HO5         2.2500   -2.7030    5.9390 ho        1 LPX      0.425000
     35 H3          1.4200   -0.3900    3.3890 h1        1 LPX      0.075700
     36 H3A         0.3360   -1.2510    4.6160 h1        1 LPX      0.075700
     37 H1          0.6670    3.3050    6.9060 h1        1 LPX      0.064200
     38 H1A         1.5560    3.4880    5.3020 h1        1 LPX      0.064200
     39 H2          2.8140    3.6890    8.1580 h1        1 LPX      0.044700
     40 H2A         2.1960    5.1210    7.2130 h1        1 LPX      0.044700
     41 HN1         3.9150    4.6020    5.5890 hn        1 LPX      0.360800
     42 HN1A        4.4180    1.4430    6.2850 ho        1 LPX      0.497000
     43 H7          2.4860   -1.2450   -0.3720 hc        1 LPX      0.080700
     44 H7A         3.1140   -2.8440   -0.9530 hc        1 LPX      0.080700
     45 H8          0.3290   -1.6190   -1.5790 hc        1 LPX      0.057700
     46 H8A         0.8620   -3.2700   -2.0780 hc        1 LPX      0.057700
     47 H9          2.2790   -0.6110   -2.8280 hc        1 LPX      0.041700
     48 H9A         2.7960   -2.2630   -3.3440 hc        1 LPX      0.041700
     49 H10         0.5710   -2.6030   -4.4770 hc        1 LPX      0.042200
     50 H10A        0.0590   -0.9490   -3.9660 hc        1 LPX      0.042200
     51 H11         2.5140   -1.6110   -5.7370 hc        1 LPX      0.039700
     52 H11A        2.0030    0.0420   -5.2250 hc        1 LPX      0.039700
     53 H12         0.2900   -1.9470   -6.8720 hc        1 LPX      0.040700
     54 H12A       -0.2210   -0.2930   -6.3610 hc        1 LPX      0.040700
     55 H13         2.2340   -0.9570   -8.1330 hc        1 LPX      0.039700
     56 H13A        1.7230    0.6970   -7.6210 hc        1 LPX      0.039700
     57 H14        -0.5000    0.3620   -8.7560 hc        1 LPX      0.039700
     58 H14A        0.0100   -1.2920   -9.2680 hc        1 LPX      0.039700
     59 H15         1.4430    1.3510  -10.0170 hc        1 LPX      0.039700
     60 H15A        1.9540   -0.3030  -10.5280 hc        1 LPX      0.039700
     61 H16        -0.7800    1.0170  -11.1520 hc        1 LPX      0.039700
     62 H16A       -0.2700   -0.6370  -11.6630 hc        1 LPX      0.039700
     63 H17         1.6740    0.3510  -12.9240 hc        1 LPX      0.039700
     64 H17A        1.1630    2.0060  -12.4120 hc        1 LPX      0.039700
     65 H18        -1.0600    1.6710  -13.5480 hc        1 LPX      0.039700
     66 H18A       -0.5500    0.0170  -14.0590 hc        1 LPX      0.039700
     67 H19         0.8830    2.6600  -14.8090 hc        1 LPX      0.039700
     68 H19A        1.3940    1.0060  -15.3200 hc        1 LPX      0.039700
     69 H20        -0.8290    0.6700  -16.4530 hc        1 LPX      0.038700
     70 H20A       -1.3390    2.3250  -15.9420 hc        1 LPX      0.038700
     71 H21        -0.5020    2.3240  -18.2920 hc        1 LPX      0.032700
     72 H21A        0.5810    3.3180  -17.2330 hc        1 LPX      0.032700
     73 H21B        1.0920    1.6600  -17.7450 hc        1 LPX      0.032700
     74 H131        4.6360    4.5990    7.0530 hn        1 LPX      0.360800
@<TRIPOS>BOND
     1    1    2 2   
     2    2    3 1   
     3    2   16 1   
     4    3    4 1   
     5    4    5 1   
     6    4   31 1   
     7    4   32 1   
     8    5    6 1   
     9    5    7 1   
    10    5   33 1   
    11    6   34 1   
    12    7    8 1   
    13    7   35 1   
    14    7   36 1   
    15    8    9 1   
    16    9   10 1   
    17    9   11 1   
    18    9   15 2   
    19   10   42 1   
    20   11   12 1   
    21   12   13 1   
    22   12   37 1   
    23   12   38 1   
    24   13   14 1   
    25   13   39 1   
    26   13   40 1   
    27   14   41 1   
    28   14   74 1   
    29   16   17 1   
    30   16   43 1   
    31   16   44 1   
    32   17   18 1   
    33   17   45 1   
    34   17   46 1   
    35   18   19 1   
    36   18   47 1   
    37   18   48 1   
    38   19   20 1   
    39   19   49 1   
    40   19   50 1   
    41   20   21 1   
    42   20   51 1   
    43   20   52 1   
    44   21   22 1   
    45   21   53 1   
    46   21   54 1   
    47   22   23 1   
    48   22   55 1   
    49   22   56 1   
    50   23   24 1   
    51   23   57 1   
    52   23   58 1   
    53   24   25 1   
    54   24   59 1   
    55   24   60 1   
    56   25   26 1   
    57   25   61 1   
    58   25   62 1   
    59   26   27 1   
    60   26   63 1   
    61   26   64 1   
    62   27   28 1   
    63   27   65 1   
    64   27   66 1   
    65   28   29 1   
    66   28   67 1   
    67   28   68 1   
    68   29   30 1   
    69   29   69 1   
    70   29   70 1   
    71   30   71 1   
    72   30   72 1   
    73   30   73 1   
@<TRIPOS>SUBSTRUCTURE
     1 LPX         1 TEMP              0 ****  ****    0 ROOT
