@<TRIPOS>MOLECULE
LPX
   73    72     1     0     0
SMALL
bcc


@<TRIPOS>ATOM
      1 O7          1.9720   -2.9380   -1.2650 o         1 LPX     -0.562000
      2 C6          1.9950   -1.7120   -1.1200 c         1 LPX      0.631100
      3 O6          3.1730   -1.0990   -0.8270 os        1 LPX     -0.428900
      4 C5          4.3420   -1.9350   -0.7300 c3        1 LPX      0.136400
      5 C4          5.5340   -0.9840   -0.6310 c3        1 LPX      0.112100
      6 O5          6.0370   -0.8080   -1.9500 oh        1 LPX     -0.627800
      7 C3          6.6070   -1.5820    0.2980 c3        1 LPX      0.151400
      8 O1          7.7660   -0.8200    0.1880 os        1 LPX     -0.585200
      9 P1          8.3370   -0.1020    1.5720 p5        1 LPX      1.425800
     10 O3          7.8260   -0.8850    2.7090 o         1 LPX     -0.819500
     11 O2          7.4520    1.2880    1.4590 os        1 LPX     -0.579200
     12 C1          7.7590    2.1280    0.3890 c3        1 LPX      0.159400
     13 C2          8.4890    3.4050    0.8460 c3        1 LPX      0.133800
     14 N1          9.8540    3.2620    1.2900 n3        1 LPX     -0.909800
     15 O4          9.7270    0.3070    1.2930 o         1 LPX     -0.819500
     16 C7          0.8580   -0.7420   -1.2400 c3        1 LPX     -0.130400
     17 C8         -0.4330   -1.3490   -0.7350 c3        1 LPX     -0.078400
     18 C9         -1.6000   -0.4200   -0.9870 c3        1 LPX     -0.078400
     19 C10        -2.8920   -1.0140   -0.4670 c3        1 LPX     -0.078400
     20 C11        -4.0630   -0.0890   -0.7210 c3        1 LPX     -0.079400
     21 C12        -5.3540   -0.6820   -0.2000 c3        1 LPX     -0.079400
     22 C13        -6.5260    0.2420   -0.4550 c3        1 LPX     -0.079400
     23 C14        -7.8170   -0.3510    0.0660 c3        1 LPX     -0.079400
     24 C15        -8.9890    0.5730   -0.1880 c3        1 LPX     -0.079400
     25 C16       -10.2800   -0.0210    0.3330 c3        1 LPX     -0.079400
     26 C17       -11.4520    0.9040    0.0790 c3        1 LPX     -0.079400
     27 C18       -12.7430    0.3100    0.5990 c3        1 LPX     -0.079400
     28 C19       -13.9150    1.2340    0.3450 c3        1 LPX     -0.079400
     29 C20       -15.2070    0.6420    0.8660 c3        1 LPX     -0.080400
     30 C21       -16.3760    1.5590    0.6150 c3        1 LPX     -0.092100
     31 H5          4.2420   -2.5660    0.1900 h1        1 LPX      0.059700
     32 H5A         4.4090   -2.5850   -1.6400 h1        1 LPX      0.059700
     33 H4          5.2040    0.0210   -0.2430 h1        1 LPX      0.064700
     34 HO5         6.9680   -0.5580   -1.8560 ho        1 LPX      0.432000
     35 H3          6.2360   -1.6020    1.3600 h1        1 LPX      0.047700
     36 H3A         6.8350   -2.6300   -0.0460 h1        1 LPX      0.047700
     37 H1          8.3800    1.5750   -0.3700 h1        1 LPX      0.020700
     38 H1A         6.7850    2.4380   -0.0880 h1        1 LPX      0.020700
     39 H2          8.4950    4.1130   -0.0320 h1        1 LPX      0.029700
     40 H2A         7.8880    3.8770    1.6710 h1        1 LPX      0.029700
     41 HN1         9.8760    2.8650    2.2110 hn        1 LPX      0.357800
     42 HN1A       10.3460    2.6210    0.6890 hn        1 LPX      0.357800
     43 H7          1.1040    0.1940   -0.6710 hc        1 LPX      0.076200
     44 H7A         0.7650   -0.4690   -2.3250 hc        1 LPX      0.076200
     45 H8         -0.6070   -2.3340   -1.2460 hc        1 LPX      0.055700
     46 H8A        -0.3440   -1.5590    0.3630 hc        1 LPX      0.055700
     47 H9         -1.4110    0.5670   -0.4870 hc        1 LPX      0.039200
     48 H9A        -1.6940   -0.2210   -2.0870 hc        1 LPX      0.039200
     49 H10        -3.0770   -2.0020   -0.9630 hc        1 LPX      0.041200
     50 H10A       -2.7990   -1.2090    0.6340 hc        1 LPX      0.041200
     51 H11        -3.8760    0.9000   -0.2250 hc        1 LPX      0.038700
     52 H11A       -4.1560    0.1060   -1.8220 hc        1 LPX      0.038700
     53 H12        -5.5410   -1.6710   -0.6960 hc        1 LPX      0.039700
     54 H12A       -5.2610   -0.8770    0.9010 hc        1 LPX      0.039700
     55 H13        -6.3390    1.2310    0.0420 hc        1 LPX      0.039200
     56 H13A       -6.6190    0.4370   -1.5560 hc        1 LPX      0.039200
     57 H14        -8.0040   -1.3400   -0.4300 hc        1 LPX      0.039200
     58 H14A       -7.7240   -0.5470    1.1670 hc        1 LPX      0.039200
     59 H15        -8.8020    1.5620    0.3080 hc        1 LPX      0.039200
     60 H15A       -9.0820    0.7680   -1.2890 hc        1 LPX      0.039200
     61 H16       -10.4670   -1.0090   -0.1640 hc        1 LPX      0.039200
     62 H16A      -10.1870   -0.2160    1.4330 hc        1 LPX      0.039200
     63 H17       -11.2650    1.8930    0.5750 hc        1 LPX      0.039200
     64 H17A      -11.5450    1.0990   -1.0220 hc        1 LPX      0.039200
     65 H18       -12.9300   -0.6780    0.1030 hc        1 LPX      0.039200
     66 H18A      -12.6500    0.1150    1.7000 hc        1 LPX      0.039200
     67 H19       -13.7280    2.2230    0.8420 hc        1 LPX      0.039200
     68 H19A      -14.0080    1.4300   -0.7550 hc        1 LPX      0.039200
     69 H20       -15.3910   -0.3470    0.3700 hc        1 LPX      0.038200
     70 H20A      -15.1110    0.4460    1.9670 hc        1 LPX      0.038200
     71 H21       -17.3180    1.1030    1.0060 hc        1 LPX      0.031367
     72 H21A      -16.2230    2.5420    1.1230 hc        1 LPX      0.031367
     73 H21B      -16.5030    1.7460   -0.4780 hc        1 LPX      0.031367
@<TRIPOS>BOND
     1    1    2 2   
     2    2    3 1   
     3    2   16 1   
     4    3    4 1   
     5    4    5 1   
     6    4   31 1   
     7    4   32 1   
     8    5    6 1   
     9    5    7 1   
    10    5   33 1   
    11    6   34 1   
    12    7    8 1   
    13    7   35 1   
    14    7   36 1   
    15    8    9 1   
    16    9   10 1   
    17    9   11 1   
    18    9   15 1   
    19   11   12 1   
    20   12   13 1   
    21   12   37 1   
    22   12   38 1   
    23   13   14 1   
    24   13   39 1   
    25   13   40 1   
    26   14   41 1   
    27   14   42 1   
    28   16   17 1   
    29   16   43 1   
    30   16   44 1   
    31   17   18 1   
    32   17   45 1   
    33   17   46 1   
    34   18   19 1   
    35   18   47 1   
    36   18   48 1   
    37   19   20 1   
    38   19   49 1   
    39   19   50 1   
    40   20   21 1   
    41   20   51 1   
    42   20   52 1   
    43   21   22 1   
    44   21   53 1   
    45   21   54 1   
    46   22   23 1   
    47   22   55 1   
    48   22   56 1   
    49   23   24 1   
    50   23   57 1   
    51   23   58 1   
    52   24   25 1   
    53   24   59 1   
    54   24   60 1   
    55   25   26 1   
    56   25   61 1   
    57   25   62 1   
    58   26   27 1   
    59   26   63 1   
    60   26   64 1   
    61   27   28 1   
    62   27   65 1   
    63   27   66 1   
    64   28   29 1   
    65   28   67 1   
    66   28   68 1   
    67   29   30 1   
    68   29   69 1   
    69   29   70 1   
    70   30   71 1   
    71   30   72 1   
    72   30   73 1   
@<TRIPOS>SUBSTRUCTURE
     1 LPX         1 TEMP              0 ****  ****    0 ROOT
