@<TRIPOS>MOLECULE
LQ5
   62    65     1     0     0
SMALL
bcc


@<TRIPOS>ATOM
      1 C02        -0.4740   -0.3730    0.4040 ca        1 LQ5     -0.101500
      2 C03         0.8810   -0.3100    0.0940 ca        1 LQ5     -0.148000
      3 C04         1.8470   -0.3030    1.1230 ca        1 LQ5      0.057600
      4 C06         0.0650   -0.4430    2.7790 ca        1 LQ5     -0.101500
      5 C07        -0.8740   -0.4360    1.7410 ca        1 LQ5      0.082100
      6 O08        -2.2230   -0.3650    2.1020 os        1 LQ5     -0.364400
      7 C09        -3.0490   -1.4220    1.7560 ca        1 LQ5      0.687600
      8 C10        -4.4050   -1.2560    2.1380 ca        1 LQ5     -0.433600
      9 C11        -5.2620   -2.3110    1.7930 ca        1 LQ5      0.481200
     10 N12        -4.8670   -3.4240    1.1550 nb        1 LQ5     -0.771000
     11 C13        -3.5110   -3.5030    0.8420 ca        1 LQ5      0.899900
     12 N17        -3.0430   -4.6830    0.2690 nv        1 LQ5     -0.934500
     13 C18         3.8040    0.3710   -0.2420 c         1 LQ5      0.771100
     14 N19         5.2140    0.5010   -0.2380 ns        1 LQ5     -0.463100
     15 C20         5.9440    0.9230   -1.3660 ca        1 LQ5      0.060600
     16 C21         5.4490    1.8760   -2.2820 ca        1 LQ5     -0.108000
     17 C22         6.2440    2.2980   -3.3400 ca        1 LQ5     -0.114000
     18 C23         7.5430    1.8100   -3.5270 ca        1 LQ5     -0.041300
     19 C24         8.0400    0.8730   -2.6140 ca        1 LQ5     -0.123300
     20 C25         9.4610    0.3220   -2.7280 c3        1 LQ5      0.688200
     21 F26         9.7610   -0.6830   -1.8370 f         1 LQ5     -0.237300
     22 F27         9.7910   -0.2190   -3.9450 f         1 LQ5     -0.237300
     23 F28        10.4440    1.2570   -2.4990 f         1 LQ5     -0.237300
     24 C29         7.2540    0.4270   -1.5510 ca        1 LQ5     -0.143000
     25 C30         8.3520    2.3240   -4.6870 c3        1 LQ5      0.209100
     26 N31         8.1360    1.5480   -5.9010 n3        1 LQ5     -0.730600
     27 C32         9.3120    1.5160   -6.7580 c3        1 LQ5      0.170300
     28 N30        -2.5730   -2.5090    1.1070 nb        1 LQ5     -0.806000
     29 C33         9.0860    0.7180   -8.0560 c3        1 LQ5      0.168300
     30 N34         7.8860    1.1250   -8.7740 n3        1 LQ5     -0.732600
     31 C26         1.4170   -0.3650    2.4700 ca        1 LQ5     -0.148000
     32 C35         6.7130    1.1390   -7.9120 c3        1 LQ5      0.168300
     33 C36         6.9330    1.9430   -6.6170 c3        1 LQ5      0.170300
     34 C37         7.6760    0.3550   -9.9790 c3        1 LQ5      0.157100
     35 O39         3.1070    0.8330   -1.1710 o         1 LQ5     -0.607100
     36 N20         3.2320   -0.3060    0.8560 ns        1 LQ5     -0.461100
     37 H02        -1.2260   -0.3830   -0.3990 ha        1 LQ5      0.151500
     38 H03         1.1890   -0.2530   -0.9630 ha        1 LQ5      0.152500
     39 H26         2.1490   -0.3610    3.2930 ha        1 LQ5      0.152500
     40 H20         3.8040   -0.4570    1.6590 hn        1 LQ5      0.310500
     41 H06        -0.2700   -0.4960    3.8250 ha        1 LQ5      0.151500
     42 H10        -4.7440   -0.3580    2.6610 ha        1 LQ5      0.169000
     43 H11        -6.3390   -2.2660    2.0400 h4        1 LQ5      0.029100
     44 H171       -3.7160   -5.2970   -0.1260 hn        1 LQ5      0.435300
     45 H172       -2.1400   -4.6690   -0.1430 hn        1 LQ5      0.435300
     46 H19         5.7300   -0.0710    0.3950 hn        1 LQ5      0.310500
     47 H21         4.4290    2.2810   -2.1720 ha        1 LQ5      0.177000
     48 H29         7.6740   -0.3170   -0.8530 ha        1 LQ5      0.149000
     49 H22         5.8420    3.0410   -4.0480 ha        1 LQ5      0.145000
     50 H301        8.0970    3.4170   -4.8370 h1        1 LQ5      0.049200
     51 H302        9.4470    2.2750   -4.4130 h1        1 LQ5      0.049200
     52 H321        9.6610    2.5550   -7.0280 h1        1 LQ5      0.038700
     53 H322       10.1360    1.0040   -6.1830 h1        1 LQ5      0.038700
     54 H361        6.0540    1.7530   -5.9390 h1        1 LQ5      0.038700
     55 H362        6.9410    3.0440   -6.8730 h1        1 LQ5      0.038700
     56 H331        9.9690    0.9050   -8.7300 h1        1 LQ5      0.038450
     57 H332        9.0680   -0.3830   -7.8040 h1        1 LQ5      0.038450
     58 H351        6.3830    0.0940   -7.6370 h1        1 LQ5      0.038450
     59 H352        5.8730    1.6270   -8.4810 h1        1 LQ5      0.038450
     60 H371        8.5820    0.4550  -10.6320 h1        1 LQ5      0.032033
     61 H372        6.7890    0.7730  -10.5230 h1        1 LQ5      0.032033
     62 H373        7.4940   -0.7380   -9.7850 h1        1 LQ5      0.032033
@<TRIPOS>BOND
     1    1    2 ar  
     2    1    5 ar  
     3    1   37 1   
     4    2    3 ar  
     5    2   38 1   
     6    3   31 ar  
     7    3   36 1   
     8    4    5 ar  
     9    4   31 ar  
    10    4   41 1   
    11    5    6 1   
    12    6    7 1   
    13    7    8 ar  
    14    7   28 ar  
    15    8    9 ar  
    16    8   42 1   
    17    9   10 ar  
    18    9   43 1   
    19   10   11 ar  
    20   11   12 1   
    21   11   28 ar  
    22   12   44 1   
    23   12   45 1   
    24   13   14 1   
    25   13   35 2   
    26   13   36 1   
    27   14   15 1   
    28   14   46 1   
    29   15   16 ar  
    30   15   24 ar  
    31   16   17 ar  
    32   16   47 1   
    33   17   18 ar  
    34   17   49 1   
    35   18   19 ar  
    36   18   25 1   
    37   19   20 1   
    38   19   24 ar  
    39   20   21 1   
    40   20   22 1   
    41   20   23 1   
    42   24   48 1   
    43   25   26 1   
    44   25   50 1   
    45   25   51 1   
    46   26   27 1   
    47   26   33 1   
    48   27   29 1   
    49   27   52 1   
    50   27   53 1   
    51   29   30 1   
    52   29   56 1   
    53   29   57 1   
    54   30   32 1   
    55   30   34 1   
    56   31   39 1   
    57   32   33 1   
    58   32   58 1   
    59   32   59 1   
    60   33   54 1   
    61   33   55 1   
    62   34   60 1   
    63   34   61 1   
    64   34   62 1   
    65   36   40 1   
@<TRIPOS>SUBSTRUCTURE
     1 LQ5         1 TEMP              0 ****  ****    0 ROOT
