@<TRIPOS>MOLECULE
LQ5
   62    65     1     0     0
SMALL
bcc


@<TRIPOS>ATOM
      1 C02        -0.4750   -0.3750    0.4020 ca        1 LQ5     -0.101500
      2 C03         0.8800   -0.3100    0.0930 ca        1 LQ5     -0.148000
      3 C04         1.8450   -0.3020    1.1220 ca        1 LQ5      0.057600
      4 C06         0.0630   -0.4430    2.7770 ca        1 LQ5     -0.101500
      5 C07        -0.8760   -0.4370    1.7390 ca        1 LQ5      0.082100
      6 O08        -2.2250   -0.3680    2.0980 os        1 LQ5     -0.364400
      7 C09        -3.0500   -1.4260    1.7520 ca        1 LQ5      0.687600
      8 C10        -4.4070   -1.2610    2.1320 ca        1 LQ5     -0.433600
      9 C11        -5.2610   -2.3170    1.7870 ca        1 LQ5      0.481200
     10 N12        -4.8650   -3.4300    1.1500 nb        1 LQ5     -0.771000
     11 C13        -3.5090   -3.5080    0.8380 ca        1 LQ5      0.899900
     12 N17        -3.0390   -4.6880    0.2670 nh        1 LQ5     -0.934500
     13 C18         3.8030    0.3740   -0.2420 c         1 LQ5      0.771100
     14 N19         5.2130    0.5050   -0.2370 n         1 LQ5     -0.463100
     15 C20         5.9440    0.9260   -1.3650 ca        1 LQ5      0.060600
     16 C21         5.4480    1.8790   -2.2810 ca        1 LQ5     -0.108000
     17 C22         6.2430    2.3010   -3.3390 ca        1 LQ5     -0.114000
     18 C23         7.5430    1.8130   -3.5250 ca        1 LQ5     -0.041300
     19 C24         8.0390    0.8770   -2.6120 ca        1 LQ5     -0.123300
     20 C25         9.4610    0.3270   -2.7250 c3        1 LQ5      0.688200
     21 F26         9.7620   -0.6780   -1.8340 f         1 LQ5     -0.237300
     22 F27         9.7920   -0.2140   -3.9410 f         1 LQ5     -0.237300
     23 F28        10.4440    1.2620   -2.4960 f         1 LQ5     -0.237300
     24 C29         7.2530    0.4310   -1.5490 ca        1 LQ5     -0.143000
     25 C30         8.3520    2.3270   -4.6850 c3        1 LQ5      0.209100
     26 N31         8.1360    1.5500   -5.8990 n3        1 LQ5     -0.730600
     27 C32         9.3130    1.5180   -6.7560 c3        1 LQ5      0.170300
     28 N30        -2.5720   -2.5130    1.1040 nb        1 LQ5     -0.806000
     29 C33         9.0880    0.7200   -8.0540 c3        1 LQ5      0.168300
     30 N34         7.8870    1.1250   -8.7710 n3        1 LQ5     -0.732600
     31 C26         1.4150   -0.3630    2.4700 ca        1 LQ5     -0.148000
     32 C35         6.7140    1.1380   -7.9090 c3        1 LQ5      0.168300
     33 C36         6.9330    1.9440   -6.6150 c3        1 LQ5      0.170300
     34 C37         7.6780    0.3530   -9.9760 c3        1 LQ5      0.157100
     35 O39         3.1070    0.8340   -1.1720 o         1 LQ5     -0.607100
     36 N20         3.2310   -0.3040    0.8560 n         1 LQ5     -0.461100
     37 H02        -1.2260   -0.3860   -0.4020 ha        1 LQ5      0.151500
     38 H03         1.1890   -0.2540   -0.9650 ha        1 LQ5      0.152500
     39 H26         2.1460   -0.3590    3.2930 ha        1 LQ5      0.152500
     40 H20         3.8020   -0.4540    1.6600 hn        1 LQ5      0.310500
     41 H06        -0.2730   -0.4950    3.8230 ha        1 LQ5      0.151500
     42 H10        -4.7460   -0.3630    2.6540 ha        1 LQ5      0.169000
     43 H11        -6.3390   -2.2730    2.0330 h4        1 LQ5      0.029100
     44 H171       -3.7110   -5.3030   -0.1280 hn        1 LQ5      0.435300
     45 H172       -2.1360   -4.6730   -0.1440 hn        1 LQ5      0.435300
     46 H19         5.7290   -0.0680    0.3960 hn        1 LQ5      0.310500
     47 H21         4.4270    2.2830   -2.1710 ha        1 LQ5      0.177000
     48 H29         7.6730   -0.3120   -0.8510 ha        1 LQ5      0.149000
     49 H22         5.8410    3.0430   -4.0480 ha        1 LQ5      0.145000
     50 H301        9.4460    2.2790   -4.4110 h1        1 LQ5      0.049200
     51 H302        8.0960    3.4190   -4.8360 h1        1 LQ5      0.049200
     52 H321       10.1370    1.0080   -6.1800 h1        1 LQ5      0.038700
     53 H322        9.6610    2.5580   -7.0260 h1        1 LQ5      0.038700
     54 H361        6.0540    1.7530   -5.9370 h1        1 LQ5      0.038700
     55 H362        6.9410    3.0440   -6.8720 h1        1 LQ5      0.038700
     56 H331        9.9700    0.9070   -8.7280 h1        1 LQ5      0.038450
     57 H332        9.0710   -0.3810   -7.8010 h1        1 LQ5      0.038450
     58 H351        6.3860    0.0930   -7.6340 h1        1 LQ5      0.038450
     59 H352        5.8740    1.6250   -8.4790 h1        1 LQ5      0.038450
     60 H371        6.7910    0.7700  -10.5210 h1        1 LQ5      0.032033
     61 H372        8.5840    0.4530  -10.6290 h1        1 LQ5      0.032033
     62 H373        7.4970   -0.7400   -9.7810 h1        1 LQ5      0.032033
@<TRIPOS>BOND
     1    1    2 ar  
     2    1    5 ar  
     3    1   37 1   
     4    2    3 ar  
     5    2   38 1   
     6    3   31 ar  
     7    3   36 1   
     8    4    5 ar  
     9    4   31 ar  
    10    4   41 1   
    11    5    6 1   
    12    6    7 1   
    13    7    8 ar  
    14    7   28 ar  
    15    8    9 ar  
    16    8   42 1   
    17    9   10 ar  
    18    9   43 1   
    19   10   11 ar  
    20   11   12 1   
    21   11   28 ar  
    22   12   44 1   
    23   12   45 1   
    24   13   14 1   
    25   13   35 2   
    26   13   36 1   
    27   14   15 1   
    28   14   46 1   
    29   15   16 ar  
    30   15   24 ar  
    31   16   17 ar  
    32   16   47 1   
    33   17   18 ar  
    34   17   49 1   
    35   18   19 ar  
    36   18   25 1   
    37   19   20 1   
    38   19   24 ar  
    39   20   21 1   
    40   20   22 1   
    41   20   23 1   
    42   24   48 1   
    43   25   26 1   
    44   25   50 1   
    45   25   51 1   
    46   26   27 1   
    47   26   33 1   
    48   27   29 1   
    49   27   52 1   
    50   27   53 1   
    51   29   30 1   
    52   29   56 1   
    53   29   57 1   
    54   30   32 1   
    55   30   34 1   
    56   31   39 1   
    57   32   33 1   
    58   32   58 1   
    59   32   59 1   
    60   33   54 1   
    61   33   55 1   
    62   34   60 1   
    63   34   61 1   
    64   34   62 1   
    65   36   40 1   
@<TRIPOS>SUBSTRUCTURE
     1 LQ5         1 TEMP              0 ****  ****    0 ROOT
