@<TRIPOS>MOLECULE
LQQ
   63    67     1     0     0
SMALL
bcc


@<TRIPOS>ATOM
      1 O01         2.0640   -1.2240    0.7740 o         1 LQQ     -0.494100
      2 C02         2.8730   -0.4150    0.3160 c         1 LQQ      0.592300
      3 C01         3.8280    0.3610    1.1570 c3        1 LQQ     -0.200100
      4 C03         2.9490   -0.1620   -1.1550 cc        1 LQQ     -0.242400
      5 C04         3.2540   -1.1350   -2.0510 cd        1 LQQ      0.063600
      6 C05         3.5500   -2.5340   -1.6570 c3        1 LQQ     -0.089900
      7 C06         3.2960   -0.8020   -3.4560 ca        1 LQQ     -0.324400
      8 C07         3.6360   -1.7490   -4.4450 ca        1 LQQ      0.506200
      9 N01         3.6670   -1.4760   -5.7600 nb        1 LQQ     -0.694000
     10 C08         3.3390   -0.1790   -6.0830 ca        1 LQQ      0.763900
     11 N02         2.9920    0.8320   -5.2500 nb        1 LQQ     -0.741000
     12 C09         2.9630    0.5340   -3.8960 ca        1 LQQ      0.615200
     13 N03         2.6180    1.5130   -2.9770 n         1 LQQ     -0.404300
     14 C10         2.2240    2.8580   -3.4160 c3        1 LQQ      0.090700
     15 C11         0.8100    3.2910   -2.9710 c3        1 LQQ     -0.090400
     16 C12         0.8430    4.8130   -2.9520 c3        1 LQQ     -0.077400
     17 C13         2.3040    5.2470   -2.9380 c3        1 LQQ     -0.077400
     18 C14         3.1620    3.9900   -2.9440 c3        1 LQQ     -0.090400
     19 C15         2.6430    1.2180   -1.5800 c         1 LQQ      0.711700
     20 O02         2.4040    2.1290   -0.7730 o         1 LQQ     -0.565500
     21 N04         3.3730    0.1600   -7.5450 n4        1 LQQ     -0.702400
     22 C16         4.5820    0.9350   -7.8830 ca        1 LQQ      0.331200
     23 N05         5.6330    0.2410   -8.4150 nb        1 LQQ     -0.593000
     24 C17         6.7190    0.9210   -8.7470 ca        1 LQQ      0.340200
     25 C18         6.8700    2.3560   -8.5880 ca        1 LQQ      0.145300
     26 C19         5.7630    3.0270   -7.9890 ca        1 LQQ     -0.200000
     27 C20         4.6200    2.3250   -7.6380 ca        1 LQQ     -0.115300
     28 N06         7.9860    3.0160   -9.0320 nh        1 LQQ     -0.619000
     29 C21         9.1440    2.2400   -9.4430 c3        1 LQQ      0.199300
     30 C22        10.2840    3.0530  -10.0900 c3        1 LQQ      0.154800
     31 N07        10.5300    4.3030   -9.4060 n3        1 LQQ     -0.820200
     32 C23         9.3420    5.1250   -9.3630 c3        1 LQQ      0.154800
     33 C24         8.1580    4.4140   -8.6770 c3        1 LQQ      0.199300
     34 H011        3.5050    1.4350    1.1820 hc        1 LQQ      0.081700
     35 H012        3.8360   -0.0370    2.2020 hc        1 LQQ      0.081700
     36 H013        4.8590    0.3060    0.7330 hc        1 LQQ      0.081700
     37 H051        4.5960   -2.8060   -1.9510 hc        1 LQQ      0.075367
     38 H052        3.4450   -2.6810   -0.5520 hc        1 LQQ      0.075367
     39 H053        2.8380   -3.2340   -2.1620 hc        1 LQQ      0.075367
     40 H1          3.8980   -2.7940   -4.1760 h4        1 LQQ      0.070100
     41 H10         2.2270    2.8820   -4.5450 h1        1 LQQ      0.073700
     42 H111        0.0420    2.9050   -3.6840 hc        1 LQQ      0.060950
     43 H112        0.5620    2.9010   -1.9510 hc        1 LQQ      0.060950
     44 H121        0.3230    5.2260   -3.8530 hc        1 LQQ      0.053950
     45 H122        0.3050    5.2000   -2.0510 hc        1 LQQ      0.053950
     46 H131        2.5260    5.8630   -2.0300 hc        1 LQQ      0.053950
     47 H132        2.5310    5.8800   -3.8330 hc        1 LQQ      0.053950
     48 H141        4.0340    4.0890   -3.6350 hc        1 LQQ      0.060950
     49 H142        3.5570    3.7910   -1.9150 hc        1 LQQ      0.060950
     50 H04         3.3530   -0.7200   -8.0880 hn        1 LQQ      0.481300
     51 H17         7.5350    0.2980   -9.1630 h4        1 LQQ      0.055100
     52 H19         5.7950    4.1090   -7.7880 ha        1 LQQ      0.167000
     53 H20         3.7720    2.8520   -7.1700 ha        1 LQQ      0.166000
     54 H211        9.5540    1.6910   -8.5460 h1        1 LQQ      0.059200
     55 H212        8.8140    1.4820  -10.2110 h1        1 LQQ      0.059200
     56 H221       10.0340    3.2020  -11.1820 h1        1 LQQ      0.053950
     57 H222       11.2190    2.4280  -10.0290 h1        1 LQQ      0.053950
     58 H07        11.2960    4.7980   -9.8240 hn        1 LQQ      0.391800
     59 H231        9.0080    5.4540  -10.3900 h1        1 LQQ      0.053950
     60 H232        9.5730    6.0490   -8.7610 h1        1 LQQ      0.053950
     61 H241        7.2260    4.9750   -8.9760 h1        1 LQQ      0.059200
     62 H242        8.2840    4.4950   -7.5580 h1        1 LQQ      0.059200
     63 H042        2.5500    0.7300   -7.7780 hn        1 LQQ      0.481300
@<TRIPOS>BOND
     1    1    2 2   
     2    2    3 1   
     3    2    4 1   
     4    3   34 1   
     5    3   35 1   
     6    3   36 1   
     7    4    5 2   
     8    4   19 1   
     9    5    6 1   
    10    5    7 1   
    11    6   37 1   
    12    6   38 1   
    13    6   39 1   
    14    7    8 ar  
    15    7   12 ar  
    16    8    9 ar  
    17    8   40 1   
    18    9   10 ar  
    19   10   11 ar  
    20   10   21 1   
    21   11   12 ar  
    22   12   13 1   
    23   13   14 1   
    24   13   19 1   
    25   14   15 1   
    26   14   18 1   
    27   14   41 1   
    28   15   16 1   
    29   15   42 1   
    30   15   43 1   
    31   16   17 1   
    32   16   44 1   
    33   16   45 1   
    34   17   18 1   
    35   17   46 1   
    36   17   47 1   
    37   18   48 1   
    38   18   49 1   
    39   19   20 2   
    40   21   22 1   
    41   21   50 1   
    42   21   63 1   
    43   22   23 ar  
    44   22   27 ar  
    45   23   24 ar  
    46   24   25 ar  
    47   24   51 1   
    48   25   26 ar  
    49   25   28 1   
    50   26   27 ar  
    51   26   52 1   
    52   27   53 1   
    53   28   29 1   
    54   28   33 1   
    55   29   30 1   
    56   29   54 1   
    57   29   55 1   
    58   30   31 1   
    59   30   56 1   
    60   30   57 1   
    61   31   32 1   
    62   31   58 1   
    63   32   33 1   
    64   32   59 1   
    65   32   60 1   
    66   33   61 1   
    67   33   62 1   
@<TRIPOS>SUBSTRUCTURE
     1 LQQ         1 TEMP              0 ****  ****    0 ROOT
