@<TRIPOS>MOLECULE
LQQ
   62    66     1     0     0
SMALL
bcc


@<TRIPOS>ATOM
      1 O01         0.5210   -0.5960    0.3900 o         1 LQQ     -0.532100
      2 C02         1.6590   -0.1800    0.1450 c         1 LQQ      0.605300
      3 C01         2.5750    0.3120    1.2180 c3        1 LQQ     -0.200100
      4 C03         2.2030   -0.1560   -1.2370 cc        1 LQQ     -0.302400
      5 C04         2.2690   -1.2680   -2.0230 cd        1 LQQ      0.110600
      6 C05         1.7980   -2.6010   -1.5740 c3        1 LQQ     -0.087900
      7 C06         2.8300   -1.1580   -3.3390 ca        1 LQQ     -0.421400
      8 C07         2.9780   -2.2710   -4.2080 ca        1 LQQ      0.515200
      9 N01         3.4900   -2.2060   -5.4290 nb        1 LQQ     -0.752000
     10 C08         3.8910   -0.9290   -5.8620 ca        1 LQQ      0.911900
     11 N02         3.8150    0.2130   -5.1080 nb        1 LQQ     -0.796000
     12 C09         3.2770    0.1120   -3.8450 ca        1 LQQ      0.629200
     13 N03         3.1700    1.2540   -3.0460 n         1 LQQ     -0.411300
     14 C10         3.5850    2.5600   -3.5600 c3        1 LQQ      0.096700
     15 C11         2.4690    3.6270   -3.5930 c3        1 LQQ     -0.091900
     16 C12         3.1870    4.9680   -3.5350 c3        1 LQQ     -0.074400
     17 C13         4.6060    4.7140   -3.0380 c3        1 LQQ     -0.074400
     18 C14         4.7480    3.2200   -2.7860 c3        1 LQQ     -0.091900
     19 C15         2.6600    1.1550   -1.7270 c         1 LQQ      0.720700
     20 O02         2.6040    2.1840   -1.0240 o         1 LQQ     -0.628500
     21 N04         4.3220   -0.8390   -7.2020 nu        1 LQQ     -0.785600
     22 C16         5.1150    0.2780   -7.6130 ca        1 LQQ      0.550200
     23 N05         6.4230    0.0640   -7.9520 nb        1 LQQ     -0.665000
     24 C17         7.1370    1.0930   -8.4080 ca        1 LQQ      0.361200
     25 C18         6.6360    2.4260   -8.5660 ca        1 LQQ      0.043300
     26 C19         5.2890    2.6270   -8.1850 ca        1 LQQ     -0.159000
     27 C20         4.5250    1.5620   -7.7170 ca        1 LQQ     -0.163300
     28 N06         7.4160    3.4410   -9.1490 nh        1 LQQ     -0.627000
     29 C21         8.8550    3.2460   -9.0920 c3        1 LQQ      0.150800
     30 C22         9.6800    4.3940   -9.7110 c3        1 LQQ      0.147300
     31 N07         9.2470    5.7280   -9.3580 n7        1 LQQ     -0.795200
     32 C23         7.8280    5.8880   -9.5810 c3        1 LQQ      0.147300
     33 C24         6.9350    4.7980   -8.9510 c3        1 LQQ      0.150800
     34 H011        3.5920   -0.1320    1.0940 hc        1 LQQ      0.073033
     35 H012        2.1740    0.0450    2.2260 hc        1 LQQ      0.073033
     36 H013        2.6600    1.4260    1.1410 hc        1 LQQ      0.073033
     37 H051        1.0010   -2.9740   -2.2670 hc        1 LQQ      0.065700
     38 H052        2.6470   -3.3300   -1.5780 hc        1 LQQ      0.065700
     39 H053        1.3650   -2.5640   -0.5430 hc        1 LQQ      0.065700
     40 H1          2.6610   -3.2800   -3.8780 h4        1 LQQ      0.035100
     41 H10         3.9380    2.4290   -4.6270 h1        1 LQQ      0.091700
     42 H111        1.8630    3.5260   -4.5260 hc        1 LQQ      0.058450
     43 H112        1.7790    3.5220   -2.7180 hc        1 LQQ      0.058450
     44 H121        2.6460    5.6680   -2.8510 hc        1 LQQ      0.041950
     45 H122        3.2100    5.4420   -4.5480 hc        1 LQQ      0.041950
     46 H131        4.8050    5.2860   -2.0980 hc        1 LQQ      0.041950
     47 H132        5.3510    5.0540   -3.8000 hc        1 LQQ      0.041950
     48 H141        4.6780    3.0060   -1.6900 hc        1 LQQ      0.058450
     49 H142        5.7290    2.8320   -3.1540 hc        1 LQQ      0.058450
     50 H04         4.6080   -1.7170   -7.5990 hn        1 LQQ      0.450800
     51 H17         8.1810    0.8350   -8.6630 h4        1 LQQ      0.026100
     52 H19         4.8140    3.6170   -8.2510 ha        1 LQQ      0.143000
     53 H20         3.4770    1.7240   -7.4250 ha        1 LQQ      0.160000
     54 H211        9.0980    2.3160   -9.6810 h1        1 LQQ      0.044200
     55 H212        9.1940    3.0840   -8.0280 h1        1 LQQ      0.044200
     56 H221        9.6330    4.3100  -10.8340 h1        1 LQQ      0.064950
     57 H222       10.7500    4.2580   -9.3940 h1        1 LQQ      0.064950
     58 H07         9.4750    5.9270   -8.4000 hn        1 LQQ      0.354800
     59 H231        7.6590    5.8970  -10.6950 h1        1 LQQ      0.064950
     60 H232        7.4990    6.8820   -9.1680 h1        1 LQQ      0.064950
     61 H241        6.8080    5.0210   -7.8520 h1        1 LQQ      0.044200
     62 H242        5.9230    4.8770   -9.4420 h1        1 LQQ      0.044200
@<TRIPOS>BOND
     1    1    2 2   
     2    2    3 1   
     3    2    4 1   
     4    3   34 1   
     5    3   35 1   
     6    3   36 1   
     7    4    5 2   
     8    4   19 1   
     9    5    6 1   
    10    5    7 1   
    11    6   37 1   
    12    6   38 1   
    13    6   39 1   
    14    7    8 ar  
    15    7   12 ar  
    16    8    9 ar  
    17    8   40 1   
    18    9   10 ar  
    19   10   11 ar  
    20   10   21 1   
    21   11   12 ar  
    22   12   13 1   
    23   13   14 1   
    24   13   19 1   
    25   14   15 1   
    26   14   18 1   
    27   14   41 1   
    28   15   16 1   
    29   15   42 1   
    30   15   43 1   
    31   16   17 1   
    32   16   44 1   
    33   16   45 1   
    34   17   18 1   
    35   17   46 1   
    36   17   47 1   
    37   18   48 1   
    38   18   49 1   
    39   19   20 2   
    40   21   22 1   
    41   21   50 1   
    42   22   23 ar  
    43   22   27 ar  
    44   23   24 ar  
    45   24   25 ar  
    46   24   51 1   
    47   25   26 ar  
    48   25   28 1   
    49   26   27 ar  
    50   26   52 1   
    51   27   53 1   
    52   28   29 1   
    53   28   33 1   
    54   29   30 1   
    55   29   54 1   
    56   29   55 1   
    57   30   31 1   
    58   30   56 1   
    59   30   57 1   
    60   31   32 1   
    61   31   58 1   
    62   32   33 1   
    63   32   59 1   
    64   32   60 1   
    65   33   61 1   
    66   33   62 1   
@<TRIPOS>SUBSTRUCTURE
     1 LQQ         1 TEMP              0 ****  ****    0 ROOT
