@<TRIPOS>MOLECULE
LQQ
   62    66     1     0     0
SMALL
bcc


@<TRIPOS>ATOM
      1 O01        33.2230   28.3680   60.3770 o         1 LQQ     -0.532100
      2 C02        33.4060   27.2440   59.8970 c         1 LQQ      0.605300
      3 C01        34.3770   27.0000   58.7880 c3        1 LQQ     -0.200100
      4 C03        32.6820   26.0500   60.4030 cc        1 LQQ     -0.302400
      5 C04        32.7100   25.6700   61.7110 cd        1 LQQ      0.110600
      6 C05        33.4610   26.4160   62.7510 c3        1 LQQ     -0.087900
      7 C06        31.9980   24.4890   62.1100 ca        1 LQQ     -0.421400
      8 C07        32.0090   23.9960   63.4410 ca        1 LQQ      0.515200
      9 N01        31.3630   22.9110   63.8440 nb        1 LQQ     -0.752000
     10 C08        30.6170   22.2370   62.8600 ca        1 LQQ      0.911900
     11 N02        30.5450   22.6060   61.5420 nb        1 LQQ     -0.796000
     12 C09        31.2270   23.7390   61.1560 ca        1 LQQ      0.629200
     13 N03        31.1710   24.1580   59.8240 n         1 LQQ     -0.411300
     14 C10        30.3600   23.4260   58.8500 c3        1 LQQ      0.096700
     15 C11        29.2510   24.2620   58.1740 c3        1 LQQ     -0.091900
     16 C12        28.9790   23.5760   56.8430 c3        1 LQQ     -0.074400
     17 C13        30.1620   22.6640   56.5400 c3        1 LQQ     -0.074400
     18 C14        31.1570   22.8010   57.6840 c3        1 LQQ     -0.091900
     19 C15        31.9050   25.2960   59.4040 c         1 LQQ      0.720700
     20 O02        31.8640   25.6310   58.2040 o         1 LQQ     -0.628500
     21 N04        29.8320   21.1550   63.3130 nh        1 LQQ     -0.785600
     22 C16        29.3770   20.1760   62.3760 ca        1 LQQ      0.550200
     23 N05        29.8910   18.9090   62.4500 nb        1 LQQ     -0.665000
     24 C17        29.4070   17.9800   61.6260 ca        1 LQQ      0.361200
     25 C18        28.3820   18.2080   60.6520 ca        1 LQQ      0.043300
     26 C19        27.8860   19.5300   60.5780 ca        1 LQQ     -0.159000
     27 C20        28.3700   20.5110   61.4380 ca        1 LQQ     -0.163300
     28 N06        27.8480   17.1560   59.8850 nh        1 LQQ     -0.627000
     29 C21        28.6980   15.9870   59.7350 c3        1 LQQ      0.150800
     30 C22        28.0950   14.8670   58.8600 c3        1 LQQ      0.147300
     31 N07        27.4680   15.3080   57.6340 n3        1 LQQ     -0.795200
     32 C23        26.5270   16.3760   57.8880 c3        1 LQQ      0.147300
     33 C24        27.0750   17.5530   58.7210 c3        1 LQQ      0.150800
     34 H011       35.0140   26.1120   59.0190 hc        1 LQQ      0.073033
     35 H012       35.0280   27.8940   58.6350 hc        1 LQQ      0.073033
     36 H013       33.8080   26.7950   57.8450 hc        1 LQQ      0.073033
     37 H051       32.7590   26.7520   63.5560 hc        1 LQQ      0.065700
     38 H052       33.9610   27.3240   62.3320 hc        1 LQQ      0.065700
     39 H053       34.2430   25.7580   63.2070 hc        1 LQQ      0.065700
     40 H1         32.5900   24.5220   64.2240 h4        1 LQQ      0.035100
     41 H10        29.8420   22.5740   59.3830 h1        1 LQQ      0.091700
     42 H111       29.5830   25.3170   58.0020 hc        1 LQQ      0.058450
     43 H112       28.3380   24.2880   58.8180 hc        1 LQQ      0.058450
     44 H121       28.8480   24.3380   56.0340 hc        1 LQQ      0.041950
     45 H122       28.0330   22.9810   56.8970 hc        1 LQQ      0.041950
     46 H131       30.6430   22.9470   55.5710 hc        1 LQQ      0.041950
     47 H132       29.8200   21.6030   56.4460 hc        1 LQQ      0.041950
     48 H141       31.5760   21.8110   57.9860 hc        1 LQQ      0.058450
     49 H142       32.0080   23.4600   57.3750 hc        1 LQQ      0.058450
     50 H04        30.1300   20.7770   64.1950 hn        1 LQQ      0.450800
     51 H17        29.8730   16.9850   61.7530 h4        1 LQQ      0.026100
     52 H19        27.1090   19.8130   59.8520 ha        1 LQQ      0.143000
     53 H20        27.9780   21.5370   61.3780 ha        1 LQQ      0.160000
     54 H211       28.8620   15.5480   60.7600 h1        1 LQQ      0.044200
     55 H212       29.7050   16.2770   59.3140 h1        1 LQQ      0.044200
     56 H221       27.3140   14.3200   59.4610 h1        1 LQQ      0.064950
     57 H222       28.9190   14.1430   58.6140 h1        1 LQQ      0.064950
     58 H07        28.1650   15.6060   56.9740 hn        1 LQQ      0.354800
     59 H231       25.6450   15.9280   58.4280 h1        1 LQQ      0.064950
     60 H232       26.1640   16.7880   56.9070 h1        1 LQQ      0.064950
     61 H241       27.6850   18.2240   58.0470 h1        1 LQQ      0.044200
     62 H242       26.1860   18.1420   59.0860 h1        1 LQQ      0.044200
@<TRIPOS>BOND
     1    1    2 2   
     2    2    3 1   
     3    2    4 1   
     4    3   34 1   
     5    3   35 1   
     6    3   36 1   
     7    4    5 2   
     8    4   19 1   
     9    5    6 1   
    10    5    7 1   
    11    6   37 1   
    12    6   38 1   
    13    6   39 1   
    14    7    8 ar  
    15    7   12 ar  
    16    8    9 ar  
    17    8   40 1   
    18    9   10 ar  
    19   10   11 ar  
    20   10   21 1   
    21   11   12 ar  
    22   12   13 1   
    23   13   14 1   
    24   13   19 1   
    25   14   15 1   
    26   14   18 1   
    27   14   41 1   
    28   15   16 1   
    29   15   42 1   
    30   15   43 1   
    31   16   17 1   
    32   16   44 1   
    33   16   45 1   
    34   17   18 1   
    35   17   46 1   
    36   17   47 1   
    37   18   48 1   
    38   18   49 1   
    39   19   20 2   
    40   21   22 1   
    41   21   50 1   
    42   22   23 ar  
    43   22   27 ar  
    44   23   24 ar  
    45   24   25 ar  
    46   24   51 1   
    47   25   26 ar  
    48   25   28 1   
    49   26   27 ar  
    50   26   52 1   
    51   27   53 1   
    52   28   29 1   
    53   28   33 1   
    54   29   30 1   
    55   29   54 1   
    56   29   55 1   
    57   30   31 1   
    58   30   56 1   
    59   30   57 1   
    60   31   32 1   
    61   31   58 1   
    62   32   33 1   
    63   32   59 1   
    64   32   60 1   
    65   33   61 1   
    66   33   62 1   
@<TRIPOS>SUBSTRUCTURE
     1 LQQ         1 TEMP              0 ****  ****    0 ROOT
