@<TRIPOS>MOLECULE
LQT
   51    51     1     0     0
SMALL
bcc


@<TRIPOS>ATOM
      1 N01        -0.4010   -1.6360    0.6450 n4        1 LQT     -0.748400
      2 C02         1.1000   -1.5920    0.7030 c         1 LQT      0.548700
      3 C03         1.7600   -0.4200    1.3180 ca        1 LQT     -0.116600
      4 C04         1.0920    0.6840    1.8440 ca        1 LQT     -0.154300
      5 C05         1.8680    1.7360    2.4010 ca        1 LQT      0.463200
      6 N06         3.2050    1.7200    2.4470 nb        1 LQT     -0.673000
      7 C07         3.8480    0.6390    1.9320 ca        1 LQT      0.331600
      8 C08         5.3630    0.5770    1.9680 c3        1 LQT      0.080500
      9 N09         6.0120    1.8080    2.5570 n4        1 LQT     -0.757000
     10 C10         7.4990    1.6850    2.5680 c3        1 LQT      0.036800
     11 C11         8.2000    2.9500    3.0720 c         1 LQT      0.515100
     12 N12         9.6950    2.9020    3.2590 n4        1 LQT     -0.584200
     13 C13        10.3960    2.1920    2.1090 c3        1 LQT      0.114800
     14 C14        10.2640    2.8770    0.7720 c3        1 LQT     -0.150100
     15 C15        10.2990    4.2690    3.4590 c3        1 LQT      0.083800
     16 C16        10.2340    4.7760    4.9190 c3        1 LQT      0.077800
     17 N17        10.9560    6.0700    5.1310 n4        1 LQT     -0.674400
     18 C18        10.4840    6.7170    6.3990 c3        1 LQT      0.073600
     19 C19        12.4370    5.8910    5.1770 c3        1 LQT      0.073600
     20 O20         7.6150    3.9900    3.3400 o         1 LQT     -0.386100
     21 C21         3.1740   -0.4520    1.3580 ca        1 LQT     -0.135300
     22 O22         1.6690   -2.5600    0.2220 o         1 LQT     -0.353100
     23 HN01       -0.7680   -0.8500    0.0940 hn        1 LQT      0.492133
     24 HN0A       -0.8040   -1.6020    1.5900 hn        1 LQT      0.492133
     25 H04        -0.0050    0.7910    1.8530 ha        1 LQT      0.185000
     26 H05         1.3720    2.6350    2.8300 h4        1 LQT      0.094100
     27 H08         5.6750   -0.3120    2.5940 hx        1 LQT      0.132700
     28 H08A        5.7470    0.4530    0.9120 hx        1 LQT      0.132700
     29 HN09        5.6560    1.9470    3.5180 hn        1 LQT      0.490800
     30 H10         7.8470    1.4800    1.5050 hx        1 LQT      0.165200
     31 H10A        7.7810    0.8010    3.2190 hx        1 LQT      0.165200
     32 H13         9.9820    1.1430    2.0730 hx        1 LQT      0.126700
     33 H13A       11.4920    2.1150    2.3940 hx        1 LQT      0.126700
     34 H14         9.2020    2.9710    0.4420 hc        1 LQT      0.100367
     35 H14A       10.8110    2.2500    0.0100 hc        1 LQT      0.100367
     36 H14B       10.7390    3.8900    0.7610 hc        1 LQT      0.100367
     37 H15        11.3810    4.2010    3.1270 hx        1 LQT      0.141700
     38 H15A        9.7640    4.9910    2.7730 hx        1 LQT      0.141700
     39 H16        10.6870    4.0200    5.6260 hx        1 LQT      0.125700
     40 H16A        9.1510    4.9370    5.2040 hx        1 LQT      0.125700
     41 H18         9.3840    6.9360    6.3270 hx        1 LQT      0.128200
     42 H18A       11.0470    7.6850    6.5390 hx        1 LQT      0.128200
     43 H18B       10.6910    6.0410    7.2710 hx        1 LQT      0.128200
     44 H19        12.7990    5.4290    4.2210 hx        1 LQT      0.128200
     45 H19A       12.7200    5.2450    6.0540 hx        1 LQT      0.128200
     46 H19B       12.9230    6.9030    5.3030 hx        1 LQT      0.128200
     47 H21         3.7200   -1.3200    0.9450 ha        1 LQT      0.199000
     48 H013       -0.7010   -2.5200    0.1930 hn        1 LQT      0.492133
     49 H092        5.7260    2.6360    2.0060 hn        1 LQT      0.490800
     50 H121        9.8720    2.3430    4.1110 hn        1 LQT      0.477800
     51 H171       10.7320    6.7090    4.3520 hn        1 LQT      0.464800
@<TRIPOS>BOND
     1    1    2 1   
     2    1   23 1   
     3    1   24 1   
     4    1   48 1   
     5    2    3 1   
     6    2   22 2   
     7    3    4 ar  
     8    3   21 ar  
     9    4    5 ar  
    10    4   25 1   
    11    5    6 ar  
    12    5   26 1   
    13    6    7 ar  
    14    7    8 1   
    15    7   21 ar  
    16    8    9 1   
    17    8   27 1   
    18    8   28 1   
    19    9   10 1   
    20    9   29 1   
    21    9   49 1   
    22   10   11 1   
    23   10   30 1   
    24   10   31 1   
    25   11   12 1   
    26   11   20 2   
    27   12   13 1   
    28   12   15 1   
    29   12   50 1   
    30   13   14 1   
    31   13   32 1   
    32   13   33 1   
    33   14   34 1   
    34   14   35 1   
    35   14   36 1   
    36   15   16 1   
    37   15   37 1   
    38   15   38 1   
    39   16   17 1   
    40   16   39 1   
    41   16   40 1   
    42   17   18 1   
    43   17   19 1   
    44   17   51 1   
    45   18   41 1   
    46   18   42 1   
    47   18   43 1   
    48   19   44 1   
    49   19   45 1   
    50   19   46 1   
    51   21   47 1   
@<TRIPOS>SUBSTRUCTURE
     1 LQT         1 TEMP              0 ****  ****    0 ROOT
