@<TRIPOS>MOLECULE
LQT
   51    51     1     0     0
SMALL
bcc


@<TRIPOS>ATOM
      1 N01        -0.3810   -1.6600    0.6140 nz        1 LQT     -0.748400
      2 C02         1.1210   -1.6050    0.6650 c         1 LQT      0.548700
      3 C03         1.7740   -0.4380    1.2980 ca        1 LQT     -0.116600
      4 C04         1.1000    0.6490    1.8490 ca        1 LQT     -0.154300
      5 C05         1.8710    1.6970    2.4200 ca        1 LQT      0.463200
      6 N06         3.2080    1.6930    2.4570 nb        1 LQT     -0.673000
      7 C07         3.8570    0.6280    1.9170 ca        1 LQT      0.331600
      8 C08         5.3730    0.5790    1.9420 c3        1 LQT      0.080500
      9 N09         6.0140    1.8030    2.5510 ny        1 LQT     -0.757000
     10 C10         7.5020    1.6940    2.5490 c3        1 LQT      0.036800
     11 C11         8.1950    2.9540    3.0750 c         1 LQT      0.515100
     12 N12         9.6930    2.9160    3.2500 nx        1 LQT     -0.584200
     13 C13        10.3920    2.2380    2.0800 c3        1 LQT      0.114800
     14 C14        10.2430    2.9500    0.7590 c3        1 LQT     -0.150100
     15 C15        10.2860    4.2840    3.4760 c3        1 LQT      0.083800
     16 C16        10.2260    4.7590    4.9460 c3        1 LQT      0.077800
     17 N17        10.9380    6.0550    5.1820 nx        1 LQT     -0.674400
     18 C18        10.4690    6.6700    6.4660 c3        1 LQT      0.073600
     19 C19        12.4210    5.8880    5.2140 c3        1 LQT      0.073600
     20 O20         7.6040    3.9830    3.3700 o         1 LQT     -0.386100
     21 C21         3.1890   -0.4580    1.3270 ca        1 LQT     -0.135300
     22 O22         1.6950   -2.5590    0.1630 o         1 LQT     -0.353100
     23 HN01       -0.7570   -0.8670    0.0800 hn        1 LQT      0.492133
     24 HN0A       -0.6750   -2.5380    0.1470 hn        1 LQT      0.492133
     25 H04         0.0020    0.7460    1.8670 ha        1 LQT      0.185000
     26 H05         1.3690    2.5840    2.8700 h4        1 LQT      0.094100
     27 H08         5.6970   -0.3210    2.5460 hx        1 LQT      0.132700
     28 H08A        5.7500    0.4800    0.8800 hx        1 LQT      0.132700
     29 HN09        5.7170    2.6390    2.0200 hn        1 LQT      0.490800
     30 H10         7.8450    1.5140    1.4800 hx        1 LQT      0.165200
     31 H10A        7.7980    0.7980    3.1800 hx        1 LQT      0.165200
     32 H13        11.4900    2.1650    2.3560 hx        1 LQT      0.126700
     33 H13A        9.9870    1.1860    2.0250 hx        1 LQT      0.126700
     34 H14        10.7090    3.9670    0.7670 hc        1 LQT      0.100367
     35 H14A        9.1780    3.0410    0.4390 hc        1 LQT      0.100367
     36 H14B       10.7910    2.3440   -0.0190 hc        1 LQT      0.100367
     37 H15        11.3660    4.2340    3.1350 hx        1 LQT      0.141700
     38 H15A        9.7390    5.0160    2.8090 hx        1 LQT      0.141700
     39 H16         9.1430    4.9040    5.2420 hx        1 LQT      0.125700
     40 H16A       10.6910    3.9920    5.6340 hx        1 LQT      0.125700
     41 H18        11.0240    7.6400    6.6230 hx        1 LQT      0.128200
     42 H18A       10.6890    5.9770    7.3230 hx        1 LQT      0.128200
     43 H18B        9.3670    6.8800    6.4060 hx        1 LQT      0.128200
     44 H19        12.7160    5.2270    6.0750 hx        1 LQT      0.128200
     45 H19A       12.7800    5.4510    4.2460 hx        1 LQT      0.128200
     46 H19B       12.8990    6.9010    5.3590 hx        1 LQT      0.128200
     47 H21         3.7390   -1.3130    0.8940 ha        1 LQT      0.199000
     48 H013       -0.7780   -1.6480    1.5620 hn        1 LQT      0.492133
     49 H092        5.6650    1.9190    3.5170 hn        1 LQT      0.490800
     50 H121        9.8810    2.3410    4.0890 hn        1 LQT      0.477800
     51 H171       10.7030    6.7080    4.4180 hn        1 LQT      0.464800
@<TRIPOS>BOND
     1    1    2 1   
     2    1   23 1   
     3    1   24 1   
     4    1   48 1   
     5    2    3 1   
     6    2   22 2   
     7    3    4 ar  
     8    3   21 ar  
     9    4    5 ar  
    10    4   25 1   
    11    5    6 ar  
    12    5   26 1   
    13    6    7 ar  
    14    7    8 1   
    15    7   21 ar  
    16    8    9 1   
    17    8   27 1   
    18    8   28 1   
    19    9   10 1   
    20    9   29 1   
    21    9   49 1   
    22   10   11 1   
    23   10   30 1   
    24   10   31 1   
    25   11   12 1   
    26   11   20 2   
    27   12   13 1   
    28   12   15 1   
    29   12   50 1   
    30   13   14 1   
    31   13   32 1   
    32   13   33 1   
    33   14   34 1   
    34   14   35 1   
    35   14   36 1   
    36   15   16 1   
    37   15   37 1   
    38   15   38 1   
    39   16   17 1   
    40   16   39 1   
    41   16   40 1   
    42   17   18 1   
    43   17   19 1   
    44   17   51 1   
    45   18   41 1   
    46   18   42 1   
    47   18   43 1   
    48   19   44 1   
    49   19   45 1   
    50   19   46 1   
    51   21   47 1   
@<TRIPOS>SUBSTRUCTURE
     1 LQT         1 TEMP              0 ****  ****    0 ROOT
