@<TRIPOS>MOLECULE
LQZ
   40    38     1     0     0
SMALL
bcc


@<TRIPOS>ATOM
      1 C           1.1110    1.1800   -0.9810 c1        1 LQZ      0.715500
      2 N           0.7330    0.4240    1.4780 n7        1 LQZ     -0.886200
      3 O           2.0530    1.8080   -0.6780 o         1 LQZ     -0.196500
      4 CA         -0.3430   -0.5130    1.7170 c3        1 LQZ      0.104100
      5 CAA         1.0470    1.5280    3.7320 c3        1 LQZ     -0.132100
      6 CAB        -0.9700   -2.4470    4.7110 c2        1 LQZ     -0.225500
      7 CAF         0.5430   -0.7440   -5.4030 ce        1 LQZ     -0.132100
      8 CAG         0.6660   -1.4530   -4.2930 c1        1 LQZ      0.044200
      9 CAH         0.6960    0.6920   -5.0890 ce        1 LQZ     -0.064000
     10 CAI         0.6450    1.6430    2.2720 c3        1 LQZ      0.138800
     11 CAJ        -0.6630   -1.3070    5.3160 c2        1 LQZ     -0.225500
     12 NAL         0.0110    0.6170   -1.3980 n7        1 LQZ     -0.234400
     13 CAN         0.6390   -1.1960   -2.9920 c2        1 LQZ     -0.207500
     14 CAO         0.3240    1.1200   -3.8570 c2        1 LQZ     -0.181400
     15 CAP        -0.1280    0.1160   -2.7740 c3        1 LQZ      0.104400
     16 HA         -1.3230   -0.0300    1.4600 h1        1 LQZ      0.052367
     17 HAA        -0.1910   -1.4130    1.0630 h1        1 LQZ      0.052367
     18 HAAA        0.4070    0.7850    4.2700 hc        1 LQZ      0.056700
     19 HAAB        2.1140    1.2130    3.8310 hc        1 LQZ      0.056700
     20 HAAC        0.9260    2.5220    4.2250 hc        1 LQZ      0.056700
     21 HAB         0.3180   -1.1250    5.7770 ha        1 LQZ      0.113750
     22 HABA       -0.2630   -3.2840    4.6290 ha        1 LQZ      0.113750
     23 HABB       -1.9590   -2.6400    4.2740 ha        1 LQZ      0.113750
     24 HAC         2.0960   -1.2950   -1.4220 hc        1 LQZ      0.059700
     25 HACA        0.5780   -2.2580   -1.1370 hc        1 LQZ      0.059700
     26 HACB        1.8190   -2.8400   -2.3230 hc        1 LQZ      0.059700
     27 HAD         0.9830    2.8890   -2.8210 hc        1 LQZ      0.059700
     28 HADA       -0.8130    2.7810   -3.1050 hc        1 LQZ      0.059700
     29 HADB        0.3080    3.1800   -4.4690 hc        1 LQZ      0.059700
     30 HAF         0.9900    1.3810   -5.8940 ha        1 LQZ      0.177000
     31 HAG        -1.2490   -0.0240   -2.8970 h1        1 LQZ      0.127700
     32 HAH         0.2590   -1.0750   -6.4070 ha        1 LQZ      0.196000
     33 HAI         1.3200    2.3960    1.7690 h1        1 LQZ      0.053700
     34 HAIA       -0.4100    2.0330    2.2140 h1        1 LQZ      0.053700
     35 HAJ         1.6140   -0.0260    1.6700 hn        1 LQZ      0.373800
     36 HAJA       -1.3780   -0.4790    5.4200 ha        1 LQZ      0.113750
     37 HNAL       -0.5910    0.1960   -0.6970 hn        1 LQZ      0.376700
     38 CAD         0.1930    2.5590   -3.5440 c3        1 LQZ     -0.069900
     39 H          -0.4060   -0.8650    2.7870 h1        1 LQZ      0.052367
     40 CAC         1.3130   -1.9270   -1.9140 c3        1 LQZ     -0.051900
@<TRIPOS>BOND
     1    1    3 2   
     2    1   12 2   
     3    2    4 1   
     4    2   10 1   
     5    2   35 1   
     6    4   16 1   
     7    4   17 1   
     8    4   39 1   
     9    5   10 1   
    10    5   18 1   
    11    5   19 1   
    12    5   20 1   
    13    6   11 2   
    14    6   22 1   
    15    6   23 1   
    16    7    8 2   
    17    7    9 1   
    18    7   32 1   
    19    8   13 2   
    20    9   14 2   
    21    9   30 1   
    22   10   33 1   
    23   10   34 1   
    24   11   21 1   
    25   11   36 1   
    26   12   15 1   
    27   12   37 1   
    28   13   15 1   
    29   13   40 1   
    30   14   15 1   
    31   14   38 1   
    32   15   31 1   
    33   24   40 1   
    34   25   40 1   
    35   26   40 1   
    36   27   38 1   
    37   28   38 1   
    38   29   38 1   
@<TRIPOS>SUBSTRUCTURE
     1 LQZ         1 TEMP              0 ****  ****    0 ROOT
