@<TRIPOS>MOLECULE
LQZ
   39    39     1     0     0
SMALL
bcc


@<TRIPOS>ATOM
      1 C           0.4590    0.9030   -1.0800 c         1 LQZ      0.658100
      2 N           2.7090    0.4400   -0.0450 n3        1 LQZ     -0.744600
      3 O          -0.0590    1.1270   -2.1900 o         1 LQZ     -0.602100
      4 CA          1.9070    1.3600   -0.8340 c3        1 LQZ      0.090800
      5 CAA         3.3600   -1.9670    0.1410 c3        1 LQZ     -0.095100
      6 CAB         3.6760    2.0890    1.5690 c3        1 LQZ     -0.095100
      7 CAF        -4.2600   -0.8860    0.0510 ca        1 LQZ     -0.132000
      8 CAG        -3.4180   -1.3860   -0.9360 ca        1 LQZ     -0.125500
      9 CAH        -3.7620   -0.0010    1.0030 ca        1 LQZ     -0.125500
     10 CAI         2.9750   -0.8050   -0.7610 c3        1 LQZ      0.166300
     11 CAJ         3.9210    1.0620    0.4760 c3        1 LQZ      0.166300
     12 NAL        -0.2070    0.2960   -0.0360 n         1 LQZ     -0.469100
     13 CAN        -2.0700   -1.0120   -0.9930 ca        1 LQZ     -0.077800
     14 CAO        -2.4270    0.4050    0.9710 ca        1 LQZ     -0.077800
     15 CAP        -1.5650   -0.0940   -0.0410 ca        1 LQZ      0.047600
     16 HA          2.3530    1.5540   -1.8540 h1        1 LQZ      0.065200
     17 HAA         1.8430    2.3460   -0.2910 h1        1 LQZ      0.065200
     18 HAAA        2.6180   -2.1040    0.9630 hc        1 LQZ      0.039700
     19 HAAB        3.3870   -2.8990   -0.4750 hc        1 LQZ      0.039700
     20 HAAC        4.3680   -1.8190    0.5960 hc        1 LQZ      0.039700
     21 HAB         3.1950    3.0130    1.1670 hc        1 LQZ      0.039700
     22 HABA        3.0260    1.6740    2.3760 hc        1 LQZ      0.039700
     23 HABB        4.6600    2.3740    2.0150 hc        1 LQZ      0.039700
     24 HAC        -1.0070   -0.8110   -2.8400 hc        1 LQZ      0.047533
     25 HACA       -0.2340   -1.9310   -1.6410 hc        1 LQZ      0.047533
     26 HACB       -1.7120   -2.4600   -2.5450 hc        1 LQZ      0.047533
     27 HAD        -1.1470    0.8620    2.6360 hc        1 LQZ      0.047533
     28 HADA       -1.4810    2.2550    1.5220 hc        1 LQZ      0.047533
     29 HADB       -2.7580    1.6860    2.6710 hc        1 LQZ      0.047533
     30 HAF        -5.3160   -1.1910    0.0820 ha        1 LQZ      0.132000
     31 HAG        -3.8110   -2.0900   -1.6850 ha        1 LQZ      0.132000
     32 HAH        -4.4280    0.3900    1.7870 ha        1 LQZ      0.132000
     33 HAI         2.0320   -1.0900   -1.3120 h1        1 LQZ      0.036450
     34 HAIA        3.7870   -0.6650   -1.5350 h1        1 LQZ      0.036450
     35 HAJ         4.5610    0.2410    0.9080 h1        1 LQZ      0.036450
     36 HAJA        4.5170    1.5520   -0.3510 h1        1 LQZ      0.036450
     37 HNAL        0.2420    0.2670    0.8530 hn        1 LQZ      0.330500
     38 CAC        -1.2140   -1.5870   -2.0570 c3        1 LQZ     -0.057300
     39 CAD        -1.9290    1.3490    2.0000 c3        1 LQZ     -0.057300
@<TRIPOS>BOND
     1    1    3 2   
     2    1    4 1   
     3    1   12 1   
     4    2    4 1   
     5    2   10 1   
     6    2   11 1   
     7    4   16 1   
     8    4   17 1   
     9    5   10 1   
    10    5   18 1   
    11    5   19 1   
    12    5   20 1   
    13    6   11 1   
    14    6   21 1   
    15    6   22 1   
    16    6   23 1   
    17    7    8 ar  
    18    7    9 ar  
    19    7   30 1   
    20    8   13 ar  
    21    8   31 1   
    22    9   14 ar  
    23    9   32 1   
    24   10   33 1   
    25   10   34 1   
    26   11   35 1   
    27   11   36 1   
    28   12   15 1   
    29   12   37 1   
    30   13   15 ar  
    31   13   38 1   
    32   14   15 ar  
    33   14   39 1   
    34   24   38 1   
    35   25   38 1   
    36   26   38 1   
    37   27   39 1   
    38   28   39 1   
    39   29   39 1   
@<TRIPOS>SUBSTRUCTURE
     1 LQZ         1 TEMP              0 ****  ****    0 ROOT
