@<TRIPOS>MOLECULE
LQZ
   40    38     1     0     0
SMALL
bcc


@<TRIPOS>ATOM
      1 C           0.5330    0.0060    0.0960 c2        1 LQZ      0.346000
      2 N          -0.0300   -0.1530    1.3270 n3        1 LQZ     -0.222000
      3 O           1.7970    0.5360   -0.0510 os        1 LQZ     -0.199000
      4 CA         -1.3630   -0.7000    1.4590 c3        1 LQZ     -0.134500
      5 CAA         2.8780   -0.1010    0.6560 c3        1 LQZ     -0.080000
      6 CAB        -1.6310    0.1140    4.8030 c1        1 LQZ     -0.116000
      7 CAF         2.1490   -0.0800   -5.3310 c1        1 LQZ     -0.021000
      8 CAG         1.8230   -0.4680   -4.2390 c1        1 LQZ     -0.222000
      9 CAH         0.0760    1.0950   -4.5620 c1        1 LQZ     -0.017000
     10 CAI         0.6510    0.2840    2.5250 c3        1 LQZ     -0.134500
     11 CAJ        -1.3110    0.8560    5.9890 c3        1 LQZ     -0.305000
     12 NAL        -0.0950   -0.2950   -1.0810 n3        1 LQZ     -0.213000
     13 CAN         1.3910   -0.8300   -2.9470 c2        1 LQZ      0.082000
     14 CAO         0.0140    1.2350   -3.0850 c3        1 LQZ     -0.158000
     15 CAP         0.4620   -0.0160   -2.3590 c2        1 LQZ     -0.063000
     16 HA         -2.1120   -0.0350    0.9490 h1        1 LQZ      0.129333
     17 HAA        -1.4070   -1.7300    1.0140 h1        1 LQZ      0.129333
     18 HAAA        3.0750    0.4790    1.5910 h1        1 LQZ      0.118333
     19 HAAB        1.4170   -0.4800    2.8260 h1        1 LQZ      0.129333
     20 HAAC        3.7360    0.0020   -0.0610 h1        1 LQZ      0.118333
     21 HAB        -1.8460    0.5600    6.9260 hc        1 LQZ      0.129667
     22 HABA       -0.2040    0.8290    6.1800 hc        1 LQZ      0.129667
     23 HABB       -2.5380   -0.5090    4.8240 ha        1 LQZ      0.060000
     24 HAC         2.3310   -1.8330   -1.3000 hc        1 LQZ      0.101333
     25 HACA        1.1730   -2.8490   -2.2680 hc        1 LQZ      0.101333
     26 HACB        2.8100   -2.4490   -2.9380 hc        1 LQZ      0.101333
     27 HAD        -1.4380    2.0770   -1.6920 hc        1 LQZ      0.093000
     28 HADA       -2.1300    0.8640   -2.8600 hc        1 LQZ      0.093000
     29 HADB       -1.6930    2.5320   -3.4200 hc        1 LQZ      0.093000
     30 HAF        -0.5280    0.2610   -4.9620 ha        1 LQZ      0.038000
     31 HAG         0.7380    2.0510   -2.7760 hc        1 LQZ      0.141000
     32 HAH         2.4410    0.2530   -6.3010 ha        1 LQZ      0.256000
     33 HAI         1.1480    1.2740    2.3490 h1        1 LQZ      0.129333
     34 HAIA       -0.1090    0.3900    3.3690 h1        1 LQZ      0.129333
     35 HAJ        -1.5720    1.9330    5.7630 hc        1 LQZ      0.129667
     36 HAJA        2.6660   -1.1720    0.8740 h1        1 LQZ      0.118333
     37 HNAL       -1.0910   -0.4170   -1.0780 hn        1 LQZ      0.270000
     38 CAD        -1.3940    1.6950   -2.7390 c3        1 LQZ     -0.219000
     39 H          -1.6310   -0.7610    2.5540 h1        1 LQZ      0.129333
     40 CAC         1.9570   -2.0520   -2.3330 c3        1 LQZ     -0.189000
@<TRIPOS>BOND
     1    1    2 1   
     2    1    3 1   
     3    1   12 1   
     4    2    4 1   
     5    2   10 1   
     6    3    5 1   
     7    4   16 1   
     8    4   17 1   
     9    4   39 1   
    10    5   18 1   
    11    5   20 1   
    12    5   36 1   
    13    6   11 1   
    14    6   23 1   
    15    7    8 1   
    16    7   32 1   
    17    8   13 1   
    18    9   14 1   
    19    9   30 1   
    20   10   19 1   
    21   10   33 1   
    22   10   34 1   
    23   11   21 1   
    24   11   22 1   
    25   11   35 1   
    26   12   15 1   
    27   12   37 1   
    28   13   15 1   
    29   13   40 1   
    30   14   15 1   
    31   14   31 1   
    32   14   38 1   
    33   24   40 1   
    34   25   40 1   
    35   26   40 1   
    36   27   38 1   
    37   28   38 1   
    38   29   38 1   
@<TRIPOS>SUBSTRUCTURE
     1 LQZ         1 TEMP              0 ****  ****    0 ROOT
