@<TRIPOS>MOLECULE
LQZ
   41    39     1     0     0
SMALL
bcc


@<TRIPOS>ATOM
      1 C         -85.3640   55.1090 -201.4930 c2        1 LQZ      0.290000
      2 N         -85.9930   56.3040 -201.3040 n         1 LQZ     -0.312000
      3 O         -84.5600   54.9040 -202.4360 o         1 LQZ     -0.502000
      4 CA        -86.9100   56.4990 -200.2110 c3        1 LQZ     -0.089000
      5 CAA       258.3360 -167.6790  631.2850 c3        1 LQZ     -0.335000
      6 CAB       259.2480 -168.6780  630.8000 c2        1 LQZ      0.305000
      7 CAF       -81.0420   53.3430 -207.5570 c3        1 LQZ     -0.237000
      8 CAG       -80.3510   52.5700 -206.5050 c2        1 LQZ     -0.012000
      9 CAH       -82.1240   54.2040 -207.1270 c1        1 LQZ     -0.001000
     10 CAI       -85.7810   57.4330 -202.1710 c3        1 LQZ     -0.089000
     11 CAJ       260.2890 -169.2660  631.5960 c3        1 LQZ     -0.335000
     12 NAL       -82.4720   53.0990 -203.5880 n3        1 LQZ     -0.226000
     13 CAN       -80.7550   52.5410 -205.2120 c2        1 LQZ     -0.199000
     14 CAO       -82.5200   54.2450 -205.7540 c2        1 LQZ     -0.260000
     15 CAP       -81.9380   53.2960 -204.7850 c2        1 LQZ      0.256000
     16 HA        -87.9220   56.7810 -200.6120 h1        1 LQZ      0.095333
     17 HAA       -87.0090   55.5650 -199.5990 h1        1 LQZ      0.095333
     18 HAAA      -85.3790   58.2980 -201.5780 h1        1 LQZ      0.095333
     19 HAAB      258.4970 -167.3820  632.3550 hc        1 LQZ      0.197667
     20 HAAC      258.3930 -166.7500  630.6350 hc        1 LQZ      0.197667
     21 HAB       261.2970 -169.1110  631.0970 hc        1 LQZ      0.197667
     22 HABA      260.1680 -170.3950  631.6230 hc        1 LQZ      0.197667
     23 HABB      259.1410 -169.0170  629.7430 ha        1 LQZ      0.182000
     24 HAC       -80.6380   50.8860 -203.8360 hc        1 LQZ      0.105000
     25 HACA      -79.7200   52.3770 -203.3270 hc        1 LQZ      0.105000
     26 HACB      -79.0790   51.3160 -204.6410 hc        1 LQZ      0.105000
     27 HAD       -83.7950   55.3940 -204.3920 ha        1 LQZ      0.174000
     28 HADA      -82.0680   52.4440 -202.9470 hn        1 LQZ      0.282500
     29 HADB      -83.8280   55.8700 -206.2030 ha        1 LQZ      0.174000
     30 HAF       -80.2950   53.9910 -208.1160 hc        1 LQZ      0.196000
     31 HAG       -79.4590   51.9960 -206.8190 ha        1 LQZ      0.167000
     32 HAH       -81.4570   52.6420 -208.3490 hc        1 LQZ      0.196000
     33 HAI       -85.0480   57.1660 -202.9770 h1        1 LQZ      0.095333
     34 HAIA      -86.7540   57.7390 -202.6430 h1        1 LQZ      0.095333
     35 HAJ       260.3430 -168.8830  632.6490 hc        1 LQZ      0.197667
     36 HAJA      257.2650 -168.0350  631.1600 hc        1 LQZ      0.197667
     37 HNAL      -83.2810   53.6070 -203.2720 hn        1 LQZ      0.282500
     38 CAD       -83.4270   55.2030 -205.4160 c2        1 LQZ      0.078000
     39 H         -86.5400   57.3300 -199.5510 h1        1 LQZ      0.095333
     40 HAL2      -85.6090   54.3130 -200.7510 h5        1 LQZ      0.141000
     41 CAC       -80.0170   51.7430 -204.2010 c3        1 LQZ     -0.200000
@<TRIPOS>BOND
     1    1    2 1   
     2    1    3 1   
     3    1   40 1   
     4    2    4 1   
     5    2   10 1   
     6    4   16 1   
     7    4   17 1   
     8    4   39 1   
     9    5    6 1   
    10    5   19 1   
    11    5   20 1   
    12    5   36 1   
    13    6   11 1   
    14    6   23 1   
    15    7    8 1   
    16    7    9 1   
    17    7   30 1   
    18    7   32 1   
    19    8   13 1   
    20    8   31 1   
    21    9   14 1   
    22   10   18 1   
    23   10   33 1   
    24   10   34 1   
    25   11   21 1   
    26   11   22 1   
    27   11   35 1   
    28   12   15 1   
    29   12   28 1   
    30   12   37 1   
    31   13   15 1   
    32   13   41 1   
    33   14   15 1   
    34   14   38 1   
    35   24   41 1   
    36   25   41 1   
    37   26   41 1   
    38   27   38 1   
    39   29   38 1   
@<TRIPOS>SUBSTRUCTURE
     1 LQZ         1 TEMP              0 ****  ****    0 ROOT
