@<TRIPOS>MOLECULE
LR1
   38    39     1     0     0
SMALL
bcc


@<TRIPOS>ATOM
      1 CAH         0.1230    0.0950    0.0420 ca        1 LR1     -0.100000
      2 CAF         1.5060    0.2570    0.0920 ca        1 LR1     -0.098500
      3 CAM         2.1480    0.4400    1.3230 ca        1 LR1      0.008100
      4 BR          4.0000    0.6540    1.3910 br        1 LR1     -0.019100
      5 CAG         1.3930    0.4660    2.5030 ca        1 LR1     -0.098500
      6 CAI         0.0110    0.3040    2.4520 ca        1 LR1     -0.100000
      7 CAN        -0.6290    0.1150    1.2210 ca        1 LR1     -0.184300
      8 CAK        -2.1110   -0.0150    1.1620 c3        1 LR1      0.169100
      9 NAL        -2.5240   -1.4540    1.3180 n4        1 LR1     -0.754000
     10 CAS        -3.9950   -1.6470    1.1620 c3        1 LR1      0.106500
     11 CAQ        -4.4600   -1.6310   -0.3190 c3        1 LR1      0.134100
     12 OAD        -4.4660   -0.2850   -0.7370 oh        1 LR1     -0.612800
     13 CAO        -5.8610   -2.2750   -0.2710 c3        1 LR1      0.109100
     14 OAB        -5.9960   -3.0230   -1.4600 oh        1 LR1     -0.592800
     15 CAP        -5.8770   -3.1900    0.9790 c3        1 LR1      0.124100
     16 OAC        -6.9730   -2.7790    1.7670 oh        1 LR1     -0.588800
     17 CAR        -4.5480   -2.9610    1.7420 c3        1 LR1     -0.124700
     18 CAJ        -3.6190   -4.1600    1.5690 c3        1 LR1      0.127400
     19 OAA        -4.3150   -5.2720    2.1000 oh        1 LR1     -0.586800
     20 HAH        -0.3730   -0.0280   -0.9340 ha        1 LR1      0.144500
     21 HAF         2.0890    0.2470   -0.8450 ha        1 LR1      0.171000
     22 HAG         1.8870    0.6220    3.4770 ha        1 LR1      0.171000
     23 HAI        -0.5740    0.3470    3.3840 ha        1 LR1      0.144500
     24 HAK1       -2.6030    0.5720    1.9910 hx        1 LR1      0.122700
     25 HAK2       -2.5200    0.3520    0.1720 hx        1 LR1      0.122700
     26 HAL        -2.2410   -1.7830    2.2480 hn        1 LR1      0.446300
     27 HAS        -4.5000   -0.7810    1.6930 hx        1 LR1      0.134700
     28 HAQ        -3.7830   -2.2350   -0.9860 h1        1 LR1      0.076700
     29 HAR        -4.7710   -2.8330    2.8370 hc        1 LR1      0.105700
     30 HAD        -5.0060   -0.2310   -1.5400 ho        1 LR1      0.452000
     31 HAO        -6.6630   -1.4900   -0.1900 h1        1 LR1      0.096700
     32 HAB        -6.9170   -3.3120   -1.5160 ho        1 LR1      0.437000
     33 HAP        -5.9710   -4.2710    0.6830 h1        1 LR1      0.095700
     34 HAC        -7.1850   -3.5040    2.3710 ho        1 LR1      0.432000
     35 HAJ1       -2.6610   -4.0170    2.1410 h1        1 LR1      0.025200
     36 HAJ2       -3.3810   -4.3250    0.4840 h1        1 LR1      0.025200
     37 HAA        -3.7710   -6.0540    1.9350 ho        1 LR1      0.431000
     38 HAL2       -2.0280   -2.0190    0.6200 hn        1 LR1      0.446300
@<TRIPOS>BOND
     1    1    2 ar  
     2    1    7 ar  
     3    1   20 1   
     4    2    3 ar  
     5    2   21 1   
     6    3    4 1   
     7    3    5 ar  
     8    5    6 ar  
     9    5   22 1   
    10    6    7 ar  
    11    6   23 1   
    12    7    8 1   
    13    8    9 1   
    14    8   24 1   
    15    8   25 1   
    16    9   10 1   
    17    9   26 1   
    18    9   38 1   
    19   10   11 1   
    20   10   17 1   
    21   10   27 1   
    22   11   12 1   
    23   11   13 1   
    24   11   28 1   
    25   12   30 1   
    26   13   14 1   
    27   13   15 1   
    28   13   31 1   
    29   14   32 1   
    30   15   16 1   
    31   15   17 1   
    32   15   33 1   
    33   16   34 1   
    34   17   18 1   
    35   17   29 1   
    36   18   19 1   
    37   18   35 1   
    38   18   36 1   
    39   19   37 1   
@<TRIPOS>SUBSTRUCTURE
     1 LR1         1 TEMP              0 ****  ****    0 ROOT
