@<TRIPOS>MOLECULE
LR1
   38    39     1     0     0
SMALL
bcc


@<TRIPOS>ATOM
      1 CAH         0.1210    0.0990    0.0460 ca        1 LR1     -0.100000
      2 CAF         1.5040    0.2620    0.0970 ca        1 LR1     -0.098500
      3 CAM         2.1450    0.4450    1.3290 ca        1 LR1      0.008100
      4 Br          3.9970    0.6620    1.3980 br        1 LR1     -0.019100
      5 CAG         1.3900    0.4700    2.5080 ca        1 LR1     -0.098500
      6 CAI         0.0080    0.3070    2.4560 ca        1 LR1     -0.100000
      7 CAN        -0.6310    0.1180    1.2250 ca        1 LR1     -0.184300
      8 CAK        -2.1130   -0.0140    1.1650 c3        1 LR1      0.169100
      9 NAL        -2.5240   -1.4540    1.3190 ny        1 LR1     -0.754000
     10 CAS        -3.9950   -1.6490    1.1610 c3        1 LR1      0.106500
     11 CAQ        -4.4590   -1.6310   -0.3190 c3        1 LR1      0.134100
     12 OAD        -4.4680   -0.2840   -0.7350 oh        1 LR1     -0.612800
     13 CAO        -5.8600   -2.2770   -0.2730 c3        1 LR1      0.109100
     14 OAB        -5.9930   -3.0230   -1.4640 oh        1 LR1     -0.592800
     15 CAP        -5.8750   -3.1940    0.9750 c3        1 LR1      0.124100
     16 OAC        -6.9720   -2.7860    1.7640 oh        1 LR1     -0.588800
     17 CAR        -4.5460   -2.9650    1.7400 c3        1 LR1     -0.124700
     18 CAJ        -3.6160   -4.1620    1.5650 c3        1 LR1      0.127400
     19 OAA        -4.3100   -5.2760    2.0930 oh        1 LR1     -0.586800
     20 HAH        -0.3740   -0.0250   -0.9300 ha        1 LR1      0.144500
     21 HAF         2.0870    0.2540   -0.8400 ha        1 LR1      0.171000
     22 HAG         1.8830    0.6260    3.4830 ha        1 LR1      0.171000
     23 HAI        -0.5780    0.3490    3.3880 ha        1 LR1      0.144500
     24 HAK1       -2.5220    0.3530    0.1760 hx        1 LR1      0.122700
     25 HAK2       -2.6060    0.5710    1.9940 hx        1 LR1      0.122700
     26 HAL        -2.2410   -1.7850    2.2490 hn        1 LR1      0.446300
     27 HAS        -4.5020   -0.7840    1.6940 hx        1 LR1      0.134700
     28 HAQ        -3.7810   -2.2330   -0.9880 h1        1 LR1      0.076700
     29 HAR        -4.7700   -2.8390    2.8340 hc        1 LR1      0.105700
     30 HAD        -5.0070   -0.2290   -1.5380 ho        1 LR1      0.452000
     31 HAO        -6.6620   -1.4930   -0.1910 h1        1 LR1      0.096700
     32 HAB        -6.9140   -3.3130   -1.5200 ho        1 LR1      0.437000
     33 HAP        -5.9670   -4.2750    0.6770 h1        1 LR1      0.095700
     34 HAC        -7.1830   -3.5120    2.3660 ho        1 LR1      0.432000
     35 HAJ1       -3.3770   -4.3240    0.4790 h1        1 LR1      0.025200
     36 HAJ2       -2.6580   -4.0190    2.1370 h1        1 LR1      0.025200
     37 HAA        -3.7650   -6.0570    1.9260 ho        1 LR1      0.431000
     38 HAL2       -2.0270   -2.0180    0.6190 hn        1 LR1      0.446300
@<TRIPOS>BOND
     1    1    2 ar  
     2    1    7 ar  
     3    1   20 1   
     4    2    3 ar  
     5    2   21 1   
     6    3    4 1   
     7    3    5 ar  
     8    5    6 ar  
     9    5   22 1   
    10    6    7 ar  
    11    6   23 1   
    12    7    8 1   
    13    8    9 1   
    14    8   24 1   
    15    8   25 1   
    16    9   10 1   
    17    9   26 1   
    18    9   38 1   
    19   10   11 1   
    20   10   17 1   
    21   10   27 1   
    22   11   12 1   
    23   11   13 1   
    24   11   28 1   
    25   12   30 1   
    26   13   14 1   
    27   13   15 1   
    28   13   31 1   
    29   14   32 1   
    30   15   16 1   
    31   15   17 1   
    32   15   33 1   
    33   16   34 1   
    34   17   18 1   
    35   17   29 1   
    36   18   19 1   
    37   18   35 1   
    38   18   36 1   
    39   19   37 1   
@<TRIPOS>SUBSTRUCTURE
     1 LR1         1 TEMP              0 ****  ****    0 ROOT
