@<TRIPOS>MOLECULE
LR1
   38    39     1     0     0
SMALL
bcc


@<TRIPOS>ATOM
      1 CAH         0.1230    0.0890    0.0420 ca        1 LR1     -0.100000
      2 CAF         1.5050    0.2560    0.0980 ca        1 LR1     -0.098500
      3 CAM         2.1380    0.4600    1.3300 ca        1 LR1      0.008100
      4 BR          3.9900    0.6820    1.4060 br        1 LR1     -0.019100
      5 CAG         1.3770    0.5030    2.5050 ca        1 LR1     -0.098500
      6 CAI        -0.0050    0.3370    2.4480 ca        1 LR1     -0.100000
      7 CAN        -0.6370    0.1260    1.2170 ca        1 LR1     -0.184300
      8 CAK        -2.1180   -0.0100    1.1510 c3        1 LR1      0.169100
      9 NAL        -2.5260   -1.4490    1.3190 n4        1 LR1     -0.754000
     10 CAS        -3.9960   -1.6490    1.1560 c3        1 LR1      0.106500
     11 CAQ        -4.4530   -1.6490   -0.3270 c3        1 LR1      0.134100
     12 OAD        -4.4620   -0.3070   -0.7580 oh        1 LR1     -0.612800
     13 CAO        -5.8520   -2.2980   -0.2810 c3        1 LR1      0.109100
     14 OAB        -5.9770   -3.0570   -1.4640 oh        1 LR1     -0.592800
     15 CAP        -5.8720   -3.2010    0.9780 c3        1 LR1      0.124100
     16 OAC        -6.9730   -2.7860    1.7560 oh        1 LR1     -0.588800
     17 CAR        -4.5480   -2.9600    1.7460 c3        1 LR1     -0.124700
     18 CAJ        -3.6140   -4.1560    1.5900 c3        1 LR1      0.127400
     19 OAA        -4.3080   -5.2660    2.1270 oh        1 LR1     -0.586800
     20 HAH        -0.3680   -0.0520   -0.9340 ha        1 LR1      0.144500
     21 HAF         2.0930    0.2330   -0.8350 ha        1 LR1      0.171000
     22 HAG         1.8640    0.6760    3.4800 ha        1 LR1      0.171000
     23 HAI        -0.5960    0.3920    3.3750 ha        1 LR1      0.144500
     24 HAK1       -2.5220    0.3450    0.1550 hx        1 LR1      0.122700
     25 HAK2       -2.6160    0.5840    1.9710 hx        1 LR1      0.122700
     26 HAL        -2.0250   -2.0200    0.6290 hn        1 LR1      0.446300
     27 HAS        -4.5080   -0.7800    1.6760 hx        1 LR1      0.134700
     28 HAQ        -3.7700   -2.2570   -0.9850 h1        1 LR1      0.076700
     29 HAR        -4.7770   -2.8220    2.8380 hc        1 LR1      0.105700
     30 HAD        -4.9970   -0.2630   -1.5650 ho        1 LR1      0.452000
     31 HAO        -6.6570   -1.5150   -0.2120 h1        1 LR1      0.096700
     32 HAB        -6.8970   -3.3500   -1.5220 ho        1 LR1      0.437000
     33 HAP        -5.9600   -4.2850    0.6920 h1        1 LR1      0.095700
     34 HAC        -7.1860   -3.5060    2.3650 ho        1 LR1      0.432000
     35 HAJ1       -3.3690   -4.3300    0.5070 h1        1 LR1      0.025200
     36 HAJ2       -2.6590   -4.0040    2.1660 h1        1 LR1      0.025200
     37 HAA        -3.7600   -6.0470    1.9720 ho        1 LR1      0.431000
     38 HAL2       -2.2480   -1.7680    2.2540 hn        1 LR1      0.446300
@<TRIPOS>BOND
     1    1    2 ar  
     2    1    7 ar  
     3    1   20 1   
     4    2    3 ar  
     5    2   21 1   
     6    3    4 1   
     7    3    5 ar  
     8    5    6 ar  
     9    5   22 1   
    10    6    7 ar  
    11    6   23 1   
    12    7    8 1   
    13    8    9 1   
    14    8   24 1   
    15    8   25 1   
    16    9   10 1   
    17    9   26 1   
    18    9   38 1   
    19   10   11 1   
    20   10   17 1   
    21   10   27 1   
    22   11   12 1   
    23   11   13 1   
    24   11   28 1   
    25   12   30 1   
    26   13   14 1   
    27   13   15 1   
    28   13   31 1   
    29   14   32 1   
    30   15   16 1   
    31   15   17 1   
    32   15   33 1   
    33   16   34 1   
    34   17   18 1   
    35   17   29 1   
    36   18   19 1   
    37   18   35 1   
    38   18   36 1   
    39   19   37 1   
@<TRIPOS>SUBSTRUCTURE
     1 LR1         1 TEMP              0 ****  ****    0 ROOT
