@<TRIPOS>MOLECULE
LRD
   38    40     1     0     0
SMALL
bcc


@<TRIPOS>ATOM
      1 OBL        -0.1980    0.3750    0.4540 o         1 LRD     -0.740200
      2 SBA         1.1470    0.0070    0.2430 s6        1 LRD      1.464100
      3 OBJ         1.9130   -0.0740    1.4240 o         1 LRD     -0.740200
      4 OBK         1.3040   -1.0880   -0.6330 o         1 LRD     -0.740200
      5 CAW         1.8690    1.4110   -0.6250 ca        1 LRD     -0.225500
      6 CAV         1.0980    2.5810   -0.6060 ca        1 LRD     -0.067000
      7 CAU         1.5340    3.7590   -1.2040 ca        1 LRD     -0.155000
      8 CAZ         2.7690    3.7860   -1.8500 ca        1 LRD     -0.124000
      9 CAY         3.5460    2.6350   -1.8930 ca        1 LRD     -0.149000
     10 CAX         3.1030    1.4470   -1.2790 ca        1 LRD      0.002200
     11 CAS         4.0100    0.2920   -1.4160 ce        1 LRD      0.110600
     12 CBE         4.8360   -0.1390   -0.4250 cd        1 LRD     -0.082000
     13 CBF         5.8250   -1.1810   -0.6620 cd        1 LRD     -0.054000
     14 CBG         6.8070   -1.4450    0.2260 cc        1 LRD     -0.101800
     15 ClB         7.9550   -2.6580   -0.1120 cl        1 LRD     -0.111400
     16 CBB         6.9200   -0.7140    1.5100 c         1 LRD      0.577500
     17 OBH         7.8910   -0.8280    2.2730 o         1 LRD     -0.554100
     18 CBC         5.7790    0.1580    1.8130 cc        1 LRD     -0.273200
     19 CBD         4.8060    0.4160    0.9220 cd        1 LRD     -0.014000
     20 CAM         4.0460   -0.3010   -2.7640 ca        1 LRD     -0.097800
     21 CAN         5.0660    0.0450   -3.6540 ca        1 LRD     -0.082000
     22 CAO         5.0880   -0.5010   -4.9400 ca        1 LRD     -0.082600
     23 ClA         6.3430   -0.0600   -6.0110 cl        1 LRD     -0.122400
     24 CAR         3.0420   -1.1990   -3.1620 ca        1 LRD     -0.057000
     25 CAQ         3.0610   -1.7480   -4.4370 ca        1 LRD     -0.161000
     26 CAP         4.0850   -1.4010   -5.3370 ca        1 LRD      0.129100
     27 O1          4.0260   -1.9890   -6.5780 oh        1 LRD     -0.499100
     28 H1          0.1130    2.5530   -0.1030 ha        1 LRD      0.165000
     29 H2          0.9080    4.6620   -1.1710 ha        1 LRD      0.117000
     30 H3          3.1270    4.7090   -2.3270 ha        1 LRD      0.113000
     31 H4          4.5150    2.6470   -2.4130 ha        1 LRD      0.118000
     32 H6          5.7440   -1.7410   -1.6100 ha        1 LRD      0.149000
     33 H8          5.7540    0.5740    2.8310 ha        1 LRD      0.150000
     34 H9          3.9190    1.0220    1.1930 ha        1 LRD      0.187000
     35 H10         5.8530    0.7500   -3.3450 ha        1 LRD      0.146000
     36 H11         2.2340   -1.4670   -2.4450 ha        1 LRD      0.229000
     37 H12         2.2820   -2.4540   -4.7600 ha        1 LRD      0.154000
     38 H13         4.7780   -1.6690   -7.1000 ho        1 LRD      0.421000
@<TRIPOS>BOND
     1    1    2 1   
     2    2    3 1   
     3    2    4 1   
     4    2    5 1   
     5    5    6 ar  
     6    5   10 ar  
     7    6    7 ar  
     8    6   28 1   
     9    7    8 ar  
    10    7   29 1   
    11    8    9 ar  
    12    8   30 1   
    13    9   10 ar  
    14    9   31 1   
    15   10   11 1   
    16   11   12 2   
    17   11   20 1   
    18   12   13 1   
    19   12   19 1   
    20   13   14 2   
    21   13   32 1   
    22   14   15 1   
    23   14   16 1   
    24   16   17 2   
    25   16   18 1   
    26   18   19 2   
    27   18   33 1   
    28   19   34 1   
    29   20   21 ar  
    30   20   24 ar  
    31   21   22 ar  
    32   21   35 1   
    33   22   23 1   
    34   22   26 ar  
    35   24   25 ar  
    36   24   36 1   
    37   25   26 ar  
    38   25   37 1   
    39   26   27 1   
    40   27   38 1   
@<TRIPOS>SUBSTRUCTURE
     1 LRD         1 TEMP              0 ****  ****    0 ROOT
