@<TRIPOS>MOLECULE
LRD
   38    40     1     0     0
SMALL
bcc


@<TRIPOS>ATOM
      1 OBL         2.1200   -3.5910   -2.1800 o         1 LRD     -0.740200
      2 SBA         1.8800   -2.3100   -1.6430 s6        1 LRD      1.464100
      3 OBJ         3.0420   -1.6470   -1.1980 o         1 LRD     -0.740200
      4 OBK         1.0180   -1.5180   -2.4310 o         1 LRD     -0.740200
      5 CAW         0.9710   -2.6230   -0.1190 ca        1 LRD     -0.225500
      6 CAV         0.9900   -3.9510    0.3230 ca        1 LRD     -0.067000
      7 CAU         0.3610   -4.3460    1.4990 ca        1 LRD     -0.155000
      8 CAZ        -0.3170   -3.3990    2.2670 ca        1 LRD     -0.124000
      9 CAY        -0.3600   -2.0770    1.8430 ca        1 LRD     -0.149000
     10 CAX         0.2840   -1.6820    0.6540 ca        1 LRD      0.002200
     11 CAS         0.1440   -0.2560    0.3050 ce        1 LRD      0.110600
     12 CBE         1.1200    0.6690    0.5080 cd        1 LRD     -0.082000
     13 CBF         0.8750    2.0890    0.2950 cd        1 LRD     -0.054000
     14 CBG         1.7420    3.0320    0.7220 cc        1 LRD     -0.101800
     15 CLB         1.3940    4.6810    0.4700 cl        1 LRD     -0.111400
     16 CBB         3.0100    2.6810    1.4020 c         1 LRD      0.577500
     17 OBH         3.7500    3.5200    1.9350 o         1 LRD     -0.554100
     18 CBC         3.3280    1.2480    1.3890 cc        1 LRD     -0.273200
     19 CBD         2.4580    0.3150    0.9630 cd        1 LRD     -0.014000
     20 CAM        -1.1950    0.1270   -0.1770 ca        1 LRD     -0.097800
     21 CAN        -2.1170    0.7040    0.7000 ca        1 LRD     -0.082000
     22 CAO        -3.3940    1.0470    0.2480 ca        1 LRD     -0.082600
     23 CLA        -4.5030    1.7480    1.3410 cl        1 LRD     -0.122400
     24 CAR        -1.5520   -0.1100   -1.5150 ca        1 LRD     -0.057000
     25 CAQ        -2.8190    0.2330   -1.9700 ca        1 LRD     -0.161000
     26 CAP        -3.7490    0.8120   -1.0900 ca        1 LRD      0.129100
     27 O1         -4.9790    1.1180   -1.6240 oh        1 LRD     -0.499100
     28 H1          1.5190   -4.7020   -0.2940 ha        1 LRD      0.165000
     29 H2          0.3960   -5.3960    1.8220 ha        1 LRD      0.117000
     30 H3         -0.8180   -3.6950    3.1990 ha        1 LRD      0.113000
     31 H4         -0.9050   -1.3280    2.4370 ha        1 LRD      0.118000
     32 H6         -0.0620    2.3620   -0.2220 ha        1 LRD      0.149000
     33 H8          4.3400    0.9810    1.7290 ha        1 LRD      0.150000
     34 H9          2.7410   -0.7540    0.8970 ha        1 LRD      0.187000
     35 H10        -1.8390    0.8870    1.7500 ha        1 LRD      0.146000
     36 H11        -0.8100   -0.5710   -2.2040 ha        1 LRD      0.229000
     37 H12        -3.1090    0.0550   -3.0150 ha        1 LRD      0.154000
     38 H13        -5.5250    1.5050   -0.9220 ho        1 LRD      0.421000
@<TRIPOS>BOND
     1    1    2 1   
     2    2    3 1   
     3    2    4 1   
     4    2    5 1   
     5    5    6 ar  
     6    5   10 ar  
     7    6    7 ar  
     8    6   28 1   
     9    7    8 ar  
    10    7   29 1   
    11    8    9 ar  
    12    8   30 1   
    13    9   10 ar  
    14    9   31 1   
    15   10   11 1   
    16   11   12 2   
    17   11   20 1   
    18   12   13 1   
    19   12   19 1   
    20   13   14 2   
    21   13   32 1   
    22   14   15 1   
    23   14   16 1   
    24   16   17 2   
    25   16   18 1   
    26   18   19 2   
    27   18   33 1   
    28   19   34 1   
    29   20   21 ar  
    30   20   24 ar  
    31   21   22 ar  
    32   21   35 1   
    33   22   23 1   
    34   22   26 ar  
    35   24   25 ar  
    36   24   36 1   
    37   25   26 ar  
    38   25   37 1   
    39   26   27 1   
    40   27   38 1   
@<TRIPOS>SUBSTRUCTURE
     1 LRD         1 TEMP              0 ****  ****    0 ROOT
