@<TRIPOS>MOLECULE
LRD
   38    40     1     0     0
SMALL
bcc


@<TRIPOS>ATOM
      1 OBL        -0.1870    0.3690    0.4750 o         1 LRD     -0.740200
      2 SBA         1.1580    0.0050    0.2590 s6        1 LRD      1.464100
      3 OBJ         1.9310   -0.0660    1.4360 o         1 LRD     -0.740200
      4 OBK         1.3140   -1.0940   -0.6120 o         1 LRD     -0.740200
      5 CAW         1.8690    1.4080   -0.6210 ca        1 LRD     -0.225500
      6 CAV         1.0940    2.5750   -0.6040 ca        1 LRD     -0.067000
      7 CAU         1.5210    3.7510   -1.2110 ca        1 LRD     -0.155000
      8 CAZ         2.7530    3.7800   -1.8640 ca        1 LRD     -0.124000
      9 CAY         3.5340    2.6320   -1.9040 ca        1 LRD     -0.149000
     10 CAX         3.0990    1.4460   -1.2810 ca        1 LRD      0.002200
     11 CAS         4.0110    0.2930   -1.4160 ce        1 LRD      0.110600
     12 CBE         4.8440   -0.1280   -0.4280 cd        1 LRD     -0.082000
     13 CBF         5.8360   -1.1680   -0.6640 cd        1 LRD     -0.054000
     14 CBG         6.8240   -1.4220    0.2200 cc        1 LRD     -0.101800
     15 CLB         7.9750   -2.6330   -0.1170 cl        1 LRD     -0.111400
     16 CBB         6.9400   -0.6840    1.4990 c         1 LRD      0.577500
     17 OBH         7.9150   -0.7900    2.2580 o         1 LRD     -0.554100
     18 CBC         5.7980    0.1840    1.8040 cc        1 LRD     -0.273200
     19 CBD         4.8190    0.4340    0.9160 cd        1 LRD     -0.014000
     20 CAM         4.0430   -0.3070   -2.7610 ca        1 LRD     -0.097800
     21 CAN         5.0560    0.0380   -3.6590 ca        1 LRD     -0.082000
     22 CAO         5.0740   -0.5150   -4.9420 ca        1 LRD     -0.082600
     23 CLA         6.3220   -0.0740   -6.0210 cl        1 LRD     -0.122400
     24 CAR         3.0400   -1.2110   -3.1490 ca        1 LRD     -0.057000
     25 CAQ         3.0550   -1.7670   -4.4220 ca        1 LRD     -0.161000
     26 CAP         4.0720   -1.4200   -5.3280 ca        1 LRD      0.129100
     27 O1          4.0100   -2.0160   -6.5670 oh        1 LRD     -0.499100
     28 H1          0.1110    2.5460   -0.0950 ha        1 LRD      0.165000
     29 H2          0.8920    4.6520   -1.1790 ha        1 LRD      0.117000
     30 H3          3.1040    4.7020   -2.3480 ha        1 LRD      0.113000
     31 H4          4.5010    2.6450   -2.4290 ha        1 LRD      0.118000
     32 H6          5.7520   -1.7330   -1.6090 ha        1 LRD      0.149000
     33 H8          5.7760    0.6060    2.8200 ha        1 LRD      0.150000
     34 H9          3.9300    1.0370    1.1880 ha        1 LRD      0.187000
     35 H10         5.8420    0.7490   -3.3570 ha        1 LRD      0.146000
     36 H11         2.2370   -1.4780   -2.4270 ha        1 LRD      0.229000
     37 H12         2.2770   -2.4770   -4.7370 ha        1 LRD      0.154000
     38 H13         4.7580   -1.6950   -7.0940 ho        1 LRD      0.421000
@<TRIPOS>BOND
     1    1    2 1   
     2    2    3 1   
     3    2    4 1   
     4    2    5 1   
     5    5    6 ar  
     6    5   10 ar  
     7    6    7 ar  
     8    6   28 1   
     9    7    8 ar  
    10    7   29 1   
    11    8    9 ar  
    12    8   30 1   
    13    9   10 ar  
    14    9   31 1   
    15   10   11 1   
    16   11   12 2   
    17   11   20 1   
    18   12   13 1   
    19   12   19 1   
    20   13   14 2   
    21   13   32 1   
    22   14   15 1   
    23   14   16 1   
    24   16   17 2   
    25   16   18 1   
    26   18   19 2   
    27   18   33 1   
    28   19   34 1   
    29   20   21 ar  
    30   20   24 ar  
    31   21   22 ar  
    32   21   35 1   
    33   22   23 1   
    34   22   26 ar  
    35   24   25 ar  
    36   24   36 1   
    37   25   26 ar  
    38   25   37 1   
    39   26   27 1   
    40   27   38 1   
@<TRIPOS>SUBSTRUCTURE
     1 LRD         1 TEMP              0 ****  ****    0 ROOT
