@<TRIPOS>MOLECULE
LRD
   38    30     1     0     0
SMALL
bcc


@<TRIPOS>ATOM
      1 OBL        -1.3300   -0.6770    2.0320 o         1 LRD     -1.062667
      2 SBA        -2.4650    0.1520    1.4800 s4        1 LRD      2.877000
      3 OBJ        -3.3870   -0.6830    0.6240 o         1 LRD     -1.062667
      4 OBK        -3.4040    0.5940    2.5780 o         1 LRD     -1.062667
      5 CAW        -1.8310    1.5410    0.5790 c1        1 LRD     -0.669000
      6 CAV        -2.5740    2.7080    0.4900 c1        1 LRD     -0.066000
      7 CAU        -2.0820    3.7900   -0.2220 c1        1 LRD     -0.137000
      8 CAZ        -0.8460    3.7060   -0.8450 c1        1 LRD     -0.137000
      9 CAY        -0.1030    2.5390   -0.7560 c1        1 LRD     -0.119500
     10 CAX        -0.5950    1.4570   -0.0440 c1        1 LRD     -0.037500
     11 CAS         0.1970    0.1700    0.0180 c2        1 LRD      0.090000
     12 CBE         0.9670   -0.0950    1.0900 c1        1 LRD     -0.084000
     13 CBF         1.7600   -1.3820    1.1530 c2        1 LRD     -0.053000
     14 CBG         2.6000   -1.6940    2.3720 c1        1 LRD     -0.169000
     15 CLB         3.5590   -3.1490    2.4200 cl        1 LRD     -0.028000
     16 CBB         2.6480   -0.7180    3.5270 c1        1 LRD      0.300000
     17 OBH         3.2850   -0.9890    4.5250 o         1 LRD     -0.316000
     18 CBC         1.8980    0.5930    3.4410 c1        1 LRD     -0.137000
     19 CBD         1.0400    0.8950    2.2320 c1        1 LRD     -0.137000
     20 CAM         0.1990   -0.7720   -1.1650 c1        1 LRD     -0.037500
     21 CAN        -0.7090   -1.8180   -1.2190 c1        1 LRD     -0.046000
     22 CAO        -0.7250   -2.6660   -2.3150 c1        1 LRD     -0.151000
     23 CLA        -1.8340   -4.0110   -2.3610 cl        1 LRD     -0.025000
     24 CAR         1.0900   -0.5730   -2.2070 c1        1 LRD     -0.119500
     25 CAQ         1.0730   -1.4200   -3.3040 c1        1 LRD     -0.170000
     26 CAP         0.1660   -2.4670   -3.3580 c2        1 LRD      0.080000
     27 O1          0.1210   -3.3010   -4.4900 oh        1 LRD     -0.258000
     28 H1         -3.4440    2.7670    0.9290 ha        1 LRD      0.165000
     29 H2         -2.6050    4.6110   -0.2850 ha        1 LRD      0.142000
     30 H3         -0.5000    4.4680   -1.3460 ha        1 LRD      0.142000
     31 H4          0.7570    2.4730   -1.2130 ha        1 LRD      0.126500
     32 H6          1.7560   -1.9950    0.3930 ha        1 LRD      0.149000
     33 H8          1.9940    1.2570    4.1490 ha        1 LRD      0.142000
     34 H9          0.5670    1.7470    2.1700 ha        1 LRD      0.142000
     35 H10        -1.3330   -1.9620   -0.4810 ha        1 LRD      0.237000
     36 H11         1.7290    0.1630   -2.1690 ha        1 LRD      0.126500
     37 H12         1.6900   -1.2710   -4.0450 ha        1 LRD      0.144000
     38 H13         0.6700   -3.9900   -4.3730 ho        1 LRD      0.223000
@<TRIPOS>BOND
     1    1    2 1   
     2    2    3 1   
     3    2    4 1   
     4    5    6 1   
     5    6   28 1   
     6    7    8 1   
     7    7   29 1   
     8    8   30 1   
     9    9   10 1   
    10    9   31 1   
    11   10   11 1   
    12   11   12 1   
    13   11   20 1   
    14   12   13 1   
    15   13   14 1   
    16   13   32 1   
    17   14   15 1   
    18   16   17 1   
    19   18   19 1   
    20   18   33 1   
    21   19   34 1   
    22   20   24 1   
    23   21   22 1   
    24   21   35 1   
    25   22   26 1   
    26   24   36 1   
    27   25   26 1   
    28   25   37 1   
    29   26   27 1   
    30   27   38 1   
@<TRIPOS>SUBSTRUCTURE
     1 LRD         1 TEMP              0 ****  ****    0 ROOT
