@<TRIPOS>MOLECULE
LRG
   41    43     1     0     0
SMALL
bcc


@<TRIPOS>ATOM
      1 CAI         0.4180    0.3120    0.1520 ca        1 LRG     -0.131500
      2 CAE         1.7520    0.4600    0.5290 ca        1 LRG     -0.137500
      3 CAC         2.1130    0.3800    1.8730 ca        1 LRG     -0.154000
      4 CAF         1.1340    0.1480    2.8400 ca        1 LRG     -0.137500
      5 CAJ        -0.1990    0.0010    2.4650 ca        1 LRG     -0.131500
      6 CAT        -0.5720    0.0830    1.1160 ca        1 LRG     -0.050300
      7 CAQ        -2.0000   -0.0510    0.7240 c3        1 LRG     -0.044100
      8 CAX        -2.5880   -1.4250    1.0380 c3        1 LRG      0.015100
      9 CAS        -4.0890   -1.2960    1.4500 c         1 LRG      0.905600
     10 OAB        -4.8040   -0.4460    0.8630 o         1 LRG     -0.820300
     11 OAA        -4.4670   -2.0380    2.4000 o         1 LRG     -0.820300
     12 OAR        -2.4350   -2.1810   -0.1860 os        1 LRG     -0.324900
     13 CAU        -2.3750   -3.5440   -0.0750 ca        1 LRG      0.172100
     14 CAN        -1.8170   -4.2110   -1.1860 ca        1 LRG     -0.194500
     15 CAP        -1.7280   -5.5960   -1.1820 ca        1 LRG     -0.089500
     16 CAM        -2.8490   -4.2820    1.0220 ca        1 LRG     -0.194500
     17 CAO        -2.7420   -5.6670    1.0100 ca        1 LRG     -0.089500
     18 CAW        -2.1790   -6.3440   -0.0840 cp        1 LRG     -0.123000
     19 CAV        -2.0670   -7.7980   -0.0810 cp        1 LRG      0.009000
     20 CAK        -1.7460   -8.4880    1.0990 ca        1 LRG     -0.132000
     21 CAG        -1.6380   -9.8760    1.1010 ca        1 LRG     -0.133500
     22 CAD        -1.8470  -10.5990   -0.0740 ca        1 LRG     -0.152000
     23 CAH        -2.1670   -9.9240   -1.2510 ca        1 LRG     -0.133500
     24 CAL        -2.2770   -8.5360   -1.2570 ca        1 LRG     -0.132000
     25 HAI         0.1370    0.3690   -0.9100 ha        1 LRG      0.137000
     26 HAE         2.5200    0.6370   -0.2360 ha        1 LRG      0.116500
     27 HAC         3.1650    0.4950    2.1700 ha        1 LRG      0.113000
     28 HAF         1.4150    0.0800    3.9000 ha        1 LRG      0.116500
     29 HAJ        -0.9730   -0.1860    3.2260 ha        1 LRG      0.137000
     30 HAQ        -2.1310    0.1510   -0.3730 hc        1 LRG      0.075700
     31 HAQA       -2.6140    0.7130    1.2760 hc        1 LRG      0.075700
     32 HAX        -2.0180   -1.9310    1.8620 h1        1 LRG      0.042700
     33 HAN        -1.4630   -3.6240   -2.0430 ha        1 LRG      0.172000
     34 HAP        -1.2860   -6.1120   -2.0470 ha        1 LRG      0.119500
     35 HAM        -3.3390   -3.7580    1.8670 ha        1 LRG      0.172000
     36 HAO        -3.1250   -6.2430    1.8660 ha        1 LRG      0.119500
     37 HAK        -1.5760   -7.9210    2.0270 ha        1 LRG      0.134500
     38 HAG        -1.3860  -10.4030    2.0320 ha        1 LRG      0.119500
     39 HAD        -1.7610  -11.6940   -0.0700 ha        1 LRG      0.117000
     40 HAH        -2.3370  -10.4890   -2.1790 ha        1 LRG      0.119500
     41 HAL        -2.5410   -8.0090   -2.1860 ha        1 LRG      0.134500
@<TRIPOS>BOND
     1    1    2 ar  
     2    1    6 ar  
     3    1   25 1   
     4    2    3 ar  
     5    2   26 1   
     6    3    4 ar  
     7    3   27 1   
     8    4    5 ar  
     9    4   28 1   
    10    5    6 ar  
    11    5   29 1   
    12    6    7 1   
    13    7    8 1   
    14    7   30 1   
    15    7   31 1   
    16    8    9 1   
    17    8   12 1   
    18    8   32 1   
    19    9   10 1   
    20    9   11 1   
    21   12   13 1   
    22   13   14 ar  
    23   13   16 ar  
    24   14   15 ar  
    25   14   33 1   
    26   15   18 ar  
    27   15   34 1   
    28   16   17 ar  
    29   16   35 1   
    30   17   18 ar  
    31   17   36 1   
    32   18   19 1   
    33   19   20 ar  
    34   19   24 ar  
    35   20   21 ar  
    36   20   37 1   
    37   21   22 ar  
    38   21   38 1   
    39   22   23 ar  
    40   22   39 1   
    41   23   24 ar  
    42   23   40 1   
    43   24   41 1   
@<TRIPOS>SUBSTRUCTURE
     1 LRG         1 TEMP              0 ****  ****    0 ROOT
