@<TRIPOS>MOLECULE
LRG
   41    43     1     0     0
SMALL
bcc


@<TRIPOS>ATOM
      1 CAI         0.3840    0.3230    0.0840 ca        1 LRG     -0.131500
      2 CAE         1.7270    0.4830    0.4240 ca        1 LRG     -0.137500
      3 CAC         2.1250    0.4120    1.7580 ca        1 LRG     -0.154000
      4 CAF         1.1740    0.1790    2.7520 ca        1 LRG     -0.137500
      5 CAJ        -0.1680    0.0190    2.4140 ca        1 LRG     -0.131500
      6 CAT        -0.5770    0.0910    1.0750 ca        1 LRG     -0.050300
      7 CAQ        -2.0140   -0.0560    0.7220 c3        1 LRG     -0.044100
      8 CAX        -2.5840   -1.4310    1.0620 c3        1 LRG      0.015100
      9 CAS        -4.0700   -1.3090    1.5250 c         1 LRG      0.905600
     10 OAB        -4.8100   -0.4650    0.9590 o         1 LRG     -0.820300
     11 OAA        -4.4120   -2.0500    2.4900 o         1 LRG     -0.820300
     12 OAR        -2.4680   -2.1910   -0.1640 os        1 LRG     -0.324900
     13 CAU        -2.3970   -3.5530   -0.0510 ca        1 LRG      0.172100
     14 CAN        -1.8740   -4.2220   -1.1770 ca        1 LRG     -0.194500
     15 CAP        -1.7790   -5.6060   -1.1720 ca        1 LRG     -0.089500
     16 CAM        -2.8290   -4.2900    1.0660 ca        1 LRG     -0.194500
     17 CAO        -2.7150   -5.6740    1.0540 ca        1 LRG     -0.089500
     18 CAW        -2.1870   -6.3520   -0.0560 cp        1 LRG     -0.123000
     19 CAV        -2.0670   -7.8060   -0.0520 cp        1 LRG      0.009000
     20 CAK        -1.7020   -8.4890    1.1190 ca        1 LRG     -0.132000
     21 CAG        -1.5860   -9.8770    1.1210 ca        1 LRG     -0.133500
     22 CAD        -1.8320  -10.6050   -0.0420 ca        1 LRG     -0.152000
     23 CAH        -2.1970   -9.9370   -1.2100 ca        1 LRG     -0.133500
     24 CAL        -2.3140   -8.5490   -1.2170 ca        1 LRG     -0.132000
     25 HAI         0.0750    0.3720   -0.9710 ha        1 LRG      0.137500
     26 HAE         2.4730    0.6620   -0.3630 ha        1 LRG      0.116500
     27 HAC         3.1830    0.5370    2.0260 ha        1 LRG      0.113000
     28 HAF         1.4840    0.1180    3.8050 ha        1 LRG      0.116500
     29 HAJ        -0.9190   -0.1700    3.1970 ha        1 LRG      0.137500
     30 HAQ        -2.1760    0.1380   -0.3720 hc        1 LRG      0.075700
     31 HAQA       -2.6190    0.7080    1.2860 hc        1 LRG      0.075700
     32 HAX        -1.9830   -1.9310    1.8680 h1        1 LRG      0.042700
     33 HAN        -1.5540   -3.6360   -2.0490 ha        1 LRG      0.172000
     34 HAP        -1.3640   -6.1230   -2.0500 ha        1 LRG      0.119500
     35 HAM        -3.2920   -3.7650    1.9250 ha        1 LRG      0.172000
     36 HAO        -3.0650   -6.2480    1.9250 ha        1 LRG      0.119500
     37 HAK        -1.5020   -7.9190    2.0380 ha        1 LRG      0.134500
     38 HAG        -1.2990  -10.3990    2.0450 ha        1 LRG      0.119500
     39 HAD        -1.7410  -11.7000   -0.0380 ha        1 LRG      0.117000
     40 HAH        -2.3960  -10.5060   -2.1290 ha        1 LRG      0.119500
     41 HAL        -2.6130   -8.0270   -2.1390 ha        1 LRG      0.134500
@<TRIPOS>BOND
     1    1    2 ar  
     2    1    6 ar  
     3    1   25 1   
     4    2    3 ar  
     5    2   26 1   
     6    3    4 ar  
     7    3   27 1   
     8    4    5 ar  
     9    4   28 1   
    10    5    6 ar  
    11    5   29 1   
    12    6    7 1   
    13    7    8 1   
    14    7   30 1   
    15    7   31 1   
    16    8    9 1   
    17    8   12 1   
    18    8   32 1   
    19    9   10 1   
    20    9   11 1   
    21   12   13 1   
    22   13   14 ar  
    23   13   16 ar  
    24   14   15 ar  
    25   14   33 1   
    26   15   18 ar  
    27   15   34 1   
    28   16   17 ar  
    29   16   35 1   
    30   17   18 ar  
    31   17   36 1   
    32   18   19 1   
    33   19   20 ar  
    34   19   24 ar  
    35   20   21 ar  
    36   20   37 1   
    37   21   22 ar  
    38   21   38 1   
    39   22   23 ar  
    40   22   39 1   
    41   23   24 ar  
    42   23   40 1   
    43   24   41 1   
@<TRIPOS>SUBSTRUCTURE
     1 LRG         1 TEMP              0 ****  ****    0 ROOT
