@<TRIPOS>MOLECULE
LRG
   41    43     1     0     0
SMALL
bcc


@<TRIPOS>ATOM
      1 CAI        -4.1430   -1.8180    0.8690 ca        1 LRG     -0.131500
      2 CAE        -4.5140   -3.0680    0.3750 ca        1 LRG     -0.137500
      3 CAC        -4.6920   -3.2560   -0.9950 ca        1 LRG     -0.154000
      4 CAF        -4.4960   -2.1880   -1.8700 ca        1 LRG     -0.137500
      5 CAJ        -4.1260   -0.9380   -1.3790 ca        1 LRG     -0.131500
      6 CAT        -3.9470   -0.7400   -0.0030 ca        1 LRG     -0.050300
      7 CAQ        -3.5760    0.6030    0.5190 c3        1 LRG     -0.044100
      8 CAX        -2.2080    1.0820    0.0390 c3        1 LRG      0.015100
      9 CAS        -2.2160    2.6270   -0.1840 c         1 LRG      0.905600
     10 OAB        -2.8710    3.3480    0.6120 o         1 LRG     -0.820300
     11 OAA        -1.5920    3.0430   -1.2010 o         1 LRG     -0.820300
     12 OAR        -1.2930    0.7010    1.0940 os        1 LRG     -0.324900
     13 CAU         0.0180    0.5160    0.7470 ca        1 LRG      0.172100
     14 CAN         0.7790   -0.2410    1.6630 ca        1 LRG     -0.194500
     15 CAP         2.1250   -0.4700    1.4140 ca        1 LRG     -0.089500
     16 CAM         0.6270    1.0440   -0.4050 ca        1 LRG     -0.194500
     17 CAO         1.9730    0.7950   -0.6390 ca        1 LRG     -0.089500
     18 CAW         2.7400    0.0340    0.2580 cp        1 LRG     -0.123000
     19 CAV         4.1510   -0.2240   -0.0040 cp        1 LRG      0.009000
     20 CAK         4.6020   -0.4650   -1.3110 ca        1 LRG     -0.132000
     21 CAG         5.9500   -0.7140   -1.5600 ca        1 LRG     -0.133500
     22 CAD         6.8680   -0.7270   -0.5110 ca        1 LRG     -0.152000
     23 CAH         6.4310   -0.4880    0.7920 ca        1 LRG     -0.133500
     24 CAL         5.0840   -0.2380    1.0450 ca        1 LRG     -0.132000
     25 HAI        -3.9970   -1.6750    1.9500 ha        1 LRG      0.137500
     26 HAE        -4.6620   -3.9080    1.0680 ha        1 LRG      0.116500
     27 HAC        -4.9820   -4.2410   -1.3840 ha        1 LRG      0.113000
     28 HAF        -4.6310   -2.3320   -2.9520 ha        1 LRG      0.116500
     29 HAJ        -3.9660   -0.0940   -2.0690 ha        1 LRG      0.137500
     30 HAQ        -4.3360    1.3590    0.1800 hc        1 LRG      0.075700
     31 HAQA       -3.5830    0.6080    1.6420 hc        1 LRG      0.075700
     32 HAX        -1.9110    0.5700   -0.9150 h1        1 LRG      0.042700
     33 HAN         0.2950   -0.6360    2.5660 ha        1 LRG      0.172000
     34 HAP         2.7130   -1.0660    2.1270 ha        1 LRG      0.119500
     35 HAM         0.0390    1.6870   -1.0910 ha        1 LRG      0.172000
     36 HAO         2.4490    1.2200   -1.5360 ha        1 LRG      0.119500
     37 HAK         3.8810   -0.4600   -2.1420 ha        1 LRG      0.134500
     38 HAG         6.2900   -0.9010   -2.5890 ha        1 LRG      0.119500
     39 HAD         7.9310   -0.9230   -0.7090 ha        1 LRG      0.117000
     40 HAH         7.1510   -0.4930    1.6220 ha        1 LRG      0.119500
     41 HAL         4.7460   -0.0390    2.0730 ha        1 LRG      0.134500
@<TRIPOS>BOND
     1    1    2 ar  
     2    1    6 ar  
     3    1   25 1   
     4    2    3 ar  
     5    2   26 1   
     6    3    4 ar  
     7    3   27 1   
     8    4    5 ar  
     9    4   28 1   
    10    5    6 ar  
    11    5   29 1   
    12    6    7 1   
    13    7    8 1   
    14    7   30 1   
    15    7   31 1   
    16    8    9 1   
    17    8   12 1   
    18    8   32 1   
    19    9   10 1   
    20    9   11 1   
    21   12   13 1   
    22   13   14 ar  
    23   13   16 ar  
    24   14   15 ar  
    25   14   33 1   
    26   15   18 ar  
    27   15   34 1   
    28   16   17 ar  
    29   16   35 1   
    30   17   18 ar  
    31   17   36 1   
    32   18   19 1   
    33   19   20 ar  
    34   19   24 ar  
    35   20   21 ar  
    36   20   37 1   
    37   21   22 ar  
    38   21   38 1   
    39   22   23 ar  
    40   22   39 1   
    41   23   24 ar  
    42   23   40 1   
    43   24   41 1   
@<TRIPOS>SUBSTRUCTURE
     1 LRG         1 TEMP              0 ****  ****    0 ROOT
