@<TRIPOS>MOLECULE
LRG
   41    34     1     0     0
SMALL
bcc


@<TRIPOS>ATOM
      1 CAI         1.2800    4.4800   -1.9640 c1        1 LRG     -0.144000
      2 CAE         2.4520    5.1690   -2.2270 c1        1 LRG     -0.138250
      3 CAC         3.2610    5.5860   -1.1810 c1        1 LRG     -0.138250
      4 CAF         2.8970    5.3130    0.1280 c1        1 LRG     -0.138250
      5 CAJ         1.7240    4.6240    0.3920 c1        1 LRG     -0.138250
      6 CAT         0.9150    4.2070   -0.6540 c1        1 LRG     -0.049000
      7 CAQ        -0.4070    3.5330   -0.3630 c3        1 LRG     -0.128000
      8 CAX        -0.1920    2.0430   -0.2180 c3        1 LRG     -0.052000
      9 CAS         0.8360    1.7850    0.8620 c2        1 LRG      0.318000
     10 OAB         2.0000    1.4210    0.5500 o         1 LRG     -0.553500
     11 OAA         0.5330    1.9550    2.0730 o         1 LRG     -0.553500
     12 OAR        -1.4060    1.4260    0.1330 os        1 LRG     -0.206000
     13 CAU        -1.3250    0.0260    0.2320 c2        1 LRG      0.132000
     14 CAN        -1.1550   -0.7410   -0.9100 c2        1 LRG     -0.192000
     15 CAP        -1.1340   -2.1240   -0.8190 c1        1 LRG     -0.092000
     16 CAM        -1.4750   -0.5900    1.4650 c1        1 LRG     -0.201000
     17 CAO        -1.4550   -1.9740    1.5550 c1        1 LRG     -0.106500
     18 CAW        -1.2840   -2.7410    0.4130 c1        1 LRG     -0.058000
     19 CAV        -1.1860   -4.1210    0.5140 c1        1 LRG     -0.058000
     20 CAK         0.0390   -4.7100    0.7890 c1        1 LRG     -0.138250
     21 CAG         0.1540   -6.0910    0.8150 c1        1 LRG     -0.138250
     22 CAD        -0.9550   -6.8840    0.5660 c1        1 LRG     -0.138250
     23 CAH        -2.1800   -6.2960    0.2910 c1        1 LRG     -0.138250
     24 CAL        -2.2950   -4.9140    0.2650 c1        1 LRG     -0.106500
     25 HAI         0.7100    4.1860   -2.7000 ha        1 LRG      0.120000
     26 HAE         2.7090    5.3610   -3.1490 ha        1 LRG      0.128625
     27 HAC         4.0940    6.0610   -1.3680 ha        1 LRG      0.128625
     28 HAF         3.4670    5.6060    0.8640 ha        1 LRG      0.128625
     29 HAJ         1.4680    4.4310    1.3140 ha        1 LRG      0.128625
     30 HAQ        -0.7800    3.8910    0.4670 hc        1 LRG      0.106000
     31 HAQA       -1.0280    3.7020   -1.1000 hc        1 LRG      0.106000
     32 HAX         0.1270    1.6760   -1.0660 h1        1 LRG      0.083000
     33 HAN        -1.0660   -0.3070   -1.7800 ha        1 LRG      0.135000
     34 HAP        -1.0290   -2.6650   -1.6260 ha        1 LRG      0.115000
     35 HAM        -1.5960   -0.0500    2.2690 ha        1 LRG      0.201000
     36 HAO        -1.5610   -2.4080    2.4240 ha        1 LRG      0.129500
     37 HAK         0.8200   -4.1510    0.9640 ha        1 LRG      0.128625
     38 HAG         1.0170   -6.5050    1.0090 ha        1 LRG      0.128625
     39 HAD        -0.8740   -7.8560    0.5840 ha        1 LRG      0.128625
     40 HAH        -2.9610   -6.8540    0.1150 ha        1 LRG      0.128625
     41 HAL        -3.1580   -4.5000    0.0710 ha        1 LRG      0.129500
@<TRIPOS>BOND
     1    1    6 1   
     2    1   25 1   
     3    2    3 1   
     4    2   26 1   
     5    3   27 1   
     6    4    5 1   
     7    4   28 1   
     8    5   29 1   
     9    6    7 1   
    10    7    8 1   
    11    7   30 1   
    12    7   31 1   
    13    8    9 1   
    14    8   12 1   
    15    8   32 1   
    16    9   10 1   
    17    9   11 1   
    18   12   13 1   
    19   13   14 1   
    20   13   16 1   
    21   14   15 1   
    22   14   33 1   
    23   15   34 1   
    24   16   35 1   
    25   17   18 1   
    26   17   36 1   
    27   19   24 1   
    28   20   21 1   
    29   20   37 1   
    30   21   38 1   
    31   22   23 1   
    32   22   39 1   
    33   23   40 1   
    34   24   41 1   
@<TRIPOS>SUBSTRUCTURE
     1 LRG         1 TEMP              0 ****  ****    0 ROOT
