@<TRIPOS>MOLECULE
LRH
   23    23     1     0     0
SMALL
bcc


@<TRIPOS>ATOM
      1 C1          0.6080   -1.1540   -2.6590 c3        1 LRH      0.118400
      2 C2          1.5590   -0.7320   -1.5250 c3        1 LRH      0.262600
      3 C3          0.8830   -0.4580   -0.1570 c3        1 LRH      0.146100
      4 C4          1.8010   -1.1650    0.8700 c3        1 LRH      0.079100
      5 C5          2.8740   -1.9040    0.0420 c3        1 LRH      0.108100
      6 C6          4.2640   -1.3570    0.2840 c3        1 LRH     -0.115100
      7 O1          0.8160   -0.3480   -3.7970 oh        1 LRH     -0.594800
      8 O2          2.2980    0.4160   -1.8830 oh        1 LRH     -0.632800
      9 O3          0.7240    0.9080    0.1160 oh        1 LRH     -0.574800
     10 O4          0.9870   -2.0720    1.5910 oh        1 LRH     -0.584800
     11 O5          2.5380   -1.7510   -1.3480 os        1 LRH     -0.431600
     12 H1C1       -0.4560   -1.0830   -2.3120 h1        1 LRH      0.070200
     13 H1C2        0.8400   -2.2000   -2.9940 h1        1 LRH      0.070200
     14 H1          0.6230    0.5650   -3.5450 ho        1 LRH      0.413000
     15 H3         -0.1550   -0.8900   -0.1190 h1        1 LRH      0.112700
     16 H2          2.8250    0.1860   -2.6620 ho        1 LRH      0.441000
     17 H4          2.2640   -0.4170    1.5680 h1        1 LRH      0.062700
     18 HA          1.5720    1.3480   -0.0360 ho        1 LRH      0.422000
     19 H5          2.8360   -3.0120    0.2330 h1        1 LRH      0.075700
     20 HB          1.5430   -2.4610    2.2770 ho        1 LRH      0.406000
     21 H6C1        4.3040   -0.2730    0.0180 hc        1 LRH      0.048700
     22 H6C2        4.5430   -1.4860    1.3560 hc        1 LRH      0.048700
     23 H6C3        5.0020   -1.9020   -0.3530 hc        1 LRH      0.048700
@<TRIPOS>BOND
     1    1    2 1   
     2    1    7 1   
     3    1   12 1   
     4    1   13 1   
     5    2    3 1   
     6    2    8 1   
     7    2   11 1   
     8    3    4 1   
     9    3    9 1   
    10    3   15 1   
    11    4    5 1   
    12    4   10 1   
    13    4   17 1   
    14    5    6 1   
    15    5   11 1   
    16    5   19 1   
    17    6   21 1   
    18    6   22 1   
    19    6   23 1   
    20    7   14 1   
    21    8   16 1   
    22    9   18 1   
    23   10   20 1   
@<TRIPOS>SUBSTRUCTURE
     1 LRH         1 TEMP              0 ****  ****    0 ROOT
