@<TRIPOS>MOLECULE
LRH
   23    23     1     0     0
SMALL
bcc


@<TRIPOS>ATOM
      1 C1          1.5320   -0.4910   -0.1060 c3        1 LRH      0.118400
      2 C2          0.1520    0.1100    0.1990 c3        1 LRH      0.265600
      3 C3         -0.1910    0.2020    1.7040 c3        1 LRH      0.110100
      4 C4         -0.8200    1.6090    1.8630 c3        1 LRH      0.083100
      5 C5         -0.6110    2.3220    0.5110 c3        1 LRH      0.150100
      6 C6         -1.9230    2.6920   -0.1460 c3        1 LRH     -0.112100
      7 O1          1.7400   -0.5420   -1.5000 oh        1 LRH     -0.597800
      8 O2         -0.8890   -0.5730   -0.4560 oh        1 LRH     -0.618800
      9 O3         -1.0410   -0.8180    2.1580 oh        1 LRH     -0.582800
     10 O4         -0.1440    2.3650    2.8500 oh        1 LRH     -0.589800
     11 O5          0.1160    1.4270   -0.3490 os        1 LRH     -0.453600
     12 H1C1        2.3270    0.1130    0.4010 h1        1 LRH      0.069200
     13 H1C2        1.5600   -1.5580    0.2390 h1        1 LRH      0.069200
     14 H1          1.7540    0.3710   -1.8190 ho        1 LRH      0.418000
     15 H3          0.7410    0.1100    2.3260 h1        1 LRH      0.096700
     16 H2         -0.6140   -0.7030   -1.3750 ho        1 LRH      0.438000
     17 H4         -1.9100    1.5210    2.1190 h1        1 LRH      0.062700
     18 HA         -1.7600   -0.9210    1.5180 ho        1 LRH      0.428000
     19 H5          0.0520    3.2230    0.6350 h1        1 LRH      0.087700
     20 HB         -0.3160    1.9320    3.6960 ho        1 LRH      0.411000
     21 H6C1       -2.4880    3.3960    0.5100 hc        1 LRH      0.049700
     22 H6C2       -2.5380    1.7780   -0.3270 hc        1 LRH      0.049700
     23 H6C3       -1.7270    3.1840   -1.1280 hc        1 LRH      0.049700
@<TRIPOS>BOND
     1    1    2 1   
     2    1    7 1   
     3    1   12 1   
     4    1   13 1   
     5    2    3 1   
     6    2    8 1   
     7    2   11 1   
     8    3    4 1   
     9    3    9 1   
    10    3   15 1   
    11    4    5 1   
    12    4   10 1   
    13    4   17 1   
    14    5    6 1   
    15    5   11 1   
    16    5   19 1   
    17    6   21 1   
    18    6   22 1   
    19    6   23 1   
    20    7   14 1   
    21    8   16 1   
    22    9   18 1   
    23   10   20 1   
@<TRIPOS>SUBSTRUCTURE
     1 LRH         1 TEMP              0 ****  ****    0 ROOT
