@<TRIPOS>MOLECULE
LRH
   23    23     1     0     0
SMALL
bcc


@<TRIPOS>ATOM
      1 C1          1.5720   -0.5760    0.0820 c3        1 LRH      0.118400
      2 C2          0.1880    0.0480    0.3030 c3        1 LRH      0.265600
      3 C3         -0.2170    0.2060    1.7870 c3        1 LRH      0.110100
      4 C4         -0.8380    1.6240    1.8620 c3        1 LRH      0.083100
      5 C5         -0.5650    2.2790    0.4920 c3        1 LRH      0.150100
      6 C6         -1.8440    2.6320   -0.2340 c3        1 LRH     -0.112100
      7 O1          1.8380   -0.6870   -1.2990 oh        1 LRH     -0.597800
      8 O2         -0.8320   -0.6520   -0.3670 oh        1 LRH     -0.618800
      9 O3         -1.0960   -0.7870    2.2470 oh        1 LRH     -0.582800
     10 O4         -0.1960    2.4140    2.8440 oh        1 LRH     -0.589800
     11 O5          0.1890    1.3420   -0.2990 os        1 LRH     -0.453600
     12 H1C1        1.5760   -1.6290    0.4710 h1        1 LRH      0.069200
     13 H1C2        2.3530    0.0420    0.5970 h1        1 LRH      0.069200
     14 H1          1.8750    0.2120   -1.6540 ho        1 LRH      0.418000
     15 H3          0.6870    0.1310    2.4520 h1        1 LRH      0.096700
     16 H2         -0.5200   -0.8220   -1.2670 ho        1 LRH      0.438000
     17 H4         -1.9380    1.5560    2.0750 h1        1 LRH      0.062700
     18 HA         -1.7890   -0.9100    1.5820 ho        1 LRH      0.428000
     19 H5          0.1020    3.1780    0.6070 h1        1 LRH      0.087700
     20 HB         -0.4070    2.0180    3.6990 ho        1 LRH      0.411000
     21 H6C1       -2.4290    3.3680    0.3670 hc        1 LRH      0.049700
     22 H6C2       -2.4610    1.7160   -0.4030 hc        1 LRH      0.049700
     23 H6C3       -1.6020    3.0810   -1.2270 hc        1 LRH      0.049700
@<TRIPOS>BOND
     1    1    2 1   
     2    1    7 1   
     3    1   12 1   
     4    1   13 1   
     5    2    3 1   
     6    2    8 1   
     7    2   11 1   
     8    3    4 1   
     9    3    9 1   
    10    3   15 1   
    11    4    5 1   
    12    4   10 1   
    13    4   17 1   
    14    5    6 1   
    15    5   11 1   
    16    5   19 1   
    17    6   21 1   
    18    6   22 1   
    19    6   23 1   
    20    7   14 1   
    21    8   16 1   
    22    9   18 1   
    23   10   20 1   
@<TRIPOS>SUBSTRUCTURE
     1 LRH         1 TEMP              0 ****  ****    0 ROOT
