@<TRIPOS>MOLECULE
LRO
   33    34     1     0     0
SMALL
bcc


@<TRIPOS>ATOM
      1 OAB        -2.0710   -3.1530    0.3860 o         1 LRO     -0.793300
      2 CAN        -1.3640   -2.1900   -0.0060 c         1 LRO      0.921800
      3 OAE        -0.1840   -2.2510   -0.4250 o         1 LRO     -0.793300
      4 CAQ        -2.0500   -0.7890    0.0150 cc        1 LRO      0.043400
      5 NAL        -3.4060   -0.7960   -0.2810 n         1 LRO     -0.436100
      6 CAS        -4.1830    0.3680   -0.2390 c         1 LRO      0.790500
      7 OAC        -5.4160    0.3410   -0.4760 o         1 LRO     -0.697500
      8 NAM        -3.5380    1.5780    0.0560 n         1 LRO     -0.592500
      9 CAT        -2.1610    1.6480    0.3540 c         1 LRO      0.716700
     10 OAD        -1.7000    2.7740    0.6300 o         1 LRO     -0.668500
     11 CAR        -1.4100    0.3880    0.3160 cd        1 LRO     -0.291400
     12 CAK         0.0400    0.4610    0.6220 c3        1 LRO      0.008800
     13 CAJ         0.8630    0.6970   -0.6380 c3        1 LRO     -0.039100
     14 CAP         2.3140    0.4830   -0.3890 ca        1 LRO     -0.060300
     15 CAH         2.7910   -0.8230   -0.1970 ca        1 LRO     -0.127000
     16 CAF         4.1450   -1.0470    0.0240 ca        1 LRO     -0.140000
     17 CAO         5.0490    0.0230    0.0570 ca        1 LRO     -0.105300
     18 CAA         6.4920   -0.2280    0.2790 c3        1 LRO     -0.041800
     19 CAG         4.5720    1.3230   -0.1330 ca        1 LRO     -0.140000
     20 CAI         3.2140    1.5510   -0.3540 ca        1 LRO     -0.127000
     21 H2         -4.0930    2.4020    0.0730 hn        1 LRO      0.330500
     22 H4          0.2270    1.2910    1.3530 hc        1 LRO      0.058200
     23 H5          0.3670   -0.5090    1.0880 hc        1 LRO      0.058200
     24 H6          0.5200   -0.0370   -1.4210 hc        1 LRO      0.058200
     25 H7          0.6760    1.7340   -1.0200 hc        1 LRO      0.058200
     26 H8          2.0680   -1.6620   -0.2240 ha        1 LRO      0.157000
     27 H9          4.5120   -2.0730    0.1760 ha        1 LRO      0.116500
     28 H10         6.9730   -0.5690   -0.6720 hc        1 LRO      0.031033
     29 H11         7.0150    0.6980    0.6230 hc        1 LRO      0.031033
     30 H12         6.6410   -1.0240    1.0480 hc        1 LRO      0.031033
     31 H13         5.2700    2.1710   -0.1060 ha        1 LRO      0.116500
     32 H14         2.8480    2.5780   -0.4980 ha        1 LRO      0.157000
     33 H15        -3.8670   -1.6780   -0.3770 hn        1 LRO      0.366500
@<TRIPOS>BOND
     1    1    2 1   
     2    2    3 1   
     3    2    4 1   
     4    4    5 1   
     5    4   11 2   
     6    5    6 1   
     7    5   33 1   
     8    6    7 2   
     9    6    8 1   
    10    8    9 1   
    11    8   21 1   
    12    9   10 2   
    13    9   11 1   
    14   11   12 1   
    15   12   13 1   
    16   12   22 1   
    17   12   23 1   
    18   13   14 1   
    19   13   24 1   
    20   13   25 1   
    21   14   15 ar  
    22   14   20 ar  
    23   15   16 ar  
    24   15   26 1   
    25   16   17 ar  
    26   16   27 1   
    27   17   18 1   
    28   17   19 ar  
    29   18   28 1   
    30   18   29 1   
    31   18   30 1   
    32   19   20 ar  
    33   19   31 1   
    34   20   32 1   
@<TRIPOS>SUBSTRUCTURE
     1 LRO         1 TEMP              0 ****  ****    0 ROOT
