@<TRIPOS>MOLECULE
LRO
   33    34     1     0     0
SMALL
bcc


@<TRIPOS>ATOM
      1 OAB         0.1680    0.2430    0.1630 o         1 LRO     -0.793300
      2 CAN         1.3420   -0.2090    0.1710 c         1 LRO      0.921800
      3 OAE         1.9350   -0.7310    1.1450 o         1 LRO     -0.793300
      4 CAQ         2.1120   -0.1260   -1.1830 cc        1 LRO      0.043400
      5 NAL         1.3290   -0.3010   -2.3150 ns        1 LRO     -0.436100
      6 CAS         1.8530   -0.1900   -3.6080 c         1 LRO      0.790500
      7 OAC         1.1250   -0.3180   -4.6240 o         1 LRO     -0.697500
      8 NAM         3.2290    0.0480   -3.7400 ns        1 LRO     -0.592500
      9 CAT         4.0770    0.2240   -2.6270 c         1 LRO      0.716700
     10 OAD         5.2790    0.4590   -2.8640 o         1 LRO     -0.668500
     11 CAR         3.4590    0.1190   -1.3000 cd        1 LRO     -0.291400
     12 CAK         4.3500    0.2950   -0.1270 c3        1 LRO      0.008800
     13 CAJ         4.9460   -1.0320    0.3230 c3        1 LRO     -0.039100
     14 CAP         5.5980   -0.9120    1.6540 ca        1 LRO     -0.060300
     15 CAH         4.7990   -0.7640    2.7990 ca        1 LRO     -0.126500
     16 CAF         5.3880   -0.6630    4.0550 ca        1 LRO     -0.140000
     17 CAO         6.7820   -0.7090    4.1950 ca        1 LRO     -0.105300
     18 CAA         7.3980   -0.6160    5.5380 c3        1 LRO     -0.041800
     19 CAG         7.5750   -0.8550    3.0540 ca        1 LRO     -0.140000
     20 CAI         6.9880   -0.9550    1.7930 ca        1 LRO     -0.126500
     21 H2          3.5970    0.1150   -4.6610 hn        1 LRO      0.330500
     22 H4          3.7570    0.7300    0.7240 hc        1 LRO      0.058200
     23 H5          5.1760    1.0080   -0.3890 hc        1 LRO      0.058200
     24 H6          5.6780   -1.3950   -0.4450 hc        1 LRO      0.058200
     25 H7          4.1090   -1.7820    0.3990 hc        1 LRO      0.058200
     26 H8          3.6990   -0.7280    2.6760 ha        1 LRO      0.157000
     27 H9          4.7560   -0.5450    4.9470 ha        1 LRO      0.116500
     28 H10         6.8580    0.1310    6.1710 hc        1 LRO      0.031033
     29 H11         8.4710   -0.3120    5.4700 hc        1 LRO      0.031033
     30 H12         7.3480   -1.6090    6.0530 hc        1 LRO      0.031033
     31 H13         8.6700   -0.8890    3.1500 ha        1 LRO      0.116500
     32 H14         7.6230   -1.0660    0.9010 ha        1 LRO      0.157000
     33 H15         0.3370   -0.3570   -2.2030 hn        1 LRO      0.366500
@<TRIPOS>BOND
     1    1    2 1   
     2    2    3 1   
     3    2    4 1   
     4    4    5 1   
     5    4   11 2   
     6    5    6 1   
     7    5   33 1   
     8    6    7 2   
     9    6    8 1   
    10    8    9 1   
    11    8   21 1   
    12    9   10 2   
    13    9   11 1   
    14   11   12 1   
    15   12   13 1   
    16   12   22 1   
    17   12   23 1   
    18   13   14 1   
    19   13   24 1   
    20   13   25 1   
    21   14   15 ar  
    22   14   20 ar  
    23   15   16 ar  
    24   15   26 1   
    25   16   17 ar  
    26   16   27 1   
    27   17   18 1   
    28   17   19 ar  
    29   18   28 1   
    30   18   29 1   
    31   18   30 1   
    32   19   20 ar  
    33   19   31 1   
    34   20   32 1   
@<TRIPOS>SUBSTRUCTURE
     1 LRO         1 TEMP              0 ****  ****    0 ROOT
