@<TRIPOS>MOLECULE
LRO
   33    26     1     0     0
SMALL
bcc


@<TRIPOS>ATOM
      1 OAB        -2.4220    2.4280   -1.6910 o         1 LRO     -0.527500
      2 CAN        -2.6330    1.1920   -1.8320 c1        1 LRO      0.371000
      3 OAE        -3.5860    0.6430   -1.2180 o         1 LRO     -0.527500
      4 CAQ        -1.7630    0.3770   -2.7640 c1        1 LRO      0.060000
      5 NAL        -2.0140    0.3870   -4.1600 n3        1 LRO     -0.279000
      6 CAS        -1.3100   -0.5470   -5.0370 c1        1 LRO      0.381000
      7 OAC        -1.6120   -0.6210   -6.2130 o         1 LRO     -0.422000
      8 NAM        -0.2390   -1.3890   -4.5040 n2        1 LRO     -0.372000
      9 CAT         0.0480   -1.3750   -3.1140 c1        1 LRO      0.355000
     10 OAD         0.9130   -2.1000   -2.6650 o         1 LRO     -0.394000
     11 CAR        -0.7180   -0.4980   -2.2150 c1        1 LRO     -0.266000
     12 CAK        -0.5020   -0.5750   -0.7170 c2        1 LRO     -0.088000
     13 CAJ         0.5870    0.3940   -0.3130 c3        1 LRO     -0.122000
     14 CAP         0.8320    0.2870    1.1810 c1        1 LRO     -0.056000
     15 CAH        -0.0870    0.8190    2.0750 c1        1 LRO     -0.125000
     16 CAF         0.1600    0.7650    3.4380 c1        1 LRO     -0.125000
     17 CAO         1.3260    0.1800    3.9080 c1        1 LRO     -0.097000
     18 CAA         1.6030    0.1350    5.3950 c2        1 LRO     -0.167000
     19 CAG         2.2440   -0.3520    3.0160 c1        1 LRO     -0.143000
     20 CAI         1.9960   -0.2990    1.6520 c1        1 LRO     -0.137000
     21 H2          0.1990   -1.9710   -5.0540 hn        1 LRO      0.244000
     22 H4         -0.2360   -1.4850   -0.4720 ha        1 LRO      0.107500
     23 H5         -1.3320   -0.3430   -0.2560 ha        1 LRO      0.107500
     24 H6          1.4100    0.1790   -0.7950 hc        1 LRO      0.091500
     25 H7          0.3100    1.3060   -0.5330 hc        1 LRO      0.091500
     26 H8         -0.9110    1.2250    1.7430 ha        1 LRO      0.157500
     27 H9         -0.4750    1.1610    4.0650 ha        1 LRO      0.157500
     28 H10         2.2240    0.8550    5.6330 ha        1 LRO      0.070667
     29 H11         2.0000   -0.7300    5.6280 ha        1 LRO      0.070667
     30 H12         0.7640    0.2530    5.8870 ha        1 LRO      0.070667
     31 H13         3.0750   -0.7460    3.3470 ha        1 LRO      0.112000
     32 H14         2.7660   -0.5290    1.0940 ha        1 LRO      0.123000
     33 H15        -2.6170    0.9770   -4.5100 hn        1 LRO      0.279000
@<TRIPOS>BOND
     1    1    2 1   
     2    2    3 1   
     3    4    5 1   
     4    4   11 1   
     5    5    6 1   
     6    5   33 1   
     7    6    7 1   
     8    8    9 1   
     9    8   21 1   
    10    9   10 1   
    11   12   13 1   
    12   12   22 1   
    13   12   23 1   
    14   13   14 1   
    15   13   24 1   
    16   13   25 1   
    17   14   20 1   
    18   15   16 1   
    19   15   26 1   
    20   16   27 1   
    21   17   19 1   
    22   18   28 1   
    23   18   29 1   
    24   18   30 1   
    25   19   31 1   
    26   20   32 1   
@<TRIPOS>SUBSTRUCTURE
     1 LRO         1 TEMP              0 ****  ****    0 ROOT
