@<TRIPOS>MOLECULE
LRO
   33    34     1     0     0
SMALL
bcc


@<TRIPOS>ATOM
      1 OAB         0.1670    0.2320    0.1610 o         1 LRO     -0.793300
      2 CAN         1.3420   -0.2160    0.1690 c         1 LRO      0.921800
      3 OAE         1.9360   -0.7390    1.1410 o         1 LRO     -0.793300
      4 CAQ         2.1130   -0.1260   -1.1840 cc        1 LRO      0.043400
      5 NAL         1.3310   -0.3000   -2.3170 n         1 LRO     -0.436100
      6 CAS         1.8560   -0.1830   -3.6090 c         1 LRO      0.790500
      7 OAC         1.1290   -0.3090   -4.6260 o         1 LRO     -0.697500
      8 NAM         3.2310    0.0590   -3.7400 n         1 LRO     -0.592500
      9 CAT         4.0770    0.2340   -2.6250 c         1 LRO      0.716700
     10 OAD         5.2800    0.4730   -2.8600 o         1 LRO     -0.668500
     11 CAR         3.4590    0.1230   -1.3000 cd        1 LRO     -0.291400
     12 CAK         4.3490    0.2970   -0.1250 c3        1 LRO      0.008800
     13 CAJ         4.9480   -1.0300    0.3210 c3        1 LRO     -0.039100
     14 CAP         5.5990   -0.9120    1.6540 ca        1 LRO     -0.060300
     15 CAH         4.7990   -0.7700    2.7980 ca        1 LRO     -0.127000
     16 CAF         5.3860   -0.6720    4.0540 ca        1 LRO     -0.140000
     17 CAO         6.7800   -0.7140    4.1960 ca        1 LRO     -0.105300
     18 CAA         7.3950   -0.6240    5.5390 c3        1 LRO     -0.041800
     19 CAG         7.5750   -0.8540    3.0550 ca        1 LRO     -0.140000
     20 CAI         6.9890   -0.9520    1.7930 ca        1 LRO     -0.127000
     21 H2          3.6000    0.1300   -4.6600 hn        1 LRO      0.330500
     22 H4          3.7540    0.7280    0.7270 hc        1 LRO      0.058200
     23 H5          5.1730    1.0140   -0.3840 hc        1 LRO      0.058200
     24 H6          5.6810   -1.3870   -0.4470 hc        1 LRO      0.058200
     25 H7          4.1130   -1.7820    0.3940 hc        1 LRO      0.058200
     26 H8          3.6990   -0.7370    2.6750 ha        1 LRO      0.157000
     27 H9          4.7530   -0.5590    4.9460 ha        1 LRO      0.116500
     28 H10         6.8590    0.1290    6.1700 hc        1 LRO      0.031033
     29 H11         8.4700   -0.3270    5.4730 hc        1 LRO      0.031033
     30 H12         7.3370   -1.6150    6.0560 hc        1 LRO      0.031033
     31 H13         8.6700   -0.8850    3.1520 ha        1 LRO      0.116500
     32 H14         7.6250   -1.0580    0.9020 ha        1 LRO      0.157000
     33 H15         0.3390   -0.3590   -2.2060 hn        1 LRO      0.366500
@<TRIPOS>BOND
     1    1    2 1   
     2    2    3 1   
     3    2    4 1   
     4    4    5 1   
     5    4   11 2   
     6    5    6 1   
     7    5   33 1   
     8    6    7 2   
     9    6    8 1   
    10    8    9 1   
    11    8   21 1   
    12    9   10 2   
    13    9   11 1   
    14   11   12 1   
    15   12   13 1   
    16   12   22 1   
    17   12   23 1   
    18   13   14 1   
    19   13   24 1   
    20   13   25 1   
    21   14   15 ar  
    22   14   20 ar  
    23   15   16 ar  
    24   15   26 1   
    25   16   17 ar  
    26   16   27 1   
    27   17   18 1   
    28   17   19 ar  
    29   18   28 1   
    30   18   29 1   
    31   18   30 1   
    32   19   20 ar  
    33   19   31 1   
    34   20   32 1   
@<TRIPOS>SUBSTRUCTURE
     1 LRO         1 TEMP              0 ****  ****    0 ROOT
