@<TRIPOS>MOLECULE
LRO
   33    34     1     0     0
SMALL
bcc


@<TRIPOS>ATOM
      1 OAB         0.1670    0.2360    0.1650 o         1 LRO     -0.793300
      2 CAN         1.3410   -0.2150    0.1740 c         1 LRO      0.921800
      3 OAE         1.9350   -0.7340    1.1490 o         1 LRO     -0.793300
      4 CAQ         2.1100   -0.1360   -1.1810 cc        1 LRO      0.043400
      5 NAL         1.3250   -0.3160   -2.3120 n         1 LRO     -0.436100
      6 CAS         1.8490   -0.2090   -3.6060 c         1 LRO      0.790500
      7 OAC         1.1210   -0.3400   -4.6210 o         1 LRO     -0.697500
      8 NAM         3.2250    0.0300   -3.7400 n         1 LRO     -0.592500
      9 CAT         4.0730    0.2090   -2.6280 c         1 LRO      0.716700
     10 OAD         5.2760    0.4440   -2.8660 o         1 LRO     -0.668500
     11 CAR         3.4560    0.1090   -1.3000 cd        1 LRO     -0.291400
     12 CAK         4.3480    0.2890   -0.1290 c3        1 LRO      0.008800
     13 CAJ         4.9460   -1.0370    0.3250 c3        1 LRO     -0.039100
     14 CAP         5.5990   -0.9120    1.6550 ca        1 LRO     -0.060300
     15 CAH         4.8010   -0.7620    2.8000 ca        1 LRO     -0.126500
     16 CAF         5.3900   -0.6580    4.0550 ca        1 LRO     -0.140000
     17 CAO         6.7840   -0.7010    4.1940 ca        1 LRO     -0.105300
     18 CAA         7.4040   -0.5760    5.5330 c3        1 LRO     -0.041800
     19 CAG         7.5770   -0.8510    3.0530 ca        1 LRO     -0.140000
     20 CAI         6.9890   -0.9550    1.7930 ca        1 LRO     -0.126500
     21 H2          3.5920    0.0940   -4.6610 hn        1 LRO      0.330500
     22 H4          5.1730    1.0020   -0.3930 hc        1 LRO      0.058200
     23 H5          3.7560    0.7250    0.7220 hc        1 LRO      0.058200
     24 H6          4.1100   -1.7870    0.4040 hc        1 LRO      0.058200
     25 H7          5.6780   -1.4000   -0.4430 hc        1 LRO      0.058200
     26 H8          3.7010   -0.7290    2.6780 ha        1 LRO      0.157000
     27 H9          4.7580   -0.5410    4.9470 ha        1 LRO      0.116500
     28 H10         7.4670    0.5020    5.8270 hc        1 LRO      0.031367
     29 H11         8.4370   -1.0010    5.5420 hc        1 LRO      0.031367
     30 H12         6.7950   -1.1100    6.3040 hc        1 LRO      0.031367
     31 H13         8.6720   -0.8870    3.1490 ha        1 LRO      0.116500
     32 H14         7.6230   -1.0690    0.9020 ha        1 LRO      0.157000
     33 H15         0.3340   -0.3710   -2.1990 hn        1 LRO      0.366500
@<TRIPOS>BOND
     1    1    2 1   
     2    2    3 1   
     3    2    4 1   
     4    4    5 1   
     5    4   11 2   
     6    5    6 1   
     7    5   33 1   
     8    6    7 2   
     9    6    8 1   
    10    8    9 1   
    11    8   21 1   
    12    9   10 2   
    13    9   11 1   
    14   11   12 1   
    15   12   13 1   
    16   12   22 1   
    17   12   23 1   
    18   13   14 1   
    19   13   24 1   
    20   13   25 1   
    21   14   15 ar  
    22   14   20 ar  
    23   15   16 ar  
    24   15   26 1   
    25   16   17 ar  
    26   16   27 1   
    27   17   18 1   
    28   17   19 ar  
    29   18   28 1   
    30   18   29 1   
    31   18   30 1   
    32   19   20 ar  
    33   19   31 1   
    34   20   32 1   
@<TRIPOS>SUBSTRUCTURE
     1 LRO         1 TEMP              0 ****  ****    0 ROOT
