@<TRIPOS>MOLECULE
LRY
   33    32     1     0     0
SMALL
bcc


@<TRIPOS>ATOM
      1 N           0.0230    0.1770   -0.3650 n         1 LRY     -0.517900
      2 P           2.0150    3.0920    6.7020 p5        1 LRY      1.433800
      3 C1          1.1420   -1.7490    0.7190 c         1 LRY      0.575900
      4 O1          0.3760   -2.6430    0.3490 o         1 LRY     -0.580100
      5 C2          1.2840   -0.3880    0.0560 c3        1 LRY     -0.031300
      6 C3          2.0270    0.5580    1.0490 c3        1 LRY      0.061100
      7 O3          2.4100    1.7230    0.3490 oh        1 LRY     -0.643800
      8 C4          1.0830    0.9290    2.2570 c3        1 LRY      0.363800
      9 O4          0.2630    1.9080    1.8900 o         1 LRY     -0.901500
     10 C5          1.9940    1.2870    3.4650 c3        1 LRY      0.073100
     11 O5          2.8260    0.1610    3.7380 oh        1 LRY     -0.649800
     12 C6          1.1560    1.6490    4.6990 c3        1 LRY      0.168400
     13 O6          1.9800    1.6970    5.8310 os        1 LRY     -0.606200
     14 C7         -0.3460    0.2630   -1.6800 c         1 LRY      0.650100
     15 O7          0.2550   -0.3260   -2.6140 o         1 LRY     -0.681100
     16 C8         -1.5890    1.0770   -1.9830 c3        1 LRY     -0.170100
     17 OP1         2.9070    2.8730    7.8590 o         1 LRY     -0.849000
     18 OP2         2.7550    4.0530    5.6040 oh        1 LRY     -0.786400
     19 OP3         0.6420    3.6390    6.7740 o         1 LRY     -0.849000
     20 HN         -0.3670    0.8360    0.3020 hn        1 LRY      0.373500
     21 H1          1.8270   -1.9050    1.5850 h4        1 LRY      0.007200
     22 H2          1.9420   -0.5440   -0.8540 h1        1 LRY      0.071700
     23 H3          2.9740    0.0600    1.3820 h1        1 LRY      0.051700
     24 HO3         1.7560    2.4080    0.5870 ho        1 LRY      0.430000
     25 H4          0.5480   -0.0380    2.5360 h1        1 LRY     -0.068300
     26 HO4         2.1510    4.3760    4.9460 ho        1 LRY      0.424000
     27 H5          2.6560    2.1550    3.1940 h1        1 LRY      0.023700
     28 HO5         3.1380    0.2700    4.6460 ho        1 LRY      0.407000
     29 H6          0.3850    0.8440    4.8600 h1        1 LRY      0.035200
     30 H6A         0.6360    2.6310    4.5400 h1        1 LRY      0.035200
     31 H8         -1.4510    2.1330   -1.6480 hc        1 LRY      0.049033
     32 H8A        -2.4720    0.6440   -1.4570 hc        1 LRY      0.049033
     33 H8B        -1.7730    1.0610   -3.0830 hc        1 LRY      0.049033
@<TRIPOS>BOND
     1    1    5 1   
     2    1   14 1   
     3    1   20 1   
     4    2   13 1   
     5    2   17 1   
     6    2   18 1   
     7    2   19 1   
     8    3    4 2   
     9    3    5 1   
    10    3   21 1   
    11    5    6 1   
    12    5   22 1   
    13    6    7 1   
    14    6    8 1   
    15    6   23 1   
    16    7   24 1   
    17    8    9 1   
    18    8   10 1   
    19    8   25 1   
    20   10   11 1   
    21   10   12 1   
    22   10   27 1   
    23   11   28 1   
    24   12   13 1   
    25   12   29 1   
    26   12   30 1   
    27   14   15 2   
    28   14   16 1   
    29   16   31 1   
    30   16   32 1   
    31   16   33 1   
    32   18   26 1   
@<TRIPOS>SUBSTRUCTURE
     1 LRY         1 TEMP              0 ****  ****    0 ROOT
