@<TRIPOS>MOLECULE
LS1
   38    34     1     0     0
SMALL
bcc


@<TRIPOS>ATOM
      1 N1          1.7920   -0.4720    4.9170 n         1 LS1     -0.325000
      2 C2          1.9280   -0.4920    3.4880 c2        1 LS1      0.358000
      3 C3          0.6090   -0.2830    2.9090 c2        1 LS1     -0.234000
      4 C4         -1.7290    0.2230    4.0540 c1        1 LS1     -0.090000
      5 C5         -2.3790    0.4550    5.2730 c1        1 LS1     -0.127500
      6 C6         -1.6720    0.3380    6.4810 c1        1 LS1     -0.127500
      7 C7         -0.3190   -0.0100    6.4680 c1        1 LS1     -0.161000
      8 C8          0.3360   -0.2440    5.2460 c2        1 LS1      0.061000
      9 C9         -0.3710   -0.1260    4.0390 c2        1 LS1     -0.064000
     10 O11         2.9830   -0.5690    2.8660 o         1 LS1     -0.372000
     11 C12         0.3320   -0.1170    1.5720 c1        1 LS1      0.096000
     12 N17         1.4060   -0.1420    0.5980 n2        1 LS1     -0.258000
     13 C20         1.0980   -0.1610   -0.8200 c2        1 LS1      0.145000
     14 C21         0.5920   -1.3260   -1.4110 c2        1 LS1     -0.215000
     15 C22         0.3000   -1.3460   -2.7640 c1        1 LS1      0.022000
     16 C23         0.5080   -0.2060   -3.5400 c1        1 LS1     -0.868000
     17 C24         1.0080    0.9480   -2.9550 c1        1 LS1      0.021000
     18 C25         1.3040    0.9670   -1.5860 c1        1 LS1     -0.209000
     19 S30         0.2390   -0.2650   -5.2840 s4        1 LS1      2.076800
     20 O31         0.2260   -1.6150   -5.7630 o         1 LS1     -0.544400
     21 O32         1.3590    0.2750   -6.0020 o         1 LS1     -0.544400
     22 N33        -1.1730    0.5300   -5.6790 n2        1 LS1     -0.893000
     23 C35        -1.5620    0.6660   -7.0640 c3        1 LS1     -0.065000
     24 H1N         2.4710   -0.5800    5.5250 hn        1 LS1      0.256000
     25 H41        -2.2250    0.3060    3.2100 ha        1 LS1      0.131000
     26 H51        -3.3410    0.7020    5.2830 ha        1 LS1      0.134000
     27 H61        -2.1350    0.5030    7.3450 ha        1 LS1      0.134000
     28 H71         0.1750   -0.0920    7.3150 ha        1 LS1      0.140000
     29 H121       -0.5780    0.0160    1.2810 ha        1 LS1      0.159000
     30 H17N        2.2740   -0.0710    0.8750 hn        1 LS1      0.273000
     31 H211        0.4460   -2.1250   -0.8690 ha        1 LS1      0.140000
     32 H221       -0.0530   -2.1600   -3.1750 ha        1 LS1      0.155000
     33 H241        1.1540    1.7440   -3.4960 ha        1 LS1      0.156000
     34 H251        1.6510    1.7650   -1.1800 ha        1 LS1      0.150000
     35 H33N       -1.7060    0.8720   -5.0180 hn        1 LS1      0.243000
     36 H351       -0.8060    0.4090   -7.6450 h1        1 LS1      0.082000
     37 H352       -2.3320    0.0800   -7.2490 h1        1 LS1      0.082000
     38 H353       -1.8110    1.5990   -7.2450 h1        1 LS1      0.082000
@<TRIPOS>BOND
     1    1    2 1   
     2    1    8 1   
     3    1   24 1   
     4    2    3 1   
     5    2   10 1   
     6    3    9 1   
     7    3   11 1   
     8    4    9 1   
     9    4   25 1   
    10    5    6 1   
    11    5   26 1   
    12    6   27 1   
    13    7    8 1   
    14    7   28 1   
    15    8    9 1   
    16   11   29 1   
    17   12   13 1   
    18   12   30 1   
    19   13   14 1   
    20   13   18 1   
    21   14   15 1   
    22   14   31 1   
    23   15   32 1   
    24   16   17 1   
    25   16   19 1   
    26   17   33 1   
    27   18   34 1   
    28   19   20 1   
    29   19   21 1   
    30   22   23 1   
    31   22   35 1   
    32   23   36 1   
    33   23   37 1   
    34   23   38 1   
@<TRIPOS>SUBSTRUCTURE
     1 LS1         1 TEMP              0 ****  ****    0 ROOT
