@<TRIPOS>MOLECULE
LS1
   40    42     1     0     0
SMALL
bcc


@<TRIPOS>ATOM
      1 N1          0.3810    1.6470    1.2510 n         1 LS1     -0.426100
      2 C2          1.6540    1.2540    0.8790 c         1 LS1      0.694700
      3 C3          1.8530   -0.1990    1.3320 cc        1 LS1      0.025600
      4 C4          0.1820   -1.7380    2.5930 ca        1 LS1     -0.019000
      5 C5         -1.1110   -1.7820    3.1250 ca        1 LS1     -0.147000
      6 C6         -1.9590   -0.6770    3.0490 ca        1 LS1     -0.028000
      7 C7         -1.5540    0.5210    2.4390 ca        1 LS1     -0.136000
      8 C8         -0.2720    0.5750    1.9100 ca        1 LS1      0.075600
      9 C9          0.6130   -0.5670    1.9850 ca        1 LS1     -0.181800
     10 O11         2.5260    1.9290    0.3010 o         1 LS1     -0.651500
     11 C12         2.9620   -0.9310    1.1170 c2        1 LS1     -0.135000
     12 N17         4.1040   -0.4290    0.3530 n4        1 LS1     -0.530200
     13 C20         5.2350   -0.0380    1.2100 ca        1 LS1      0.079600
     14 C21         6.1440   -1.0090    1.6650 ca        1 LS1     -0.120000
     15 C22         7.2050   -0.6170    2.4770 ca        1 LS1      0.020000
     16 C23         7.3870    0.7270    2.8500 ca        1 LS1     -0.466500
     17 C24         6.4660    1.6780    2.3770 ca        1 LS1      0.020000
     18 C25         5.3970    1.3130    1.5620 ca        1 LS1     -0.120000
     19 S30         8.5490    1.1480    3.9370 sy        1 LS1      1.458200
     20 O31         9.0740    0.0570    4.5920 o         1 LS1     -0.539300
     21 O32         8.3000    2.3650    4.5280 o         1 LS1     -0.539300
     22 N33         9.9270    1.5760    2.7270 n4        1 LS1     -0.704900
     23 C35        11.1190    2.0210    3.4740 c3        1 LS1      0.058100
     24 H1N        -0.0350    2.5250    1.0500 hn        1 LS1      0.381500
     25 H41         0.8390   -2.6190    2.6570 ha        1 LS1      0.149000
     26 H51        -1.4650   -2.7080    3.6100 ha        1 LS1      0.172000
     27 H61        -2.9760   -0.7390    3.4740 ha        1 LS1      0.175000
     28 H71        -2.2410    1.3810    2.3870 ha        1 LS1      0.176000
     29 H121        3.0890   -1.9680    1.4820 hx        1 LS1      0.207000
     30 H17N        4.4090   -1.1740   -0.2910 hn        1 LS1      0.487300
     31 H211        6.0320   -2.0770    1.4030 ha        1 LS1      0.202000
     32 H221        7.9010   -1.3940    2.8560 ha        1 LS1      0.195500
     33 H241        6.5660    2.7430    2.6760 ha        1 LS1      0.195500
     34 H251        4.6820    2.0890    1.2140 ha        1 LS1      0.202000
     35 H33N       10.1870    0.7740    2.1540 hn        1 LS1      0.455800
     36 H351       10.8580    2.9320    4.0840 hx        1 LS1      0.123367
     37 H352       11.9590    2.2870    2.7750 hx        1 LS1      0.123367
     38 H353       11.4650    1.1900    4.1510 hx        1 LS1      0.123367
     39 H172        3.8120    0.4030   -0.2070 hn        1 LS1      0.487300
     40 H332        9.6490    2.3220    2.0880 hn        1 LS1      0.455800
@<TRIPOS>BOND
     1    1    2 1   
     2    1    8 1   
     3    1   24 1   
     4    2    3 1   
     5    2   10 2   
     6    3    9 1   
     7    3   11 2   
     8    4    5 ar  
     9    4    9 ar  
    10    4   25 1   
    11    5    6 ar  
    12    5   26 1   
    13    6    7 ar  
    14    6   27 1   
    15    7    8 ar  
    16    7   28 1   
    17    8    9 ar  
    18   11   12 1   
    19   11   29 1   
    20   12   13 1   
    21   12   30 1   
    22   12   39 1   
    23   13   14 ar  
    24   13   18 ar  
    25   14   15 ar  
    26   14   31 1   
    27   15   16 ar  
    28   15   32 1   
    29   16   17 ar  
    30   16   19 1   
    31   17   18 ar  
    32   17   33 1   
    33   18   34 1   
    34   19   20 2   
    35   19   21 2   
    36   19   22 1   
    37   22   23 1   
    38   22   35 1   
    39   22   40 1   
    40   23   36 1   
    41   23   37 1   
    42   23   38 1   
@<TRIPOS>SUBSTRUCTURE
     1 LS1         1 TEMP              0 ****  ****    0 ROOT
