@<TRIPOS>MOLECULE
LS1
   39    40     1     0     0
SMALL
bcc


@<TRIPOS>ATOM
      1 N1         -0.0810    0.0210   -0.1500 ns        1 LS1     -0.457100
      2 C2          1.3130   -0.0090   -0.0320 c         1 LS1      0.707700
      3 C3          1.6510   -0.0490    1.4440 cc        1 LS1     -0.112400
      4 C4          0.0300   -0.0700    3.4810 ca        1 LS1     -0.061000
      5 C5         -1.3250   -0.0550    3.8340 ca        1 LS1     -0.154000
      6 C6         -2.3200   -0.0140    2.8590 ca        1 LS1     -0.070000
      7 C7         -2.0090    0.0140    1.4940 ca        1 LS1     -0.152000
      8 C8         -0.6650   -0.0000    1.1340 ca        1 LS1      0.068600
      9 C9          0.3690   -0.0420    2.1400 ca        1 LS1     -0.128800
     10 O11         2.1190   -0.0030   -0.9760 o         1 LS1     -0.628500
     11 C12         2.8940   -0.0840    1.9700 c2        1 LS1      0.075000
     12 N17         4.0470   -0.0940    1.1790 nu        1 LS1     -0.569400
     13 C20         5.3240   -0.0910    1.6370 ca        1 LS1      0.313600
     14 C21         6.4080   -0.1270    0.6880 ca        1 LS1     -0.229000
     15 C22         7.7070   -0.1340    1.1080 ca        1 LS1      0.062000
     16 C23         8.0690   -0.1020    2.4890 ca        1 LS1     -0.697500
     17 C24         6.9870   -0.0620    3.4170 ca        1 LS1      0.062000
     18 C25         5.6760   -0.0560    3.0290 ca        1 LS1     -0.229000
     19 S30         9.5420   -0.1670    2.9480 s4        1 LS1      1.675300
     20 O31        10.4890   -0.4260    1.9980 o         1 LS1     -0.456900
     21 O32         9.7800   -0.3420    4.2810 o         1 LS1     -0.456900
     22 N33         9.8860    2.0580    2.9240 n8        1 LS1     -1.007800
     23 C35        10.5920    2.5040    4.1130 c3        1 LS1      0.096100
     24 H1N        -0.5840    0.0400   -1.0000 hn        1 LS1      0.359500
     25 H41         0.8050   -0.1030    4.2600 ha        1 LS1      0.134000
     26 H51        -1.6050   -0.0770    4.8980 ha        1 LS1      0.149000
     27 H61        -3.3790   -0.0030    3.1630 ha        1 LS1      0.151000
     28 H71        -2.8070    0.0450    0.7390 ha        1 LS1      0.156000
     29 H121        3.0400   -0.1130    3.0670 h4        1 LS1      0.170000
     30 H17N        3.9050   -0.1070    0.1770 hn        1 LS1      0.495800
     31 H211        6.1830   -0.1580   -0.3930 ha        1 LS1      0.171500
     32 H221        8.5190   -0.1800    0.3560 ha        1 LS1      0.166000
     33 H241        7.2290   -0.0470    4.4990 ha        1 LS1      0.166000
     34 H251        4.8900   -0.0280    3.8000 ha        1 LS1      0.171500
     35 H33N       10.4300    2.2650    2.0990 hn        1 LS1      0.406300
     36 H351       10.6750    3.6230    4.1630 h1        1 LS1      0.081367
     37 H352       11.6290    2.0700    4.1170 h1        1 LS1      0.081367
     38 H353       10.0460    2.1390    5.0240 h1        1 LS1      0.081367
     39 H332        8.9990    2.5300    2.8440 hn        1 LS1      0.406300
@<TRIPOS>BOND
     1    1    2 1   
     2    1    8 1   
     3    1   24 1   
     4    2    3 1   
     5    2   10 2   
     6    3    9 1   
     7    3   11 2   
     8    4    5 ar  
     9    4    9 ar  
    10    4   25 1   
    11    5    6 ar  
    12    5   26 1   
    13    6    7 ar  
    14    6   27 1   
    15    7    8 ar  
    16    7   28 1   
    17    8    9 ar  
    18   11   12 1   
    19   11   29 1   
    20   12   13 1   
    21   12   30 1   
    22   13   14 ar  
    23   13   18 ar  
    24   14   15 ar  
    25   14   31 1   
    26   15   16 ar  
    27   15   32 1   
    28   16   17 ar  
    29   16   19 1   
    30   17   18 ar  
    31   17   33 1   
    32   18   34 1   
    33   19   20 1   
    34   19   21 1   
    35   22   23 1   
    36   22   35 1   
    37   22   39 1   
    38   23   36 1   
    39   23   37 1   
    40   23   38 1   
@<TRIPOS>SUBSTRUCTURE
     1 LS1         1 TEMP              0 ****  ****    0 ROOT
