@<TRIPOS>MOLECULE
LS1
   39    40     1     0     0
SMALL
bcc


@<TRIPOS>ATOM
      1 N1         -0.0820    0.0090   -0.1480 n         1 LS1     -0.457100
      2 C2          1.3130   -0.0220   -0.0300 c         1 LS1      0.707700
      3 C3          1.6510   -0.0500    1.4470 cc        1 LS1     -0.112400
      4 C4          0.0290   -0.0530    3.4830 ca        1 LS1     -0.061000
      5 C5         -1.3260   -0.0340    3.8360 ca        1 LS1     -0.154000
      6 C6         -2.3200    0.0000    2.8610 ca        1 LS1     -0.070000
      7 C7         -2.0090    0.0170    1.4950 ca        1 LS1     -0.152000
      8 C8         -0.6650   -0.0020    1.1350 ca        1 LS1      0.068600
      9 C9          0.3680   -0.0370    2.1420 ca        1 LS1     -0.128800
     10 O11         2.1190   -0.0240   -0.9740 o         1 LS1     -0.628500
     11 C12         2.8930   -0.0840    1.9730 c2        1 LS1      0.075000
     12 N17         4.0460   -0.1010    1.1820 nh        1 LS1     -0.569400
     13 C20         5.3230   -0.0970    1.6410 ca        1 LS1      0.313600
     14 C21         6.4070   -0.1400    0.6910 ca        1 LS1     -0.229000
     15 C22         7.7060   -0.1460    1.1120 ca        1 LS1      0.062000
     16 C23         8.0680   -0.1050    2.4930 ca        1 LS1     -0.697500
     17 C24         6.9860   -0.0580    3.4210 ca        1 LS1      0.062000
     18 C25         5.6750   -0.0530    3.0310 ca        1 LS1     -0.229000
     19 S30         9.5410   -0.1690    2.9520 s4        1 LS1      1.675300
     20 O31        10.4880   -0.4360    2.0030 o         1 LS1     -0.456900
     21 O32         9.7790   -0.3370    4.2860 o         1 LS1     -0.456900
     22 N33         9.8880    2.0550    2.9140 n3        1 LS1     -1.007800
     23 C35        10.5970    2.5060    4.0990 c3        1 LS1      0.096100
     24 H1N        -0.5840    0.0230   -0.9980 hn        1 LS1      0.359500
     25 H41         0.8040   -0.0820    4.2620 ha        1 LS1      0.134000
     26 H51        -1.6060   -0.0470    4.9000 ha        1 LS1      0.149000
     27 H61        -3.3800    0.0150    3.1640 ha        1 LS1      0.151000
     28 H71        -2.8070    0.0440    0.7400 ha        1 LS1      0.156000
     29 H121        3.0390   -0.1040    3.0700 h4        1 LS1      0.170000
     30 H17N        3.9040   -0.1200    0.1800 hn        1 LS1      0.495800
     31 H211        6.1820   -0.1780   -0.3890 ha        1 LS1      0.171500
     32 H221        8.5190   -0.1980    0.3600 ha        1 LS1      0.166000
     33 H241        7.2280   -0.0370    4.5020 ha        1 LS1      0.166000
     34 H251        4.8890   -0.0190    3.8030 ha        1 LS1      0.171500
     35 H33N       10.4300    2.2570    2.0870 hn        1 LS1      0.406300
     36 H351       11.6330    2.0720    4.1030 h1        1 LS1      0.081367
     37 H352       10.0530    2.1460    5.0140 h1        1 LS1      0.081367
     38 H353       10.6800    3.6250    4.1440 h1        1 LS1      0.081367
     39 H332        9.0010    2.5270    2.8340 hn        1 LS1      0.406300
@<TRIPOS>BOND
     1    1    2 1   
     2    1    8 1   
     3    1   24 1   
     4    2    3 1   
     5    2   10 2   
     6    3    9 1   
     7    3   11 2   
     8    4    5 ar  
     9    4    9 ar  
    10    4   25 1   
    11    5    6 ar  
    12    5   26 1   
    13    6    7 ar  
    14    6   27 1   
    15    7    8 ar  
    16    7   28 1   
    17    8    9 ar  
    18   11   12 1   
    19   11   29 1   
    20   12   13 1   
    21   12   30 1   
    22   13   14 ar  
    23   13   18 ar  
    24   14   15 ar  
    25   14   31 1   
    26   15   16 ar  
    27   15   32 1   
    28   16   17 ar  
    29   16   19 1   
    30   17   18 ar  
    31   17   33 1   
    32   18   34 1   
    33   19   20 1   
    34   19   21 1   
    35   22   23 1   
    36   22   35 1   
    37   22   39 1   
    38   23   36 1   
    39   23   37 1   
    40   23   38 1   
@<TRIPOS>SUBSTRUCTURE
     1 LS1         1 TEMP              0 ****  ****    0 ROOT
