@<TRIPOS>MOLECULE
LS1
   38    40     1     0     0
SMALL
bcc


@<TRIPOS>ATOM
      1 N1         -1.5950   -0.2550   -5.0390 n         1 LS1     -0.471100
      2 C2         -1.6880   -0.2230   -3.6330 c         1 LS1      0.719700
      3 C3         -0.3100   -0.0050   -3.0910 cc        1 LS1     -0.241400
      4 C4          1.9310    0.2860   -4.3860 ca        1 LS1     -0.090000
      5 C5          2.4840    0.3300   -5.6740 ca        1 LS1     -0.156000
      6 C6          1.6850    0.1780   -6.8020 ca        1 LS1     -0.100000
      7 C7          0.3020   -0.0230   -6.6990 ca        1 LS1     -0.161000
      8 C8         -0.2560   -0.0680   -5.4260 ca        1 LS1      0.053600
      9 C9          0.5700    0.0890   -4.2510 ca        1 LS1     -0.075800
     10 O11        -2.7490   -0.3580   -3.0000 o         1 LS1     -0.647500
     11 C12         0.0250    0.0830   -1.7770 c2        1 LS1      0.178000
     12 N17        -0.8840   -0.0180   -0.7540 nh        1 LS1     -0.626400
     13 C20        -0.5790    0.0610    0.6030 ca        1 LS1      0.226600
     14 C21        -1.6460    0.0150    1.5410 ca        1 LS1     -0.212500
     15 C22        -1.3830    0.0830    2.8980 ca        1 LS1      0.021500
     16 C23        -0.0760    0.1920    3.3900 ca        1 LS1     -0.423500
     17 C24         0.9710    0.2470    2.4630 ca        1 LS1      0.021500
     18 C25         0.7420    0.1820    1.0960 ca        1 LS1     -0.212500
     19 S30         0.2210    0.3010    5.0440 sy        1 LS1      1.521200
     20 O31        -0.9130    0.8770    5.6600 o         1 LS1     -0.656800
     21 O32         1.4630    0.9480    5.2310 o         1 LS1     -0.656800
     22 N33         0.3230   -1.2420    5.5120 n3        1 LS1     -0.920100
     23 C35         1.5310   -1.9940    5.5850 c3        1 LS1      0.212100
     24 H1N        -2.3510   -0.3740   -5.6600 hn        1 LS1      0.342500
     25 H41         2.5730    0.4080   -3.5030 ha        1 LS1      0.131000
     26 H51         3.5670    0.4860   -5.7880 ha        1 LS1      0.134000
     27 H61         2.1420    0.2160   -7.8030 ha        1 LS1      0.134000
     28 H71        -0.3140   -0.1400   -7.6010 ha        1 LS1      0.140000
     29 H121        1.0850    0.2480   -1.4970 h4        1 LS1      0.159000
     30 H17N       -1.8510   -0.1420   -1.0000 hn        1 LS1      0.477800
     31 H211       -2.6880   -0.0680    1.1940 ha        1 LS1      0.145000
     32 H221       -2.2260    0.0700    3.6130 ha        1 LS1      0.155500
     33 H241        2.0070    0.3610    2.8310 ha        1 LS1      0.155500
     34 H251        1.6040    0.2290    0.4150 ha        1 LS1      0.145000
     35 H33N       -0.4840   -1.7520    5.7830 hn        1 LS1      0.447800
     36 H351        1.6280   -2.4880    6.5900 h1        1 LS1      0.042700
     37 H352        1.5560   -2.7950    4.7970 h1        1 LS1      0.042700
     38 H353        2.4150   -1.3130    5.4390 h1        1 LS1      0.042700
@<TRIPOS>BOND
     1    1    2 1   
     2    1    8 1   
     3    1   24 1   
     4    2    3 1   
     5    2   10 2   
     6    3    9 1   
     7    3   11 2   
     8    4    5 ar  
     9    4    9 ar  
    10    4   25 1   
    11    5    6 ar  
    12    5   26 1   
    13    6    7 ar  
    14    6   27 1   
    15    7    8 ar  
    16    7   28 1   
    17    8    9 ar  
    18   11   12 1   
    19   11   29 1   
    20   12   13 1   
    21   12   30 1   
    22   13   14 ar  
    23   13   18 ar  
    24   14   15 ar  
    25   14   31 1   
    26   15   16 ar  
    27   15   32 1   
    28   16   17 ar  
    29   16   19 1   
    30   17   18 ar  
    31   17   33 1   
    32   18   34 1   
    33   19   20 2   
    34   19   21 2   
    35   19   22 1   
    36   22   23 1   
    37   22   35 1   
    38   23   36 1   
    39   23   37 1   
    40   23   38 1   
@<TRIPOS>SUBSTRUCTURE
     1 LS1         1 TEMP              0 ****  ****    0 ROOT
