@<TRIPOS>MOLECULE
LS2
   42    36     1     0     0
SMALL
bcc


@<TRIPOS>ATOM
      1 N1         -5.3290   -0.1410   -1.6960 n         1 LS2     -0.320000
      2 C2         -4.0820    0.4180   -1.2660 c2        1 LS2      0.335000
      3 C3         -3.1230   -0.6840   -1.1020 c2        1 LS2     -0.171000
      4 C4         -3.3780   -3.2700   -1.5170 c1        1 LS2     -0.256000
      5 C5         -4.2700   -4.3020   -1.9430 c1        1 LS2     -0.095000
      6 C6         -5.5930   -3.9860   -2.2960 c1        1 LS2     -0.036000
      7 C7         -6.0400   -2.6550   -2.2280 c1        1 LS2     -0.165000
      8 C8         -5.1590   -1.6330   -1.8060 c2        1 LS2      0.079000
      9 C9         -3.8210   -1.9520   -1.4500 c2        1 LS2     -0.036000
     10 O11        -3.8560    1.5950   -1.0730 o         1 LS2     -0.351000
     11 N12        -1.8300   -0.5620   -0.7940 n1        1 LS2      0.067000
     12 S13        -2.0160   -3.9250   -1.1980 s         1 LS2      0.452000
     13 C14        -2.1550   -5.4330   -1.4660 c1        1 LS2     -0.304000
     14 N15        -3.4900   -5.6790   -1.9110 n1        1 LS2     -0.083000
     15 N19        -1.2810    0.6930   -0.5980 n2        1 LS2     -0.229000
     16 C21         0.0470    0.8210   -0.0480 c2        1 LS2      0.089000
     17 C22         1.1290    1.0450   -0.8890 c2        1 LS2     -0.166000
     18 C23         2.4100    1.1380   -0.3620 c1        1 LS2     -0.093000
     19 C24         2.6090    1.0070    1.0040 c1        1 LS2     -0.087000
     20 C25         1.5280    0.7830    1.8440 c1        1 LS2     -0.085000
     21 C26         0.2460    0.6900    1.3180 c1        1 LS2     -0.145000
     22 C29         4.0130    1.0380    1.5700 c3        1 LS2     -0.792000
     23 S34         4.5510    2.7370    1.7470 s4        1 LS2      2.018800
     24 O35         3.5270    3.5480    2.3330 o         1 LS2     -0.533400
     25 O36         4.7100    3.3720    0.4650 o         1 LS2     -0.533400
     26 N37         5.9530    2.8070    2.6310 n2        1 LS2     -0.900000
     27 C39         6.6390    4.0670    2.7950 c3        1 LS2     -0.069000
     28 H1N        -6.0990    0.3290   -1.8720 hn        1 LS2      0.260000
     29 H61        -6.2220   -4.7040   -2.5400 ha        1 LS2      0.156000
     30 H71        -6.9850   -2.4440   -2.4120 ha        1 LS2      0.146000
     31 H141       -1.4510   -6.1020   -1.3630 DU        1 LS2      0.192000
     32 H19N       -1.7840    1.4380   -0.7500 hn        1 LS2      0.257000
     33 H221        0.9900    1.1380   -1.8450 ha        1 LS2      0.145000
     34 H231        3.1660    1.2950   -0.9500 ha        1 LS2      0.160000
     35 H251        1.6670    0.6910    2.8000 ha        1 LS2      0.137000
     36 H261       -0.5060    0.5330    1.9040 ha        1 LS2      0.156000
     37 H291        4.6200    0.5650    0.9630 h1        1 LS2      0.148500
     38 H292        4.0200    0.6000    2.4470 h1        1 LS2      0.148500
     39 H37N        6.2590    2.0640    3.0580 hn        1 LS2      0.247000
     40 H391        5.9860    4.7700    3.0070 h1        1 LS2      0.085000
     41 H392        7.1090    4.2960    1.9620 h1        1 LS2      0.085000
     42 H393        7.2910    3.9930    3.5290 h1        1 LS2      0.085000
@<TRIPOS>BOND
     1    1    2 1   
     2    1    8 1   
     3    1   28 1   
     4    2    3 1   
     5    2   10 1   
     6    3    9 1   
     7    3   11 1   
     8    4    9 1   
     9    5    6 1   
    10    6   29 1   
    11    7    8 1   
    12    7   30 1   
    13    8    9 1   
    14   12   13 1   
    15   13   14 1   
    16   15   16 1   
    17   15   32 1   
    18   16   17 1   
    19   16   21 1   
    20   17   18 1   
    21   17   33 1   
    22   18   34 1   
    23   19   20 1   
    24   19   22 1   
    25   20   35 1   
    26   21   36 1   
    27   22   23 1   
    28   22   37 1   
    29   22   38 1   
    30   23   24 1   
    31   23   25 1   
    32   26   27 1   
    33   26   39 1   
    34   27   40 1   
    35   27   41 1   
    36   27   42 1   
@<TRIPOS>SUBSTRUCTURE
     1 LS2         1 TEMP              0 ****  ****    0 ROOT
