@<TRIPOS>MOLECULE
LS2
   43    46     1     0     0
SMALL
bcc


@<TRIPOS>ATOM
      1 N1         -0.1610   -0.1320   -0.0220 ns        1 LS2     -0.459100
      2 C2          1.2380   -0.1530   -0.0230 c         1 LS2      0.602200
      3 C3          1.7030   -0.0640    1.4320 cc        1 LS2      0.350900
      4 C4          0.2220    0.1010    3.5770 ca        1 LS2     -0.015100
      5 C5         -1.1520    0.1520    4.0270 ca        1 LS2      0.043400
      6 C6         -2.2150    0.1070    3.1090 ca        1 LS2     -0.013000
      7 C7         -1.9640    0.0130    1.7440 ca        1 LS2     -0.163000
      8 C8         -0.6360   -0.0370    1.3010 ca        1 LS2      0.087600
      9 C9          0.4640    0.0070    2.2200 ca        1 LS2     -0.156900
     10 O11         1.9660   -0.2300   -1.0220 o         1 LS2     -0.612500
     11 N12         2.9200   -0.0520    1.9090 n2        1 LS2     -0.349400
     12 S13         1.2570    0.1740    4.9090 ss        1 LS2     -0.021100
     13 C14        -0.1020    0.2660    5.9820 cc        1 LS2      0.354100
     14 N15        -1.2890    0.2470    5.4250 nd        1 LS2     -0.495100
     15 N19         3.9700   -0.1150    1.1000 nu        1 LS2     -0.438700
     16 C21         5.2790   -0.1260    1.5860 ca        1 LS2      0.256600
     17 C22         6.3440   -0.2110    0.6460 ca        1 LS2     -0.178000
     18 C23         7.6580   -0.2180    1.0790 ca        1 LS2     -0.049000
     19 C24         7.9660   -0.1250    2.4450 ca        1 LS2     -0.243300
     20 C25         6.9180   -0.0640    3.3790 ca        1 LS2     -0.049000
     21 C26         5.5970   -0.0550    2.9680 ca        1 LS2     -0.178000
     22 C29         9.3770   -0.1740    2.9020 c3        1 LS2     -0.255300
     23 S34         9.9090    1.4170    2.9820 s6        1 LS2      1.333900
     24 O35         9.4460    2.1360    4.0650 o         1 LS2     -0.547800
     25 O36        10.1750    2.0090    1.7670 o         1 LS2     -0.547800
     26 N37        11.7020    1.0200    3.6260 ny        1 LS2     -0.697900
     27 C39        12.7340    1.7500    2.8770 c3        1 LS2      0.081100
     28 H1N        -0.7360   -0.1760   -0.8240 hn        1 LS2      0.358500
     29 H61        -3.2540    0.1470    3.4760 ha        1 LS2      0.167000
     30 H71        -2.7980   -0.0220    1.0290 ha        1 LS2      0.157000
     31 H141        0.0300    0.3360    7.0670 h5        1 LS2      0.070800
     32 H19N        3.8510   -0.1870    0.0970 hn        1 LS2      0.473800
     33 H221        6.1320   -0.2780   -0.4340 ha        1 LS2      0.171000
     34 H231        8.4670   -0.2970    0.3340 ha        1 LS2      0.144000
     35 H251        7.1430   -0.0200    4.4570 ha        1 LS2      0.144000
     36 H261        4.7980    0.0020    3.7260 ha        1 LS2      0.171000
     37 H291        9.9600   -0.8190    2.1840 h1        1 LS2      0.150700
     38 H292        9.4120   -0.7230    3.8860 h1        1 LS2      0.150700
     39 H37N       11.9030    0.0250    3.5820 hn        1 LS2      0.443300
     40 H391       12.6530    1.4980    1.7840 hx        1 LS2      0.106367
     41 H392       13.7630    1.4840    3.2410 hx        1 LS2      0.106367
     42 H393       12.5760    2.8560    3.0080 hx        1 LS2      0.106367
     43 H372       11.7550    1.2950    4.6080 hn        1 LS2      0.443300
@<TRIPOS>BOND
     1    1    2 1   
     2    1    8 1   
     3    1   28 1   
     4    2    3 1   
     5    2   10 2   
     6    3    9 1   
     7    3   11 2   
     8    4    5 ar  
     9    4    9 ar  
    10    4   12 1   
    11    5    6 ar  
    12    5   14 1   
    13    6    7 ar  
    14    6   29 1   
    15    7    8 ar  
    16    7   30 1   
    17    8    9 ar  
    18   11   15 1   
    19   12   13 1   
    20   13   14 2   
    21   13   31 1   
    22   15   16 1   
    23   15   32 1   
    24   16   17 ar  
    25   16   21 ar  
    26   17   18 ar  
    27   17   33 1   
    28   18   19 ar  
    29   18   34 1   
    30   19   20 ar  
    31   19   22 1   
    32   20   21 ar  
    33   20   35 1   
    34   21   36 1   
    35   22   23 1   
    36   22   37 1   
    37   22   38 1   
    38   23   24 2   
    39   23   25 2   
    40   23   26 1   
    41   26   27 1   
    42   26   39 1   
    43   26   43 1   
    44   27   40 1   
    45   27   41 1   
    46   27   42 1   
@<TRIPOS>SUBSTRUCTURE
     1 LS2         1 TEMP              0 ****  ****    0 ROOT
