@<TRIPOS>MOLECULE
LS2
   43    46     1     0     0
SMALL
bcc


@<TRIPOS>ATOM
      1 N1         -0.1560   -0.1520   -0.0290 n         1 LS2     -0.459100
      2 C2          1.2430   -0.1730   -0.0270 c         1 LS2      0.602200
      3 C3          1.7050   -0.0730    1.4280 cc        1 LS2      0.350900
      4 C4          0.2190    0.1090    3.5690 ca        1 LS2     -0.015100
      5 C5         -1.1550    0.1630    4.0160 ca        1 LS2      0.043400
      6 C6         -2.2160    0.1110    3.0960 ca        1 LS2     -0.013000
      7 C7         -1.9620    0.0060    1.7330 ca        1 LS2     -0.163000
      8 C8         -0.6340   -0.0470    1.2920 ca        1 LS2      0.087600
      9 C9          0.4640    0.0040    2.2130 ca        1 LS2     -0.156900
     10 O11         1.9730   -0.2580   -1.0240 o         1 LS2     -0.612500
     11 N12         2.9210   -0.0560    1.9080 n2        1 LS2     -0.349400
     12 S13         1.2520    0.1920    4.9030 ss        1 LS2     -0.021100
     13 C14        -0.1090    0.2920    5.9720 cc        1 LS2      0.354100
     14 N15        -1.2950    0.2680    5.4130 nd        1 LS2     -0.495100
     15 N19         3.9730   -0.1260    1.1010 nh        1 LS2     -0.438700
     16 C21         5.2810   -0.1330    1.5900 ca        1 LS2      0.256600
     17 C22         6.3480   -0.2250    0.6530 ca        1 LS2     -0.178000
     18 C23         7.6610   -0.2290    1.0880 ca        1 LS2     -0.049000
     19 C24         7.9660   -0.1240    2.4550 ca        1 LS2     -0.243300
     20 C25         6.9160   -0.0570    3.3860 ca        1 LS2     -0.049000
     21 C26         5.5960   -0.0510    2.9720 ca        1 LS2     -0.178000
     22 C29         9.3760   -0.1700    2.9150 c3        1 LS2     -0.255300
     23 S34         9.9070    1.4220    2.9840 s6        1 LS2      1.333900
     24 O35         9.4420    2.1490    4.0600 o         1 LS2     -0.547800
     25 O36        10.1760    2.0040    1.7640 o         1 LS2     -0.547800
     26 N37        11.7000    1.0300    3.6340 n4        1 LS2     -0.697900
     27 C39        12.7330    1.7520    2.8800 c3        1 LS2      0.081100
     28 H1N        -0.7290   -0.2030   -0.8320 hn        1 LS2      0.358500
     29 H61        -3.2560    0.1530    3.4610 ha        1 LS2      0.167000
     30 H71        -2.7950   -0.0350    1.0160 ha        1 LS2      0.157000
     31 H141        0.0210    0.3700    7.0570 h5        1 LS2      0.070800
     32 H19N        3.8560   -0.2060    0.0990 hn        1 LS2      0.473800
     33 H221        6.1380   -0.3000   -0.4270 ha        1 LS2      0.171000
     34 H231        8.4710   -0.3130    0.3460 ha        1 LS2      0.144000
     35 H251        7.1390   -0.0040    4.4640 ha        1 LS2      0.144000
     36 H261        4.7950    0.0120    3.7280 ha        1 LS2      0.171000
     37 H291        9.4100   -0.7110    3.9040 h1        1 LS2      0.150700
     38 H292        9.9610   -0.8200    2.2040 h1        1 LS2      0.150700
     39 H37N       11.9010    0.0350    3.6000 hn        1 LS2      0.443300
     40 H391       12.5750    2.8600    2.9990 hx        1 LS2      0.106367
     41 H392       13.7610    1.4900    3.2480 hx        1 LS2      0.106367
     42 H393       12.6540    1.4900    1.7890 hx        1 LS2      0.106367
     43 H372       11.7510    1.3140    4.6140 hn        1 LS2      0.443300
@<TRIPOS>BOND
     1    1    2 1   
     2    1    8 1   
     3    1   28 1   
     4    2    3 1   
     5    2   10 2   
     6    3    9 1   
     7    3   11 2   
     8    4    5 ar  
     9    4    9 ar  
    10    4   12 1   
    11    5    6 ar  
    12    5   14 1   
    13    6    7 ar  
    14    6   29 1   
    15    7    8 ar  
    16    7   30 1   
    17    8    9 ar  
    18   11   15 1   
    19   12   13 1   
    20   13   14 2   
    21   13   31 1   
    22   15   16 1   
    23   15   32 1   
    24   16   17 ar  
    25   16   21 ar  
    26   17   18 ar  
    27   17   33 1   
    28   18   19 ar  
    29   18   34 1   
    30   19   20 ar  
    31   19   22 1   
    32   20   21 ar  
    33   20   35 1   
    34   21   36 1   
    35   22   23 1   
    36   22   37 1   
    37   22   38 1   
    38   23   24 2   
    39   23   25 2   
    40   23   26 1   
    41   26   27 1   
    42   26   39 1   
    43   26   43 1   
    44   27   40 1   
    45   27   41 1   
    46   27   42 1   
@<TRIPOS>SUBSTRUCTURE
     1 LS2         1 TEMP              0 ****  ****    0 ROOT
