@<TRIPOS>MOLECULE
LS2
   44    47     1     0     0
SMALL
bcc


@<TRIPOS>ATOM
      1 N1          1.1060    0.5910    0.0570 n         1 LS2     -0.434100
      2 C2          2.1430   -0.2880    0.3190 c         1 LS2      0.594200
      3 C3          2.0790   -0.6540    1.8310 cc        1 LS2      0.502900
      4 C4          0.3580    0.1630    3.5970 ca        1 LS2     -0.008100
      5 C5         -0.8110    1.0060    3.7520 ca        1 LS2      0.038400
      6 C6         -1.3470    1.7170    2.6670 ca        1 LS2      0.050000
      7 C7         -0.7610    1.6290    1.4020 ca        1 LS2     -0.165000
      8 C8          0.3640    0.8230    1.2390 ca        1 LS2      0.118600
      9 C9          0.9370    0.0840    2.3380 ca        1 LS2     -0.230900
     10 O11         3.0020   -0.7330   -0.4550 o         1 LS2     -0.612500
     11 N12         2.8540   -1.4680    2.5000 n2        1 LS2     -0.519400
     12 S13         0.7380   -0.5550    5.0620 ss        1 LS2      0.039900
     13 C14        -0.6040    0.2460    5.8300 cc        1 LS2      0.374100
     14 N15        -1.3280    1.0220    5.0620 nd        1 LS2     -0.468100
     15 N19         3.8910   -2.1710    1.8590 n4        1 LS2     -0.339500
     16 C21         5.2410   -1.5730    1.9930 ca        1 LS2     -0.003400
     17 C22         5.8660   -1.0190    0.8640 ca        1 LS2     -0.080500
     18 C23         7.1600   -0.5150    0.9850 ca        1 LS2     -0.089000
     19 C24         7.8210   -0.5420    2.2190 ca        1 LS2     -0.084300
     20 C25         7.1780   -1.0790    3.3430 ca        1 LS2     -0.089000
     21 C26         5.8850   -1.5890    3.2410 ca        1 LS2     -0.080500
     22 C29         9.2290   -0.0580    2.3260 c3        1 LS2     -0.315300
     23 S34         9.3000    1.4820    3.0160 s6        1 LS2      1.368900
     24 O35         8.9780    1.4750    4.3560 o         1 LS2     -0.536800
     25 O36         8.9150    2.4750    2.1460 o         1 LS2     -0.536800
     26 N37        11.1700    1.6520    3.0780 n4        1 LS2     -0.712900
     27 C39        11.5800    3.0670    2.9740 c3        1 LS2      0.066100
     28 H1N         0.8740    0.9550   -0.8370 hn        1 LS2      0.383500
     29 H61        -2.2430    2.3500    2.8140 ha        1 LS2      0.192000
     30 H71        -1.1920    2.1870    0.5550 ha        1 LS2      0.179000
     31 H141       -0.8270    0.1010    6.8960 h5        1 LS2      0.094800
     32 H19N        3.9050   -3.0880    2.3480 hn        1 LS2      0.477300
     33 H221        5.3540   -0.9760   -0.1180 ha        1 LS2      0.192000
     34 H231        7.6540   -0.0980    0.0890 ha        1 LS2      0.175500
     35 H251        7.6860   -1.1030    4.3230 ha        1 LS2      0.175500
     36 H261        5.3900   -1.9990    4.1390 ha        1 LS2      0.192000
     37 H291        9.6830   -0.1020    1.2920 h1        1 LS2      0.163200
     38 H292        9.7970   -0.8410    2.9130 h1        1 LS2      0.163200
     39 H37N       11.5240    1.2860    3.9670 hn        1 LS2      0.461300
     40 H391       11.1900    3.6350    3.8650 hx        1 LS2      0.122033
     41 H392       12.7010    3.1580    2.9550 hx        1 LS2      0.122033
     42 H393       11.1620    3.5130    2.0280 hx        1 LS2      0.122033
     43 H192        3.7170   -2.3320    0.8440 hn        1 LS2      0.477300
     44 H372       11.6360    1.1280    2.3370 hn        1 LS2      0.461300
@<TRIPOS>BOND
     1    1    2 1   
     2    1    8 1   
     3    1   28 1   
     4    2    3 1   
     5    2   10 2   
     6    3    9 1   
     7    3   11 2   
     8    4    5 ar  
     9    4    9 ar  
    10    4   12 1   
    11    5    6 ar  
    12    5   14 1   
    13    6    7 ar  
    14    6   29 1   
    15    7    8 ar  
    16    7   30 1   
    17    8    9 ar  
    18   11   15 1   
    19   12   13 1   
    20   13   14 2   
    21   13   31 1   
    22   15   16 1   
    23   15   32 1   
    24   15   43 1   
    25   16   17 ar  
    26   16   21 ar  
    27   17   18 ar  
    28   17   33 1   
    29   18   19 ar  
    30   18   34 1   
    31   19   20 ar  
    32   19   22 1   
    33   20   21 ar  
    34   20   35 1   
    35   21   36 1   
    36   22   23 1   
    37   22   37 1   
    38   22   38 1   
    39   23   24 2   
    40   23   25 2   
    41   23   26 1   
    42   26   27 1   
    43   26   39 1   
    44   26   44 1   
    45   27   40 1   
    46   27   41 1   
    47   27   42 1   
@<TRIPOS>SUBSTRUCTURE
     1 LS2         1 TEMP              0 ****  ****    0 ROOT
