@<TRIPOS>MOLECULE
LS2
   42    45     1     0     0
SMALL
bcc


@<TRIPOS>ATOM
      1 N1          2.6300    0.4470   -4.5050 n         1 LS2     -0.466100
      2 C2          2.6140    0.2670   -3.1110 c         1 LS2      0.608200
      3 C3          1.1750    0.0220   -2.6970 cc        1 LS2      0.269900
      4 C4         -0.9440   -0.0650   -4.2240 ca        1 LS2     -0.029100
      5 C5         -1.3810    0.0520   -5.5980 ca        1 LS2      0.044400
      6 C6         -0.4600    0.3060   -6.6280 ca        1 LS2     -0.036000
      7 C7          0.8930    0.4500   -6.3420 ca        1 LS2     -0.165000
      8 C8          1.3230    0.3380   -5.0140 ca        1 LS2      0.071600
      9 C9          0.4010    0.0780   -3.9470 ca        1 LS2     -0.119900
     10 O11         3.6100    0.3070   -2.3750 o         1 LS2     -0.626500
     11 N12         0.6810   -0.1940   -1.5000 n2        1 LS2     -0.307400
     12 S13        -2.2760   -0.3680   -3.2300 ss        1 LS2      0.000900
     13 C14        -3.3280   -0.3330   -4.6000 cc        1 LS2      0.337100
     14 N15        -2.7690   -0.1110   -5.7680 nd        1 LS2     -0.510100
     15 N19         1.4520   -0.2570   -0.4450 nh        1 LS2     -0.428700
     16 C21         0.9260   -0.3970    0.8660 ca        1 LS2      0.170600
     17 C22         1.8330   -0.3340    1.9500 ca        1 LS2     -0.155500
     18 C23         1.3730   -0.4930    3.2510 ca        1 LS2     -0.089000
     19 C24         0.0130   -0.7110    3.5100 ca        1 LS2     -0.094300
     20 C25        -0.8820   -0.7680    2.4380 ca        1 LS2     -0.089000
     21 C26        -0.4420   -0.6130    1.1270 ca        1 LS2     -0.155500
     22 C29        -0.4590   -0.9140    4.8990 c3        1 LS2     -0.245300
     23 S34        -0.3180    0.5150    5.8810 s6        1 LS2      1.446900
     24 O35        -1.2010    1.4950    5.3880 o         1 LS2     -0.645300
     25 O36         1.0510    0.8380    5.9790 o         1 LS2     -0.645300
     26 N37        -0.8770   -0.0050    7.3040 n3        1 LS2     -0.927100
     27 C39        -0.0780   -0.6160    8.3150 c3        1 LS2      0.208100
     28 H1N         3.4320    0.6280   -5.0500 hn        1 LS2      0.346500
     29 H61        -0.8150    0.3910   -7.6670 ha        1 LS2      0.156000
     30 H71         1.6110    0.6490   -7.1500 ha        1 LS2      0.146000
     31 H141       -4.4070   -0.4890   -4.4980 h5        1 LS2      0.062800
     32 H19N        2.4440   -0.0740   -0.5080 hn        1 LS2      0.461800
     33 H221        2.9060   -0.1580    1.7790 ha        1 LS2      0.150500
     34 H231        2.0850   -0.4240    4.0910 ha        1 LS2      0.148500
     35 H251       -1.9540   -0.9330    2.6250 ha        1 LS2      0.148500
     36 H261       -1.1760   -0.6600    0.3070 ha        1 LS2      0.150500
     37 H291        0.1330   -1.7590    5.3450 h1        1 LS2      0.109200
     38 H292       -1.5230   -1.2730    4.8740 h1        1 LS2      0.109200
     39 H37N       -1.8260    0.1230    7.5630 hn        1 LS2      0.451800
     40 H391       -0.2560   -0.1260    9.3110 h1        1 LS2      0.045367
     41 H392       -0.3240   -1.7090    8.4140 h1        1 LS2      0.045367
     42 H393        1.0120   -0.5100    8.0600 h1        1 LS2      0.045367
@<TRIPOS>BOND
     1    1    2 1   
     2    1    8 1   
     3    1   28 1   
     4    2    3 1   
     5    2   10 2   
     6    3    9 1   
     7    3   11 2   
     8    4    5 ar  
     9    4    9 ar  
    10    4   12 1   
    11    5    6 ar  
    12    5   14 1   
    13    6    7 ar  
    14    6   29 1   
    15    7    8 ar  
    16    7   30 1   
    17    8    9 ar  
    18   11   15 1   
    19   12   13 1   
    20   13   14 2   
    21   13   31 1   
    22   15   16 1   
    23   15   32 1   
    24   16   17 ar  
    25   16   21 ar  
    26   17   18 ar  
    27   17   33 1   
    28   18   19 ar  
    29   18   34 1   
    30   19   20 ar  
    31   19   22 1   
    32   20   21 ar  
    33   20   35 1   
    34   21   36 1   
    35   22   23 1   
    36   22   37 1   
    37   22   38 1   
    38   23   24 2   
    39   23   25 2   
    40   23   26 1   
    41   26   27 1   
    42   26   39 1   
    43   27   40 1   
    44   27   41 1   
    45   27   42 1   
@<TRIPOS>SUBSTRUCTURE
     1 LS2         1 TEMP              0 ****  ****    0 ROOT
