@<TRIPOS>MOLECULE
LS3
   43    37     1     0     0
SMALL
bcc


@<TRIPOS>ATOM
      1 O5         -2.0750    0.9600    2.9740 o         1 LS3     -0.370000
      2 C6         -0.8610    1.0260    2.9700 c1        1 LS3      0.361000
      3 N7         -0.0190    1.0370    4.1200 n2        1 LS3     -0.323000
      4 C8          1.4040    1.0480    3.6540 c2        1 LS3      0.074000
      5 C9          2.6130    1.0270    4.3500 c2        1 LS3     -0.165000
      6 C10         3.8190    1.0020    3.6520 c1        1 LS3     -0.079000
      7 C11         3.8190    0.9990    2.2500 c1        1 LS3     -0.047000
      8 C12         5.0790    0.9300    1.6740 c1        1 LS3     -0.011000
      9 O13         5.7460   -0.1950    1.3680 os        1 LS3     -0.131000
     10 C14         6.9220    0.1610    0.7790 c1        1 LS3     -0.053000
     11 N15         6.9710    1.5170    0.7250 n2        1 LS3     -0.137000
     12 C16         5.8420    1.9960    1.2740 c1        1 LS3     -0.169000
     13 C17         2.6130    1.0200    1.5530 c1        1 LS3     -0.068000
     14 C18         1.4040    1.0440    2.2500 c1        1 LS3     -0.059000
     15 C19        -0.0100    1.0300    1.7910 c2        1 LS3     -0.257000
     16 C20        -0.4260    0.9260    0.5140 c1        1 LS3      0.111000
     17 N21        -1.8100    0.7980    0.2270 n2        1 LS3     -0.256000
     18 C22        -2.2300    0.2000   -0.9890 c2        1 LS3      0.085000
     19 C23        -2.9350   -1.0130   -0.9650 c2        1 LS3     -0.144000
     20 C24        -3.3980   -1.5680   -2.1460 c1        1 LS3     -0.024000
     21 C25        -4.6280   -2.5170   -2.3340 c2        1 LS3     -0.806000
     22 S26        -4.5140   -2.9950   -3.9590 s4        1 LS3      1.999800
     23 O27        -5.7340   -2.8350   -4.7010 o         1 LS3     -0.530400
     24 O28        -4.0710   -4.3490   -4.1440 o         1 LS3     -0.530400
     25 C29        -3.3120   -1.9490   -4.5540 c2        1 LS3     -0.797000
     26 C30        -3.1530   -0.8980   -3.4010 c2        1 LS3     -0.091000
     27 C31        -2.4560    0.2990   -3.4210 c1        1 LS3     -0.065000
     28 C32        -1.9890    0.8580   -2.2220 c1        1 LS3     -0.175000
     29 H7N        -0.2980    1.0330    4.9880 hn        1 LS3      0.257000
     30 H91         2.6140    1.0300    5.3260 ha        1 LS3      0.144000
     31 H101        4.6640    0.9640    4.1400 ha        1 LS3      0.139000
     32 H141        7.6080   -0.4520    0.4530 DU        1 LS3      0.207000
     33 H161        5.6060    2.9390    1.3700 DU        1 LS3      0.207000
     34 H171        2.6130    1.0170    0.5770 ha        1 LS3      0.146000
     35 H201        0.2240    0.9390   -0.2140 ha        1 LS3      0.158000
     36 H21N       -2.4290    1.1130    0.8180 hn        1 LS3      0.272000
     37 H231       -3.0870   -1.4730   -0.1180 ha        1 LS3      0.152000
     38 H251       -4.7840   -3.3010   -1.7700 h4        1 LS3      0.174500
     39 H252       -5.4230   -1.9800   -2.1360 h4        1 LS3      0.174500
     40 H291       -2.4550   -2.3090   -4.8590 ha        1 LS3      0.171000
     41 H292       -3.6790   -1.5310   -5.3590 ha        1 LS3      0.171000
     42 H311       -2.2900    0.7520   -4.2690 ha        1 LS3      0.145000
     43 H321       -1.4930    1.6990   -2.2380 ha        1 LS3      0.140000
@<TRIPOS>BOND
     1    1    2 1   
     2    2   15 1   
     3    3    4 1   
     4    3   29 1   
     5    4    5 1   
     6    4   14 1   
     7    5    6 1   
     8    5   30 1   
     9    6   31 1   
    10    7   13 1   
    11    8    9 1   
    12    8   12 1   
    13    9   10 1   
    14   10   11 1   
    15   11   12 1   
    16   13   34 1   
    17   14   15 1   
    18   15   16 1   
    19   16   35 1   
    20   17   18 1   
    21   17   36 1   
    22   18   19 1   
    23   18   28 1   
    24   19   20 1   
    25   19   37 1   
    26   20   26 1   
    27   21   22 1   
    28   21   38 1   
    29   21   39 1   
    30   22   23 1   
    31   22   24 1   
    32   25   26 1   
    33   25   40 1   
    34   25   41 1   
    35   26   27 1   
    36   27   42 1   
    37   28   43 1   
@<TRIPOS>SUBSTRUCTURE
     1 LS3         1 TEMP              0 ****  ****    0 ROOT
