@<TRIPOS>MOLECULE
LS3
   43    47     1     0     0
SMALL
bcc


@<TRIPOS>ATOM
      1 O5          3.7450    0.1510    0.6210 o         1 LS3     -0.645500
      2 C6          2.9850    0.0970    1.6020 c         1 LS3      0.722700
      3 N7          3.4290    0.0400    2.9420 n         1 LS3     -0.469100
      4 C8          2.3220   -0.0190    3.8010 ca        1 LS3      0.066600
      5 C9          2.2730   -0.0860    5.1900 ca        1 LS3     -0.165000
      6 C10         1.0200   -0.1360    5.8060 ca        1 LS3     -0.079000
      7 C11        -0.1660   -0.1200    5.0600 ca        1 LS3     -0.154500
      8 C12        -1.4300   -0.1730    5.7430 cc        1 LS3      0.225900
      9 O13        -2.6070   -0.1560    4.9740 os        1 LS3     -0.389800
     10 C14        -3.6510   -0.2180    5.9070 cc        1 LS3      0.476300
     11 N15        -3.2150   -0.2710    7.1610 nd        1 LS3     -0.663000
     12 C16        -1.8160   -0.2440    7.0820 cd        1 LS3      0.230900
     13 C17        -0.1220   -0.0510    3.6510 ca        1 LS3     -0.068000
     14 C18         1.1030   -0.0010    3.0220 ca        1 LS3     -0.070800
     15 C19         1.4920    0.0730    1.6190 cc        1 LS3     -0.264400
     16 C20         0.6820    0.1140    0.5250 c2        1 LS3      0.193000
     17 N21         1.1450    0.1910   -0.7580 nh        1 LS3     -0.624400
     18 C22         0.3360    0.2220   -1.9020 ca        1 LS3      0.166600
     19 C23         0.9590    0.0320   -3.1660 ca        1 LS3     -0.144000
     20 C24         0.1890    0.0670   -4.3140 ca        1 LS3     -0.031300
     21 C25         0.6920   -0.1130   -5.6950 c3        1 LS3     -0.259300
     22 S26        -0.6570    0.0110   -6.7710 s6        1 LS3      1.303000
     23 O27        -0.8790   -1.2160   -7.4030 o         1 LS3     -0.642800
     24 O28        -0.5190    1.1390   -7.5840 o         1 LS3     -0.642800
     25 C29        -1.8700    0.2880   -5.5710 c3        1 LS3     -0.250300
     26 C30        -1.2060    0.2860   -4.2490 ca        1 LS3     -0.098300
     27 C31        -1.8170    0.4760   -3.0190 ca        1 LS3     -0.065000
     28 C32        -1.0550    0.4490   -1.8500 ca        1 LS3     -0.175000
     29 H7N         4.3710    0.0410    3.2330 hn        1 LS3      0.343500
     30 H91         3.1890   -0.1000    5.7960 ha        1 LS3      0.144000
     31 H101        0.9680   -0.1890    6.9050 ha        1 LS3      0.139000
     32 H141       -4.6600   -0.2150    5.4950 h5        1 LS3      0.087100
     33 H161       -1.2000   -0.2770    7.9800 h4        1 LS3      0.053100
     34 H171       -1.0610   -0.0400    3.0760 ha        1 LS3      0.146000
     35 H201       -0.4180    0.0810    0.6660 h4        1 LS3      0.158000
     36 H21N        2.1390    0.1770   -0.9030 hn        1 LS3      0.476800
     37 H231        2.0440   -0.1400   -3.2400 ha        1 LS3      0.152000
     38 H251        1.2060   -1.1070   -5.7910 h1        1 LS3      0.135200
     39 H252        1.4740    0.6590   -5.9230 h1        1 LS3      0.135200
     40 H291       -2.6690   -0.5000   -5.6020 h1        1 LS3      0.131700
     41 H292       -2.3980    1.2660   -5.7360 h1        1 LS3      0.131700
     42 H311       -2.9010    0.6520   -2.9600 ha        1 LS3      0.145000
     43 H321       -1.5680    0.6190   -0.8920 ha        1 LS3      0.140000
@<TRIPOS>BOND
     1    1    2 2   
     2    2    3 1   
     3    2   15 1   
     4    3    4 1   
     5    3   29 1   
     6    4    5 ar  
     7    4   14 ar  
     8    5    6 ar  
     9    5   30 1   
    10    6    7 ar  
    11    6   31 1   
    12    7    8 1   
    13    7   13 ar  
    14    8    9 1   
    15    8   12 2   
    16    9   10 1   
    17   10   11 2   
    18   10   32 1   
    19   11   12 1   
    20   12   33 1   
    21   13   14 ar  
    22   13   34 1   
    23   14   15 1   
    24   15   16 2   
    25   16   17 1   
    26   16   35 1   
    27   17   18 1   
    28   17   36 1   
    29   18   19 ar  
    30   18   28 ar  
    31   19   20 ar  
    32   19   37 1   
    33   20   21 1   
    34   20   26 ar  
    35   21   22 1   
    36   21   38 1   
    37   21   39 1   
    38   22   23 2   
    39   22   24 2   
    40   22   25 1   
    41   25   26 1   
    42   25   40 1   
    43   25   41 1   
    44   26   27 ar  
    45   27   28 ar  
    46   27   42 1   
    47   28   43 1   
@<TRIPOS>SUBSTRUCTURE
     1 LS3         1 TEMP              0 ****  ****    0 ROOT
