@<TRIPOS>MOLECULE
LS3
   44    48     1     0     0
SMALL
bcc


@<TRIPOS>ATOM
      1 O5         -0.1730   -0.8700   -0.2830 o         1 LS3     -0.621500
      2 C6          1.0210   -0.5380   -0.2190 c         1 LS3      0.695700
      3 N7          1.6700    0.0600    0.8570 n         1 LS3     -0.439100
      4 C8          3.0270    0.2800    0.5280 ca        1 LS3      0.074600
      5 C9          4.0390    0.8460    1.2930 ca        1 LS3     -0.140000
      6 C10         5.3130    0.9520    0.7230 ca        1 LS3     -0.044000
      7 C11         5.5800    0.5050   -0.5800 ca        1 LS3     -0.122500
      8 C12         6.9060    0.6370   -1.1180 cc        1 LS3      0.170900
      9 O13         7.1390    0.1760   -2.4290 os        1 LS3     -0.396800
     10 C14         8.4950    0.4360   -2.6650 cc        1 LS3      0.510300
     11 N15         9.0960    1.0070   -1.6270 nd        1 LS3     -0.652000
     12 C16         8.1130    1.1440   -0.6390 cd        1 LS3      0.283900
     13 C17         4.5540   -0.0700   -1.3590 ca        1 LS3     -0.020000
     14 C18         3.2900   -0.1830   -0.8140 ca        1 LS3     -0.157800
     15 C19         2.0420   -0.7190   -1.3420 cc        1 LS3     -0.015400
     16 C20         1.7980   -1.2650   -2.5430 c2        1 LS3     -0.079000
     17 N21         0.4900   -1.7860   -2.9310 n4        1 LS3     -0.520200
     18 C22         0.0530   -1.2670   -4.2350 ca        1 LS3     -0.048400
     19 C23        -0.8810   -0.2120   -4.2720 ca        1 LS3     -0.077000
     20 C24        -1.2960    0.2530   -5.5120 ca        1 LS3     -0.033300
     21 C25        -2.2650    1.3420   -5.7450 c3        1 LS3     -0.269300
     22 S26        -2.4450    1.5640   -7.4630 s6        1 LS3      1.316000
     23 O27        -1.9230    2.7990   -7.8260 o         1 LS3     -0.616300
     24 O28        -3.7350    1.2190   -7.8430 o         1 LS3     -0.616300
     25 C29        -1.3400    0.3030   -7.9260 c3        1 LS3     -0.277300
     26 C30        -0.7890   -0.3160   -6.7050 ca        1 LS3     -0.000300
     27 C31         0.1340   -1.3540   -6.6520 ca        1 LS3     -0.086000
     28 C32         0.5630   -1.8350   -5.4140 ca        1 LS3     -0.099000
     29 H7N         1.2520    0.2880    1.7250 hn        1 LS3      0.373500
     30 H91         3.8580    1.2050    2.3170 ha        1 LS3      0.168000
     31 H101        6.1270    1.3990    1.3190 ha        1 LS3      0.163000
     32 H141        8.8760    0.1450   -3.6470 h5        1 LS3      0.099100
     33 H161        8.3490    1.5910    0.3290 h4        1 LS3      0.063100
     34 H171        4.7740   -0.4160   -2.3810 ha        1 LS3      0.160000
     35 H201        2.5630   -1.3520   -3.3380 hx        1 LS3      0.204000
     36 H21N       -0.2260   -1.5480   -2.2150 hn        1 LS3      0.476800
     37 H231       -1.2850    0.2410   -3.3520 ha        1 LS3      0.170000
     38 H251       -3.2520    1.0960   -5.2640 h1        1 LS3      0.145700
     39 H252       -1.9170    2.2890   -5.2490 h1        1 LS3      0.145700
     40 H291       -0.5080    0.7060   -8.5670 h1        1 LS3      0.151200
     41 H292       -1.8520   -0.4740   -8.5590 h1        1 LS3      0.151200
     42 H311        0.5270   -1.7990   -7.5810 ha        1 LS3      0.176000
     43 H321        1.2950   -2.6590   -5.3830 ha        1 LS3      0.157000
     44 H212        0.5600   -2.8120   -2.9920 hn        1 LS3      0.476800
@<TRIPOS>BOND
     1    1    2 2   
     2    2    3 1   
     3    2   15 1   
     4    3    4 1   
     5    3   29 1   
     6    4    5 ar  
     7    4   14 ar  
     8    5    6 ar  
     9    5   30 1   
    10    6    7 ar  
    11    6   31 1   
    12    7    8 1   
    13    7   13 ar  
    14    8    9 1   
    15    8   12 2   
    16    9   10 1   
    17   10   11 2   
    18   10   32 1   
    19   11   12 1   
    20   12   33 1   
    21   13   14 ar  
    22   13   34 1   
    23   14   15 1   
    24   15   16 2   
    25   16   17 1   
    26   16   35 1   
    27   17   18 1   
    28   17   36 1   
    29   17   44 1   
    30   18   19 ar  
    31   18   28 ar  
    32   19   20 ar  
    33   19   37 1   
    34   20   21 1   
    35   20   26 ar  
    36   21   22 1   
    37   21   38 1   
    38   21   39 1   
    39   22   23 2   
    40   22   24 2   
    41   22   25 1   
    42   25   26 1   
    43   25   40 1   
    44   25   41 1   
    45   26   27 ar  
    46   27   28 ar  
    47   27   42 1   
    48   28   43 1   
@<TRIPOS>SUBSTRUCTURE
     1 LS3         1 TEMP              0 ****  ****    0 ROOT
