@<TRIPOS>MOLECULE
LS4
   41    44     1     0     0
SMALL
bcc


@<TRIPOS>ATOM
      1 O5         -2.0920    1.8480    4.0930 o         1 LS4     -0.647500
      2 C6         -1.2100    1.1650    4.6400 c         1 LS4      0.719700
      3 N7         -0.9020    1.2220    6.0140 n         1 LS4     -0.471100
      4 C8          0.1400    0.3210    6.3010 ca        1 LS4      0.053600
      5 C9          0.7630    0.0410    7.5120 ca        1 LS4     -0.162000
      6 C10         1.7890   -0.9140    7.5160 ca        1 LS4     -0.100000
      7 C11         2.1790   -1.5670    6.3520 ca        1 LS4     -0.156000
      8 C12         1.5570   -1.2910    5.1250 ca        1 LS4     -0.090000
      9 C13         0.5420   -0.3550    5.0890 ca        1 LS4     -0.075800
     10 C14        -0.2970    0.1590    4.0110 cc        1 LS4     -0.240400
     11 C15        -0.2760   -0.1870    2.6970 c2        1 LS4      0.178000
     12 N16        -1.1150    0.3570    1.7560 nh        1 LS4     -0.626400
     13 C17        -1.1200    0.0340    0.4020 ca        1 LS4      0.235600
     14 C18        -2.0700    0.6730   -0.4420 ca        1 LS4     -0.218000
     15 C19        -2.1020    0.3870   -1.7940 ca        1 LS4      0.040500
     16 C20        -1.2130   -0.5310   -2.3760 ca        1 LS4     -0.442500
     17 C21        -0.2860   -1.1650   -1.5390 ca        1 LS4      0.040500
     18 C22        -0.2290   -0.8990   -0.1780 ca        1 LS4     -0.218000
     19 S23        -1.2950   -0.8880   -3.9990 sy        1 LS4      1.528200
     20 O24        -0.7650   -2.1620   -4.2440 o         1 LS4     -0.643300
     21 O25        -2.6070   -0.6510   -4.4670 o         1 LS4     -0.643300
     22 N26        -0.3790    0.2900   -4.7210 nh        1 LS4     -0.836800
     23 C27         0.9870    0.4650   -4.5940 cc        1 LS4      0.667300
     24 S28         1.8700    1.5980   -5.5880 ss        1 LS4     -0.124300
     25 C29         3.3020    1.1720   -4.8290 cc        1 LS4     -0.264400
     26 C30         3.0780    0.2010   -3.8700 cd        1 LS4      0.369200
     27 N31         1.7660   -0.2090   -3.7200 nd        1 LS4     -0.705000
     28 H71        -1.3510    1.7940    6.6780 hn        1 LS4      0.342500
     29 H91         0.4680    0.5460    8.4410 ha        1 LS4      0.140000
     30 H101        2.2920   -1.1480    8.4670 ha        1 LS4      0.134000
     31 H111        2.9880   -2.3120    6.3880 ha        1 LS4      0.134000
     32 H121        1.8750   -1.8150    4.2130 ha        1 LS4      0.131000
     33 H151        0.4500   -0.9490    2.3470 h4        1 LS4      0.160000
     34 H16N       -1.7830    1.0410    2.0670 hn        1 LS4      0.477800
     35 H181       -2.7860    1.3980   -0.0240 ha        1 LS4      0.146000
     36 H191       -2.8590    0.8780   -2.4330 ha        1 LS4      0.163000
     37 H211        0.4160   -1.9010   -1.9760 ha        1 LS4      0.163000
     38 H221        0.5220   -1.4260    0.4280 ha        1 LS4      0.146000
     39 H26N       -0.8160    0.9540   -5.3220 hn        1 LS4      0.461800
     40 H291        4.2650    1.6110   -5.0740 h4        1 LS4      0.185000
     41 H301        3.8370   -0.2640   -3.2290 h4        1 LS4      0.046100
@<TRIPOS>BOND
     1    1    2 2   
     2    2    3 1   
     3    2   10 1   
     4    3    4 1   
     5    3   28 1   
     6    4    5 ar  
     7    4    9 ar  
     8    5    6 ar  
     9    5   29 1   
    10    6    7 ar  
    11    6   30 1   
    12    7    8 ar  
    13    7   31 1   
    14    8    9 ar  
    15    8   32 1   
    16    9   10 1   
    17   10   11 2   
    18   11   12 1   
    19   11   33 1   
    20   12   13 1   
    21   12   34 1   
    22   13   14 ar  
    23   13   18 ar  
    24   14   15 ar  
    25   14   35 1   
    26   15   16 ar  
    27   15   36 1   
    28   16   17 ar  
    29   16   19 1   
    30   17   18 ar  
    31   17   37 1   
    32   18   38 1   
    33   19   20 2   
    34   19   21 2   
    35   19   22 1   
    36   22   23 1   
    37   22   39 1   
    38   23   24 1   
    39   23   27 2   
    40   24   25 1   
    41   25   26 2   
    42   25   40 1   
    43   26   27 1   
    44   26   41 1   
@<TRIPOS>SUBSTRUCTURE
     1 LS4         1 TEMP              0 ****  ****    0 ROOT
