@<TRIPOS>MOLECULE
LS4
   41    44     1     0     0
SMALL
bcc


@<TRIPOS>ATOM
      1 O5         -0.0100    0.1910    0.0150 o         1 LS4     -0.647500
      2 C6          1.2280    0.0950    0.0540 c         1 LS4      0.719700
      3 N7          1.9860    0.0890    1.2420 ns        1 LS4     -0.471100
      4 C8          3.3510   -0.0360    0.9280 ca        1 LS4      0.053600
      5 C9          4.4550   -0.0870    1.7730 ca        1 LS4     -0.162000
      6 C10         5.7220   -0.2160    1.1890 ca        1 LS4     -0.100000
      7 C11         5.8830   -0.2910   -0.1910 ca        1 LS4     -0.156000
      8 C12         4.7760   -0.2400   -1.0510 ca        1 LS4     -0.090000
      9 C13         3.5140   -0.1130   -0.5060 ca        1 LS4     -0.075800
     10 C14         2.1810   -0.0330   -1.0940 cc        1 LS4     -0.240400
     11 C15         1.8440   -0.0650   -2.4100 c2        1 LS4      0.178000
     12 N16         0.5510    0.0150   -2.8650 nu        1 LS4     -0.626400
     13 C17         0.1670   -0.0070   -4.2030 ca        1 LS4      0.235600
     14 C18        -1.2200    0.0650   -4.5090 ca        1 LS4     -0.218000
     15 C19        -1.6430    0.0530   -5.8260 ca        1 LS4      0.040500
     16 C20        -0.7340   -0.0280   -6.8920 ca        1 LS4     -0.442500
     17 C21         0.6310   -0.1070   -6.5850 ca        1 LS4      0.040500
     18 C22         1.0860   -0.0980   -5.2740 ca        1 LS4     -0.218000
     19 S23        -1.2670   -0.0770   -8.4680 sy        1 LS4      1.528200
     20 O24        -0.3190   -0.7100   -9.2820 o         1 LS4     -0.643300
     21 O25        -2.5790   -0.6020   -8.5030 o         1 LS4     -0.643300
     22 N26        -1.4470    1.5160   -8.8860 nu        1 LS4     -0.836800
     23 C27        -0.4380    2.4530   -9.0160 cc        1 LS4      0.667300
     24 S28        -0.7310    4.0390   -9.6890 ss        1 LS4     -0.124300
     25 C29         0.8840    4.4390   -9.4880 cc        1 LS4     -0.264400
     26 C30         1.5860    3.3820   -8.9360 cd        1 LS4      0.369200
     27 N31         0.8480    2.2470   -8.6560 nd        1 LS4     -0.705000
     28 H71         1.6200    0.1510    2.1540 hn        1 LS4      0.342500
     29 H91         4.3470   -0.0300    2.8640 ha        1 LS4      0.140000
     30 H101        6.6060   -0.2580    1.8440 ha        1 LS4      0.134000
     31 H111        6.8910   -0.3920   -0.6190 ha        1 LS4      0.134000
     32 H121        4.9180   -0.3010   -2.1390 ha        1 LS4      0.131000
     33 H151        2.6430   -0.1630   -3.1730 h4        1 LS4      0.160000
     34 H16N       -0.1800    0.0940   -2.1790 hn        1 LS4      0.477800
     35 H181       -1.9650    0.1270   -3.7010 ha        1 LS4      0.146000
     36 H191       -2.7250    0.0900   -6.0460 ha        1 LS4      0.163000
     37 H211        1.3640   -0.1840   -7.4110 ha        1 LS4      0.163000
     38 H221        2.1690   -0.1620   -5.0950 ha        1 LS4      0.146000
     39 H26N       -2.3570    1.8740   -9.0810 hn        1 LS4      0.461800
     40 H291        1.3030    5.4030   -9.7640 h4        1 LS4      0.185000
     41 H301        2.6580    3.3670   -8.7040 h4        1 LS4      0.046100
@<TRIPOS>BOND
     1    1    2 2   
     2    2    3 1   
     3    2   10 1   
     4    3    4 1   
     5    3   28 1   
     6    4    5 ar  
     7    4    9 ar  
     8    5    6 ar  
     9    5   29 1   
    10    6    7 ar  
    11    6   30 1   
    12    7    8 ar  
    13    7   31 1   
    14    8    9 ar  
    15    8   32 1   
    16    9   10 1   
    17   10   11 2   
    18   11   12 1   
    19   11   33 1   
    20   12   13 1   
    21   12   34 1   
    22   13   14 ar  
    23   13   18 ar  
    24   14   15 ar  
    25   14   35 1   
    26   15   16 ar  
    27   15   36 1   
    28   16   17 ar  
    29   16   19 1   
    30   17   18 ar  
    31   17   37 1   
    32   18   38 1   
    33   19   20 2   
    34   19   21 2   
    35   19   22 1   
    36   22   23 1   
    37   22   39 1   
    38   23   24 1   
    39   23   27 2   
    40   24   25 1   
    41   25   26 2   
    42   25   40 1   
    43   26   27 1   
    44   26   41 1   
@<TRIPOS>SUBSTRUCTURE
     1 LS4         1 TEMP              0 ****  ****    0 ROOT
