@<TRIPOS>MOLECULE
LS4
   41    44     1     0     0
SMALL
bcc


@<TRIPOS>ATOM
      1 O5         -0.0090    0.1970    0.0150 o         1 LS4     -0.647500
      2 C6          1.2280    0.0980    0.0530 c         1 LS4      0.719700
      3 N7          1.9860    0.0930    1.2420 n         1 LS4     -0.471100
      4 C8          3.3510   -0.0350    0.9290 ca        1 LS4      0.053600
      5 C9          4.4550   -0.0880    1.7740 ca        1 LS4     -0.162000
      6 C10         5.7220   -0.2190    1.1900 ca        1 LS4     -0.100000
      7 C11         5.8830   -0.2960   -0.1900 ca        1 LS4     -0.156000
      8 C12         4.7770   -0.2440   -1.0500 ca        1 LS4     -0.090000
      9 C13         3.5140   -0.1140   -0.5050 ca        1 LS4     -0.075800
     10 C14         2.1820   -0.0320   -1.0940 cc        1 LS4     -0.240400
     11 C15         1.8450   -0.0650   -2.4100 c2        1 LS4      0.178000
     12 N16         0.5520    0.0170   -2.8650 nh        1 LS4     -0.626400
     13 C17         0.1680   -0.0060   -4.2030 ca        1 LS4      0.235600
     14 C18        -1.2190    0.0650   -4.5100 ca        1 LS4     -0.218000
     15 C19        -1.6410    0.0520   -5.8260 ca        1 LS4      0.040500
     16 C20        -0.7320   -0.0280   -6.8930 ca        1 LS4     -0.442500
     17 C21         0.6320   -0.1060   -6.5850 ca        1 LS4      0.040500
     18 C22         1.0870   -0.0960   -5.2740 ca        1 LS4     -0.218000
     19 S23        -1.2650   -0.0790   -8.4680 sy        1 LS4      1.528200
     20 O24        -0.3160   -0.7100   -9.2820 o         1 LS4     -0.643300
     21 O25        -2.5770   -0.6050   -8.5030 o         1 LS4     -0.643300
     22 N26        -1.4480    1.5150   -8.8870 nh        1 LS4     -0.836800
     23 C27        -0.4400    2.4530   -9.0160 cc        1 LS4      0.667300
     24 S28        -0.7350    4.0390   -9.6880 ss        1 LS4     -0.124300
     25 C29         0.8800    4.4400   -9.4880 cc        1 LS4     -0.264400
     26 C30         1.5830    3.3840   -8.9360 cd        1 LS4      0.369200
     27 N31         0.8460    2.2480   -8.6570 nd        1 LS4     -0.705000
     28 H71         1.6200    0.1570    2.1540 hn        1 LS4      0.342500
     29 H91         4.3460   -0.0290    2.8650 ha        1 LS4      0.140000
     30 H101        6.6060   -0.2620    1.8450 ha        1 LS4      0.134000
     31 H111        6.8910   -0.3990   -0.6170 ha        1 LS4      0.134000
     32 H121        4.9180   -0.3060   -2.1380 ha        1 LS4      0.131000
     33 H151        2.6430   -0.1650   -3.1720 h4        1 LS4      0.160000
     34 H16N       -0.1790    0.0970   -2.1790 hn        1 LS4      0.477800
     35 H181       -1.9640    0.1260   -3.7010 ha        1 LS4      0.146000
     36 H191       -2.7240    0.0880   -6.0470 ha        1 LS4      0.163000
     37 H211        1.3660   -0.1820   -7.4110 ha        1 LS4      0.163000
     38 H221        2.1700   -0.1580   -5.0950 ha        1 LS4      0.146000
     39 H26N       -2.3570    1.8710   -9.0820 hn        1 LS4      0.461800
     40 H291        1.2980    5.4050   -9.7630 h4        1 LS4      0.185000
     41 H301        2.6550    3.3710   -8.7050 h4        1 LS4      0.046100
@<TRIPOS>BOND
     1    1    2 2   
     2    2    3 1   
     3    2   10 1   
     4    3    4 1   
     5    3   28 1   
     6    4    5 ar  
     7    4    9 ar  
     8    5    6 ar  
     9    5   29 1   
    10    6    7 ar  
    11    6   30 1   
    12    7    8 ar  
    13    7   31 1   
    14    8    9 ar  
    15    8   32 1   
    16    9   10 1   
    17   10   11 2   
    18   11   12 1   
    19   11   33 1   
    20   12   13 1   
    21   12   34 1   
    22   13   14 ar  
    23   13   18 ar  
    24   14   15 ar  
    25   14   35 1   
    26   15   16 ar  
    27   15   36 1   
    28   16   17 ar  
    29   16   19 1   
    30   17   18 ar  
    31   17   37 1   
    32   18   38 1   
    33   19   20 2   
    34   19   21 2   
    35   19   22 1   
    36   22   23 1   
    37   22   39 1   
    38   23   24 1   
    39   23   27 2   
    40   24   25 1   
    41   25   26 2   
    42   25   40 1   
    43   26   27 1   
    44   26   41 1   
@<TRIPOS>SUBSTRUCTURE
     1 LS4         1 TEMP              0 ****  ****    0 ROOT
