@<TRIPOS>MOLECULE
LS4
   41    35     1     0     0
SMALL
bcc


@<TRIPOS>ATOM
      1 O5          0.4250    1.9720    4.3800 o         1 LS4     -0.370000
      2 C6          0.4470    0.7850    4.6390 c1        1 LS4      0.358000
      3 N7          0.3140    0.2070    5.9350 n2        1 LS4     -0.325000
      4 C8          0.4500   -1.2780    5.7980 c2        1 LS4      0.062000
      5 C9          0.3780   -2.3100    6.7340 c2        1 LS4     -0.162000
      6 C10         0.5150   -3.6350    6.3220 c1        1 LS4     -0.100000
      7 C11         0.7260   -3.9310    4.9690 c1        1 LS4     -0.123000
      8 C12         0.7990   -2.9010    4.0330 c1        1 LS4     -0.123000
      9 C13         0.6610   -1.5750    4.4430 c1        1 LS4     -0.065000
     10 C14         0.6640   -0.2930    3.6880 c2        1 LS4     -0.233000
     11 C15         0.7500   -0.1630    2.3480 c1        1 LS4      0.095000
     12 N16         0.6260    1.1170    1.7510 n2        1 LS4     -0.258000
     13 C17         0.3050    1.2280    0.3720 c2        1 LS4      0.154000
     14 C18        -0.9990    1.4910   -0.0160 c2        1 LS4     -0.215000
     15 C19        -1.3030    1.6530   -1.3590 c1        1 LS4      0.052000
     16 C20        -0.3030    1.5530   -2.3140 c1        1 LS4     -0.886000
     17 C21         1.0010    1.2900   -1.9250 c1        1 LS4      0.028000
     18 C22         1.3050    1.1280   -0.5820 c1        1 LS4     -0.221000
     19 S23        -0.6690    1.8800   -4.0180 s4        1 LS4      2.083800
     20 O24        -1.8310    2.7160   -4.1510 o         1 LS4     -0.530400
     21 O25         0.3400    2.7070   -4.6190 o         1 LS4     -0.530400
     22 N26        -0.8530    0.4710   -4.8410 n2        1 LS4     -0.775000
     23 C27        -0.9600    0.4850   -6.2570 c2        1 LS4     -0.104000
     24 S28        -0.4150    1.5820   -7.1970 ss        1 LS4      0.458000
     25 C29        -0.6950    1.1390   -8.6290 c1        1 LS4     -0.469000
     26 C30        -1.3640   -0.1390   -8.5740 c1        1 LS4     -0.095000
     27 N31        -1.5280   -0.5450   -7.0670 n2        1 LS4     -0.178000
     28 H71         0.1740    0.6630    6.7130 hn        1 LS4      0.256000
     29 H91         0.2310   -2.1050    7.6770 ha        1 LS4      0.140000
     30 H101        0.4650   -4.3570    6.9770 ha        1 LS4      0.134000
     31 H111        0.8220   -4.8590    4.6810 ha        1 LS4      0.132500
     32 H121        0.9450   -3.1070    3.0900 ha        1 LS4      0.132500
     33 H151        0.8980   -0.9500    1.7900 ha        1 LS4      0.159000
     34 H16N        0.7280    1.8680    2.2570 hn        1 LS4      0.274000
     35 H181       -1.7040    1.5610    0.6560 ha        1 LS4      0.152000
     36 H191       -2.2220    1.8380   -1.6320 ha        1 LS4      0.173000
     37 H211        1.7060    1.2190   -2.5960 ha        1 LS4      0.153000
     38 H221        2.2240    0.9420   -0.3080 ha        1 LS4      0.140000
     39 H26N       -0.9290   -0.3150   -4.3870 hn        1 LS4      0.256000
     40 H291       -0.4630    1.6320   -9.4390 DU        1 LS4      0.185000
     41 H301       -1.6640   -0.6600   -9.3430 DU        1 LS4      0.185000
@<TRIPOS>BOND
     1    1    2 1   
     2    2   10 1   
     3    3    4 1   
     4    3   28 1   
     5    4    5 1   
     6    4    9 1   
     7    5    6 1   
     8    5   29 1   
     9    6   30 1   
    10    7    8 1   
    11    7   31 1   
    12    8   32 1   
    13    9   10 1   
    14   10   11 1   
    15   11   33 1   
    16   12   13 1   
    17   12   34 1   
    18   13   14 1   
    19   13   18 1   
    20   14   15 1   
    21   14   35 1   
    22   15   36 1   
    23   16   17 1   
    24   16   19 1   
    25   17   37 1   
    26   18   38 1   
    27   19   20 1   
    28   19   21 1   
    29   22   23 1   
    30   22   39 1   
    31   23   24 1   
    32   23   27 1   
    33   24   25 1   
    34   25   26 1   
    35   26   27 1   
@<TRIPOS>SUBSTRUCTURE
     1 LS4         1 TEMP              0 ****  ****    0 ROOT
