@<TRIPOS>MOLECULE
LS4
   43    46     1     0     0
SMALL
bcc


@<TRIPOS>ATOM
      1 O5         -0.1130   -0.9320   -0.9230 o         1 LS4     -0.643500
      2 C6          1.0050   -0.5020   -0.5890 c         1 LS4      0.694700
      3 N7          1.3540    0.1330    0.5920 n         1 LS4     -0.429100
      4 C8          2.7270    0.4810    0.5540 ca        1 LS4      0.075600
      5 C9          3.4980    1.1120    1.5210 ca        1 LS4     -0.138000
      6 C10         4.8510    1.3430    1.2270 ca        1 LS4     -0.031000
      7 C11         5.4120    0.9570    0.0100 ca        1 LS4     -0.148000
      8 C12         4.6430    0.3200   -0.9690 ca        1 LS4     -0.023000
      9 C13         3.3020    0.0780   -0.7100 ca        1 LS4     -0.179800
     10 C14         2.2550   -0.5690   -1.4770 cc        1 LS4      0.019600
     11 C15         2.3100   -1.1420   -2.6930 c2        1 LS4     -0.127000
     12 N16         1.1760   -1.8470   -3.2870 n4        1 LS4     -0.531200
     13 C17         0.5110   -1.0800   -4.3530 ca        1 LS4      0.075600
     14 C18        -0.6700   -0.3750   -4.0560 ca        1 LS4     -0.126500
     15 C19        -1.3330    0.2940   -5.0800 ca        1 LS4      0.031500
     16 C20        -0.8460    0.2830   -6.4010 ca        1 LS4     -0.450500
     17 C21         0.3490   -0.4080   -6.6650 ca        1 LS4      0.031500
     18 C22         1.0320   -1.0860   -5.6560 ca        1 LS4     -0.126500
     19 S23        -1.7310    0.9420   -7.6180 sy        1 LS4      1.460200
     20 O24        -1.4350    0.4460   -8.8600 o         1 LS4     -0.537800
     21 O25        -3.0210    1.2350   -7.2240 o         1 LS4     -0.537800
     22 N26        -1.0300    2.7260   -7.6020 n4        1 LS4     -0.629600
     23 C27        -0.0210    2.8930   -8.6150 cc        1 LS4      0.275300
     24 S28        -0.0600    4.0300   -9.8810 ss        1 LS4      0.245700
     25 C29         1.3720    3.4940  -10.4590 cc        1 LS4     -0.244400
     26 C30         1.8790    2.4420   -9.6700 cd        1 LS4      0.371200
     27 N31         1.0950    2.0940   -8.6150 nd        1 LS4     -0.639000
     28 H71         0.7570    0.2640    1.3730 hn        1 LS4      0.380500
     29 H91         3.0760    1.4210    2.4900 ha        1 LS4      0.175000
     30 H101        5.4820    1.8410    1.9850 ha        1 LS4      0.174000
     31 H111        6.4810    1.1530   -0.1830 ha        1 LS4      0.171000
     32 H121        5.1000    0.0140   -1.9230 ha        1 LS4      0.147000
     33 H151        3.2190   -1.1460   -3.3240 hx        1 LS4      0.205000
     34 H16N        0.4690   -2.0620   -2.5490 hn        1 LS4      0.487300
     35 H181       -1.0860   -0.3560   -3.0270 ha        1 LS4      0.198000
     36 H191       -2.2830    0.8170   -4.8450 ha        1 LS4      0.199500
     37 H211        0.7540   -0.4390   -7.6980 ha        1 LS4      0.199500
     38 H221        1.9640   -1.6250   -5.9070 ha        1 LS4      0.198000
     39 H26N       -0.6270    2.9570   -6.6910 hn        1 LS4      0.461300
     40 H291        1.8840    3.8830  -11.3470 h4        1 LS4      0.233000
     41 H301        2.8250    1.9090   -9.8490 h4        1 LS4      0.084100
     42 H162        1.5230   -2.7350   -3.6810 hn        1 LS4      0.487300
     43 H262       -1.7840    3.3960   -7.7750 hn        1 LS4      0.461300
@<TRIPOS>BOND
     1    1    2 2   
     2    2    3 1   
     3    2   10 1   
     4    3    4 1   
     5    3   28 1   
     6    4    5 ar  
     7    4    9 ar  
     8    5    6 ar  
     9    5   29 1   
    10    6    7 ar  
    11    6   30 1   
    12    7    8 ar  
    13    7   31 1   
    14    8    9 ar  
    15    8   32 1   
    16    9   10 1   
    17   10   11 2   
    18   11   12 1   
    19   11   33 1   
    20   12   13 1   
    21   12   34 1   
    22   12   42 1   
    23   13   14 ar  
    24   13   18 ar  
    25   14   15 ar  
    26   14   35 1   
    27   15   16 ar  
    28   15   36 1   
    29   16   17 ar  
    30   16   19 1   
    31   17   18 ar  
    32   17   37 1   
    33   18   38 1   
    34   19   20 2   
    35   19   21 2   
    36   19   22 1   
    37   22   23 1   
    38   22   39 1   
    39   22   43 1   
    40   23   24 1   
    41   23   27 2   
    42   24   25 1   
    43   25   26 2   
    44   25   40 1   
    45   26   27 1   
    46   26   41 1   
@<TRIPOS>SUBSTRUCTURE
     1 LS4         1 TEMP              0 ****  ****    0 ROOT
