@<TRIPOS>MOLECULE
LS5
   42    43     1     0     0
SMALL
bcc


@<TRIPOS>ATOM
      1 N1       -294.4060 -110.7460   21.5580 ns        1 LS5     -0.454100
      2 C2       -295.7940 -110.7870   21.7160 c         1 LS5      0.705700
      3 C3       -296.2790 -112.1300   21.1970 cc        1 LS5     -0.084400
      4 C4       -294.8830 -114.0760   20.1790 ca        1 LS5     -0.054000
      5 C5       -293.5790 -114.4640   19.8470 ca        1 LS5     -0.154000
      6 C6       -292.4980 -113.6160   20.0760 ca        1 LS5     -0.063000
      7 C7       -292.6670 -112.3470   20.6460 ca        1 LS5     -0.151000
      8 C8       -293.9590 -111.9530   20.9800 ca        1 LS5      0.072600
      9 C9       -295.0830 -112.8280   20.7440 ca        1 LS5     -0.138800
     10 O11      -296.5000 -109.8860   22.1950 o         1 LS5     -0.624500
     11 C12      -297.5610 -112.5520   21.1770 c2        1 LS5      0.049000
     12 N17      -298.6200 -111.7650   21.6510 nu        1 LS5     -0.538400
     13 C20      -299.9220 -112.1130   21.6620 ca        1 LS5      0.319600
     14 C21      -300.8970 -111.1810   22.1910 ca        1 LS5     -0.220000
     15 C22      -302.2190 -111.4930   22.2210 ca        1 LS5      0.065000
     16 C23      -302.7370 -112.7450   21.7390 ca        1 LS5     -0.734500
     17 C24      -301.7560 -113.6570   21.2170 ca        1 LS5      0.065000
     18 C25      -300.4260 -113.3730   21.1740 ca        1 LS5     -0.220000
     19 S30      -304.2070 -113.0760   21.7790 s4        1 LS5      1.655300
     20 O31      -305.0760 -112.1660   22.2860 o         1 LS5     -0.417900
     21 O32      -304.6250 -114.2770   21.3070 o         1 LS5     -0.417900
     22 N33       973.2140  363.7850  -58.8730 nv        1 LS5     -0.951800
     23 C35       973.7190  362.5010  -59.1560 c2        1 LS5      0.702100
     24 N36       973.1930  361.3920  -59.5400 n2        1 LS5     -0.747100
     25 N37       975.2080  362.3950  -58.8260 nz        1 LS5     -0.823600
     26 H1N      -293.8230 -109.9900   21.8110 hn        1 LS5      0.363500
     27 H41      -295.7280 -114.7540   19.9930 ha        1 LS5      0.136000
     28 H51      -293.4090 -115.4540   19.3970 ha        1 LS5      0.152000
     29 H61      -291.4810 -113.9440   19.8060 ha        1 LS5      0.154000
     30 H71      -291.8020 -111.6910   20.8200 ha        1 LS5      0.158000
     31 H121     -297.8210 -113.5510   20.7780 h4        1 LS5      0.174000
     32 H17N     -298.3680 -110.8530   22.0170 hn        1 LS5      0.500800
     33 H211     -300.5550 -110.2030   22.5760 ha        1 LS5      0.177000
     34 H221     -302.9430 -110.7600   22.6320 ha        1 LS5      0.173000
     35 H241     -302.1150 -114.6340   20.8350 ha        1 LS5      0.173000
     36 H251     -299.7310 -114.1210   20.7600 ha        1 LS5      0.177000
     37 H33N      973.5330  364.5300  -59.4550 hn        1 LS5      0.450800
     38 H36N      972.2280  361.3700  -59.7980 hn        1 LS5      0.486400
     39 H371      975.7420  363.0030  -59.4530 hn        1 LS5      0.477800
     40 H372      975.3560  362.6910  -57.8530 hn        1 LS5      0.477800
     41 H332      972.2410  363.8130  -58.6490 hn        1 LS5      0.450800
     42 H373      975.5270  361.4230  -58.9400 hn        1 LS5      0.477800
@<TRIPOS>BOND
     1    1    2 1   
     2    1    8 1   
     3    1   26 1   
     4    2    3 1   
     5    2   10 2   
     6    3    9 1   
     7    3   11 2   
     8    4    5 ar  
     9    4    9 ar  
    10    4   27 1   
    11    5    6 ar  
    12    5   28 1   
    13    6    7 ar  
    14    6   29 1   
    15    7    8 ar  
    16    7   30 1   
    17    8    9 ar  
    18   11   12 1   
    19   11   31 1   
    20   12   13 1   
    21   12   32 1   
    22   13   14 ar  
    23   13   18 ar  
    24   14   15 ar  
    25   14   33 1   
    26   15   16 ar  
    27   15   34 1   
    28   16   17 ar  
    29   16   19 1   
    30   17   18 ar  
    31   17   35 1   
    32   18   36 1   
    33   19   20 1   
    34   19   21 1   
    35   22   23 1   
    36   22   37 1   
    37   22   41 1   
    38   23   24 2   
    39   23   25 1   
    40   24   38 1   
    41   25   39 1   
    42   25   40 1   
    43   25   42 1   
@<TRIPOS>SUBSTRUCTURE
     1 LS5         1 TEMP              0 ****  ****    0 ROOT
