@<TRIPOS>MOLECULE
LS5
   43    44     1     0     0
SMALL
bcc


@<TRIPOS>ATOM
      1 N1       -565.5670 -224.3610  -88.5350 n         1 LS5     -0.422100
      2 C2       -565.4950 -224.7770  -87.2190 c         1 LS5      0.694700
      3 C3       -566.9150 -225.1480  -86.7600 cc        1 LS5      0.034600
      4 C4       -569.1270 -225.0390  -88.1170 ca        1 LS5     -0.016000
      5 C5       -569.6490 -224.7250  -89.3760 ca        1 LS5     -0.147000
      6 C6       -568.8220 -224.2780  -90.4070 ca        1 LS5     -0.022000
      7 C7       -567.4380 -224.1220  -90.2270 ca        1 LS5     -0.135000
      8 C8       -566.9120 -224.4290  -88.9810 ca        1 LS5      0.076600
      9 C9       -567.7620 -224.8940  -87.9060 ca        1 LS5     -0.185800
     10 O11      -564.4930 -224.8330  -86.4820 o         1 LS5     -0.654500
     11 C12      -567.2300 -225.6280  -85.5420 c2        1 LS5     -0.150000
     12 N17      -566.2190 -225.9310  -84.5280 n4        1 LS5     -0.535200
     13 C20      -566.1440 -224.9100  -83.4720 ca        1 LS5      0.124600
     14 C21      -565.1350 -223.9290  -83.5290 ca        1 LS5     -0.128500
     15 C22      -565.0450 -222.9850  -82.5130 ca        1 LS5      0.056500
     16 C23      -565.9450 -222.9800  -81.4190 ca        1 LS5     -0.576500
     17 C24      -566.9550 -223.9750  -81.3990 ca        1 LS5      0.056500
     18 C25      -567.0610 -224.9280  -82.4030 ca        1 LS5     -0.128500
     19 S30      -565.8280 -221.9090  -80.2660 s4        1 LS5      1.653300
     20 O31      -564.8410 -221.0040  -80.3750 o         1 LS5     -0.349900
     21 O32      -566.7270 -221.9860  -79.2720 o         1 LS5     -0.349900
     22 N33      1890.9480  743.2770  292.0190 nh        1 LS5     -0.951800
     23 C35      1891.5540  742.6380  290.9200 c2        1 LS5      0.702100
     24 N36      1891.2260  741.6560  290.1560 n2        1 LS5     -0.747100
     25 N37      1892.9610  743.1770  290.6590 n4        1 LS5     -0.823600
     26 H1N      -564.7930 -224.1090  -89.1040 hn        1 LS5      0.384500
     27 H41      -569.7900 -225.3960  -87.3140 ha        1 LS5      0.149000
     28 H51      -570.7320 -224.8370  -89.5560 ha        1 LS5      0.175000
     29 H61      -569.2600 -224.0400  -91.3940 ha        1 LS5      0.178000
     30 H71      -566.8040 -223.7710  -91.0560 ha        1 LS5      0.178000
     31 H121     -568.2640 -225.8620  -85.2270 hx        1 LS5      0.209000
     32 H17N     -565.2800 -226.0050  -84.9830 hn        1 LS5      0.493300
     33 H211     -564.4090 -223.8970  -84.3720 ha        1 LS5      0.214500
     34 H221     -564.2400 -222.2190  -82.5690 ha        1 LS5      0.207000
     35 H241     -567.6830 -224.0020  -80.5590 ha        1 LS5      0.207000
     36 H251     -567.8650 -225.6860  -82.3430 ha        1 LS5      0.214500
     37 H33N     1890.7020  744.2360  291.8980 hn        1 LS5      0.450800
     38 H36N     1890.3160  741.2520  290.2400 hn        1 LS5      0.486400
     39 H371     1892.9030  744.1550  290.3620 hn        1 LS5      0.477800
     40 H372     1893.5080  743.1140  291.5260 hn        1 LS5      0.477800
     41 H172     -566.4560 -226.8410  -84.1030 hn        1 LS5      0.493300
     42 H332     1890.2690  742.7270  292.5020 hn        1 LS5      0.450800
     43 H373     1893.4210  742.6240  289.9230 hn        1 LS5      0.477800
@<TRIPOS>BOND
     1    1    2 1   
     2    1    8 1   
     3    1   26 1   
     4    2    3 1   
     5    2   10 2   
     6    3    9 1   
     7    3   11 2   
     8    4    5 ar  
     9    4    9 ar  
    10    4   27 1   
    11    5    6 ar  
    12    5   28 1   
    13    6    7 ar  
    14    6   29 1   
    15    7    8 ar  
    16    7   30 1   
    17    8    9 ar  
    18   11   12 1   
    19   11   31 1   
    20   12   13 1   
    21   12   32 1   
    22   12   41 1   
    23   13   14 ar  
    24   13   18 ar  
    25   14   15 ar  
    26   14   33 1   
    27   15   16 ar  
    28   15   34 1   
    29   16   17 ar  
    30   16   19 1   
    31   17   18 ar  
    32   17   35 1   
    33   18   36 1   
    34   19   20 1   
    35   19   21 1   
    36   22   23 1   
    37   22   37 1   
    38   22   42 1   
    39   23   24 2   
    40   23   25 1   
    41   24   38 1   
    42   25   39 1   
    43   25   40 1   
    44   25   43 1   
@<TRIPOS>SUBSTRUCTURE
     1 LS5         1 TEMP              0 ****  ****    0 ROOT
