@<TRIPOS>MOLECULE
LS5
   40    42     1     0     0
SMALL
bcc


@<TRIPOS>ATOM
      1 N1         -1.6470    0.1580    5.4100 n         1 LS5     -0.470100
      2 C2         -1.6700    0.0190    4.0080 c         1 LS5      0.719700
      3 C3         -0.2510   -0.0020    3.5290 cc        1 LS5     -0.236400
      4 C4          1.9460    0.1720    4.9160 ca        1 LS5     -0.089000
      5 C5          2.4400    0.3080    6.2220 ca        1 LS5     -0.156000
      6 C6          1.5770    0.3990    7.3090 ca        1 LS5     -0.099000
      7 C7          0.1860    0.3590    7.1450 ca        1 LS5     -0.161000
      8 C8         -0.3140    0.2240    5.8540 ca        1 LS5      0.054600
      9 C9          0.5790    0.1300    4.7220 ca        1 LS5     -0.077800
     10 O11        -2.7080   -0.0670    3.3310 o         1 LS5     -0.644500
     11 C12         0.1530   -0.1200    2.2380 c2        1 LS5      0.174000
     12 N17        -0.7150   -0.2400    1.1790 nh        1 LS5     -0.626400
     13 C20        -0.3410   -0.3600   -0.1560 ca        1 LS5      0.236600
     14 C21        -1.3620   -0.5030   -1.1350 ca        1 LS5     -0.213000
     15 C22        -1.0320   -0.6200   -2.4730 ca        1 LS5      0.029500
     16 C23         0.3010   -0.6000   -2.9090 ca        1 LS5     -0.446500
     17 C24         1.3030   -0.4660   -1.9390 ca        1 LS5      0.029500
     18 C25         1.0060   -0.3470   -0.5910 ca        1 LS5     -0.213000
     19 S30         0.6850   -0.7730   -4.5250 sy        1 LS5      1.525200
     20 O31        -0.3070   -1.5540   -5.1520 o         1 LS5     -0.651300
     21 O32         2.0250   -1.2030   -4.6360 o         1 LS5     -0.651300
     22 N33         0.6240    0.7560   -5.1050 nh        1 LS5     -0.888100
     23 C35        -0.5520    1.4880   -5.4820 c2        1 LS5      0.796100
     24 N36        -1.6760    0.9640   -5.8840 n2        1 LS5     -0.868100
     25 N37        -0.4460    2.9130   -5.3360 nh        1 LS5     -0.880800
     26 H1N        -2.4390    0.1950    5.9940 hn        1 LS5      0.343500
     27 H41         2.6390    0.1010    4.0670 ha        1 LS5      0.131000
     28 H51         3.5280    0.3430    6.3830 ha        1 LS5      0.135000
     29 H61         1.9890    0.5050    8.3240 ha        1 LS5      0.135000
     30 H71        -0.4810    0.4310    8.0150 ha        1 LS5      0.140000
     31 H121        1.2370   -0.1240    2.0060 h4        1 LS5      0.159000
     32 H17N       -1.7000   -0.2460    1.3830 hn        1 LS5      0.479800
     33 H211       -2.4220   -0.5230   -0.8340 ha        1 LS5      0.148000
     34 H221       -1.8390   -0.7450   -3.2200 ha        1 LS5      0.157000
     35 H241        2.3620   -0.4700   -2.2590 ha        1 LS5      0.157000
     36 H251        1.8360   -0.2470    0.1240 ha        1 LS5      0.148000
     37 H33N        1.4660    1.2880   -5.1290 hn        1 LS5      0.451800
     38 H36N       -1.7560   -0.0300   -5.8980 hn        1 LS5      0.433400
     39 H371       -1.2780    3.3880   -5.6250 hn        1 LS5      0.395300
     40 H372        0.3630    3.2880   -5.7840 hn        1 LS5      0.395300
@<TRIPOS>BOND
     1    1    2 1   
     2    1    8 1   
     3    1   26 1   
     4    2    3 1   
     5    2   10 2   
     6    3    9 1   
     7    3   11 2   
     8    4    5 ar  
     9    4    9 ar  
    10    4   27 1   
    11    5    6 ar  
    12    5   28 1   
    13    6    7 ar  
    14    6   29 1   
    15    7    8 ar  
    16    7   30 1   
    17    8    9 ar  
    18   11   12 1   
    19   11   31 1   
    20   12   13 1   
    21   12   32 1   
    22   13   14 ar  
    23   13   18 ar  
    24   14   15 ar  
    25   14   33 1   
    26   15   16 ar  
    27   15   34 1   
    28   16   17 ar  
    29   16   19 1   
    30   17   18 ar  
    31   17   35 1   
    32   18   36 1   
    33   19   20 2   
    34   19   21 2   
    35   19   22 1   
    36   22   23 1   
    37   22   37 1   
    38   23   24 2   
    39   23   25 1   
    40   24   38 1   
    41   25   39 1   
    42   25   40 1   
@<TRIPOS>SUBSTRUCTURE
     1 LS5         1 TEMP              0 ****  ****    0 ROOT
