@<TRIPOS>MOLECULE
LS5
   42    43     1     0     0
SMALL
bcc


@<TRIPOS>ATOM
      1 N1       -357.4220  -64.8550   54.8610 n         1 LS5     -0.454100
      2 C2       -358.3930  -65.8150   54.5620 c         1 LS5      0.705700
      3 C3       -357.6830  -67.0230   53.9770 cc        1 LS5     -0.084400
      4 C4       -355.1370  -67.3640   53.5600 ca        1 LS5     -0.054000
      5 C5       -353.8880  -66.7430   53.6870 ca        1 LS5     -0.154000
      6 C6       -353.7770  -65.4580   54.2150 ca        1 LS5     -0.063000
      7 C7       -354.9020  -64.7380   54.6390 ca        1 LS5     -0.151000
      8 C8       -356.1460  -65.3470   54.5170 ca        1 LS5      0.072600
      9 C9       -356.2670  -66.6780   53.9700 ca        1 LS5     -0.138800
     10 O11      -359.6150  -65.6980   54.7440 o         1 LS5     -0.624500
     11 C12      -358.2750  -68.1630   53.5600 c2        1 LS5      0.049000
     12 N17      -359.6620  -68.3580   53.6270 nh        1 LS5     -0.538400
     13 C20      -360.3260  -69.4610   53.2270 ca        1 LS5      0.319600
     14 C21      -361.7670  -69.5050   53.3650 ca        1 LS5     -0.220000
     15 C22      -362.4740  -70.5970   52.9730 ca        1 LS5      0.065000
     16 C23      -361.8560  -71.7650   52.4060 ca        1 LS5     -0.734500
     17 C24      -360.4250  -71.7040   52.2770 ca        1 LS5      0.065000
     18 C25      -359.6910  -70.6250   52.6600 ca        1 LS5     -0.220000
     19 S30      -362.6540  -72.9690   51.9760 s4        1 LS5      1.655300
     20 O31      -364.0030  -72.9570   52.1270 o         1 LS5     -0.417900
     21 O32      -362.0050  -74.0370   51.4480 o         1 LS5     -0.417900
     22 N33      1168.8220  222.0690 -161.5470 nh        1 LS5     -0.951800
     23 C35      1167.9300  221.1140 -162.0700 c2        1 LS5      0.702100
     24 N36      1167.1910  220.1950 -161.5560 n2        1 LS5     -0.747100
     25 N37      1167.7290  221.2960 -163.5750 n4        1 LS5     -0.823600
     26 H1N      -357.5980  -63.9650   55.2550 hn        1 LS5      0.363500
     27 H41      -355.2120  -68.3780   53.1410 ha        1 LS5      0.136000
     28 H51      -352.9830  -67.2800   53.3630 ha        1 LS5      0.152000
     29 H61      -352.7830  -64.9900   54.3040 ha        1 LS5      0.154000
     30 H71      -354.7940  -63.7250   55.0530 ha        1 LS5      0.158000
     31 H121     -357.6730  -68.9930   53.1460 h4        1 LS5      0.174000
     32 H17N     -360.2020  -67.5910   54.0130 hn        1 LS5      0.500800
     33 H211     -362.2950  -68.6350   53.7950 ha        1 LS5      0.177000
     34 H221     -363.5770  -70.6030   53.0900 ha        1 LS5      0.173000
     35 H241     -359.9110  -72.5860   51.8440 ha        1 LS5      0.173000
     36 H251     -358.5960  -70.6480   52.5320 ha        1 LS5      0.177000
     37 H33N     1168.6780  222.2940 -160.5840 hn        1 LS5      0.450800
     38 H36N     1167.2700  219.9900 -160.5810 hn        1 LS5      0.486400
     39 H371     1167.4490  222.2670 -163.7590 hn        1 LS5      0.477800
     40 H372     1166.9960  220.6580 -163.9130 hn        1 LS5      0.477800
     41 H332     1169.7780  221.9860 -161.8190 hn        1 LS5      0.450800
     42 H373     1168.6050  221.0950 -164.0650 hn        1 LS5      0.477800
@<TRIPOS>BOND
     1    1    2 1   
     2    1    8 1   
     3    1   26 1   
     4    2    3 1   
     5    2   10 2   
     6    3    9 1   
     7    3   11 2   
     8    4    5 ar  
     9    4    9 ar  
    10    4   27 1   
    11    5    6 ar  
    12    5   28 1   
    13    6    7 ar  
    14    6   29 1   
    15    7    8 ar  
    16    7   30 1   
    17    8    9 ar  
    18   11   12 1   
    19   11   31 1   
    20   12   13 1   
    21   12   32 1   
    22   13   14 ar  
    23   13   18 ar  
    24   14   15 ar  
    25   14   33 1   
    26   15   16 ar  
    27   15   34 1   
    28   16   17 ar  
    29   16   19 1   
    30   17   18 ar  
    31   17   35 1   
    32   18   36 1   
    33   19   20 1   
    34   19   21 1   
    35   22   23 1   
    36   22   37 1   
    37   22   41 1   
    38   23   24 2   
    39   23   25 1   
    40   24   38 1   
    41   25   39 1   
    42   25   40 1   
    43   25   42 1   
@<TRIPOS>SUBSTRUCTURE
     1 LS5         1 TEMP              0 ****  ****    0 ROOT
