@<TRIPOS>MOLECULE
LS5
   40    35     1     0     0
SMALL
bcc


@<TRIPOS>ATOM
      1 N1         -4.3930   -0.2860   -3.4040 n         1 LS5     -0.324000
      2 C2         -3.4130    0.3280   -2.5390 c2        1 LS5      0.358000
      3 C3         -3.0470   -0.6540   -1.5020 c2        1 LS5     -0.230000
      4 C4         -3.8210   -3.1670   -1.1340 c1        1 LS5     -0.089000
      5 C5         -4.6060   -4.2150   -1.6370 c1        1 LS5     -0.127500
      6 C6         -5.4110   -4.0100   -2.7610 c1        1 LS5     -0.127500
      7 C7         -5.4340   -2.7490   -3.3920 c1        1 LS5     -0.161000
      8 C8         -4.6540   -1.7060   -2.8930 c2        1 LS5      0.062000
      9 C9         -3.8410   -1.9180   -1.7550 c2        1 LS5     -0.066000
     10 O11        -3.0540    1.4530   -2.5840 o         1 LS5     -0.371000
     11 C12        -2.0620   -0.4790   -0.5120 c1        1 LS5      0.093000
     12 N17        -1.3080    0.7490   -0.4540 n2        1 LS5     -0.258000
     13 C20         0.0080    0.7660    0.1480 c2        1 LS5      0.155000
     14 C21         1.1240    1.0560   -0.6290 c2        1 LS5     -0.212000
     15 C22         2.3680    1.1650   -0.0380 c1        1 LS5      0.024000
     16 C23         2.5080    0.9840    1.3430 c1        1 LS5     -0.885000
     17 C24         1.4080    0.6970    2.1130 c1        1 LS5      0.045000
     18 C25         0.1460    0.5860    1.5150 c1        1 LS5     -0.220000
     19 S30         4.1040    0.9720    2.0540 s4        1 LS5      2.080800
     20 O31         5.0820    0.4330    1.1310 o         1 LS5     -0.542900
     21 O32         4.1870    0.0100    3.1550 o         1 LS5     -0.542900
     22 N33         4.5180    2.4700    2.5470 n2        1 LS5     -0.864000
     23 C35         5.9310    2.7640    2.9150 c2        1 LS5      0.214000
     24 N36         6.5610    3.7580    2.3450 n1        1 LS5     -0.332000
     25 N37         6.5930    1.9630    3.8860 n3        1 LS5     -0.344000
     26 H1N        -4.8030    0.1220   -4.1590 hn        1 LS5      0.257000
     27 H41        -3.2730   -3.3080   -0.3680 ha        1 LS5      0.131000
     28 H51        -4.5930   -5.1080   -1.1890 ha        1 LS5      0.135000
     29 H61        -5.9610   -4.7510   -3.1150 ha        1 LS5      0.135000
     30 H71        -6.0000   -2.6050   -4.1780 ha        1 LS5      0.140000
     31 H121       -1.8890   -1.1870    0.1330 ha        1 LS5      0.159000
     32 H17N       -1.6530    1.5020   -0.7990 hn        1 LS5      0.274000
     33 H211        1.0270    1.1850   -1.6040 ha        1 LS5      0.151000
     34 H221        3.1580    1.3700   -0.5880 ha        1 LS5      0.157000
     35 H241        1.5040    0.5730    3.0530 ha        1 LS5      0.161000
     36 H251       -0.6170    0.3870    2.0470 ha        1 LS5      0.142000
     37 H33N        3.8720    3.1010    2.6770 hn        1 LS5      0.249000
     38 H36N        6.1430    4.2600    1.7340 DU        1 LS5      0.156000
     39 H371        6.2220    1.2340    4.1700 hn        1 LS5      0.208000
     40 H372        7.3660    2.2580    4.2680 hn        1 LS5      0.208000
@<TRIPOS>BOND
     1    1    2 1   
     2    1    8 1   
     3    1   26 1   
     4    2    3 1   
     5    2   10 1   
     6    3    9 1   
     7    3   11 1   
     8    4    9 1   
     9    4   27 1   
    10    5    6 1   
    11    5   28 1   
    12    6   29 1   
    13    7    8 1   
    14    7   30 1   
    15    8    9 1   
    16   11   31 1   
    17   12   13 1   
    18   12   32 1   
    19   13   14 1   
    20   13   18 1   
    21   14   15 1   
    22   14   33 1   
    23   15   34 1   
    24   16   17 1   
    25   16   19 1   
    26   17   35 1   
    27   18   36 1   
    28   19   20 1   
    29   19   21 1   
    30   22   23 1   
    31   22   37 1   
    32   23   24 1   
    33   23   25 1   
    34   25   39 1   
    35   25   40 1   
@<TRIPOS>SUBSTRUCTURE
     1 LS5         1 TEMP              0 ****  ****    0 ROOT
