@<TRIPOS>MOLECULE
LSA
   17    18     1     0     0
SMALL
bcc


@<TRIPOS>ATOM
      1 C4          0.0320    0.0130    0.0160 ca        1 LSA     -0.130000
      2 C5          1.4380    0.0020    0.0290 ca        1 LSA      0.013000
      3 C6          2.1100   -0.0130    1.2370 ca        1 LSA     -0.334500
      4 C7          2.2480   -0.0330    3.6460 c         1 LSA      0.719100
      5 C3         -0.6870    0.0090    1.2040 ca        1 LSA     -0.082000
      6 S10         3.7850   -0.0280    1.5660 sy        1 LSA      1.517900
      7 N9          3.5840   -0.0400    3.2130 n         1 LSA     -0.680300
      8 O8          1.8920   -0.0400    4.8270 o         1 LSA     -0.560500
      9 C1          1.3590   -0.0170    2.4410 ca        1 LSA     -0.094600
     10 C2         -0.0210   -0.0060    2.4430 ca        1 LSA     -0.071000
     11 O12         4.3950    1.1520    1.1400 o         1 LSA     -0.634800
     12 O11         4.3780   -1.2090    1.1210 o         1 LSA     -0.634800
     13 H4         -0.4970    0.0250   -0.9490 ha        1 LSA      0.148000
     14 H5          1.9920    0.0060   -0.9240 ha        1 LSA      0.152000
     15 H3         -1.7880    0.0170    1.1850 ha        1 LSA      0.147000
     16 HN9         4.2950   -0.0510    3.9020 hn        1 LSA      0.358500
     17 H2         -0.5830   -0.0100    3.3910 ha        1 LSA      0.165000
@<TRIPOS>BOND
     1    1    2 ar  
     2    1    5 ar  
     3    1   13 1   
     4    2    3 ar  
     5    2   14 1   
     6    3    6 1   
     7    3    9 ar  
     8    4    7 1   
     9    4    8 2   
    10    4    9 1   
    11    5   10 ar  
    12    5   15 1   
    13    6    7 1   
    14    6   11 2   
    15    6   12 2   
    16    7   16 1   
    17    9   10 ar  
    18   10   17 1   
@<TRIPOS>SUBSTRUCTURE
     1 LSA         1 TEMP              0 ****  ****    0 ROOT
