@<TRIPOS>MOLECULE
LSA
   17    18     1     0     0
SMALL
bcc


@<TRIPOS>ATOM
      1 C4          2.6500   -1.3170    0.0010 ca        1 LSA     -0.130000
      2 C5          1.2800   -1.6280    0.0000 ca        1 LSA      0.013000
      3 C6          0.3480   -0.6070    0.0000 ca        1 LSA     -0.334500
      4 C7         -0.3420    1.7050    0.0000 c         1 LSA      0.719100
      5 C3          3.0770    0.0050    0.0010 ca        1 LSA     -0.082000
      6 S10        -1.3590   -0.6730    0.0000 sy        1 LSA      1.517900
      7 N9         -1.5430    0.9760    0.0000 n         1 LSA     -0.680300
      8 O8         -0.2670    2.9360    0.0000 o         1 LSA     -0.560500
      9 C1          0.8010    0.7370    0.0000 ca        1 LSA     -0.094600
     10 C2          2.1430    1.0580    0.0000 ca        1 LSA     -0.071000
     11 O12        -1.8440   -1.2350    1.1810 o         1 LSA     -0.634800
     12 O11        -1.8440   -1.2350   -1.1810 o         1 LSA     -0.634800
     13 H4          3.3880   -2.1340    0.0010 ha        1 LSA      0.148000
     14 H5          0.9600   -2.6830    0.0000 ha        1 LSA      0.152000
     15 H3          4.1530    0.2400    0.0010 ha        1 LSA      0.147000
     16 HN9        -2.3920    1.4840    0.0000 hn        1 LSA      0.358500
     17 H2          2.4720    2.1080    0.0000 ha        1 LSA      0.165000
@<TRIPOS>BOND
     1    1    2 ar  
     2    1    5 ar  
     3    1   13 1   
     4    2    3 ar  
     5    2   14 1   
     6    3    6 1   
     7    3    9 ar  
     8    4    7 1   
     9    4    8 2   
    10    4    9 1   
    11    5   10 ar  
    12    5   15 1   
    13    6    7 1   
    14    6   11 2   
    15    6   12 2   
    16    7   16 1   
    17    9   10 ar  
    18   10   17 1   
@<TRIPOS>SUBSTRUCTURE
     1 LSA         1 TEMP              0 ****  ****    0 ROOT
