@<TRIPOS>MOLECULE
LSA
   17    18     1     0     0
SMALL
bcc


@<TRIPOS>ATOM
      1 C4          0.0300   -0.0110    0.0180 ca        1 LSA     -0.130000
      2 C5          1.4360   -0.0010    0.0290 ca        1 LSA      0.013000
      3 C6          2.1090    0.0130    1.2370 ca        1 LSA     -0.334500
      4 C7          2.2500    0.0310    3.6450 c         1 LSA      0.719100
      5 C3         -0.6870   -0.0070    1.2070 ca        1 LSA     -0.082000
      6 S10         3.7850    0.0270    1.5640 sy        1 LSA      1.517900
      7 N9          3.5860    0.0370    3.2110 ns        1 LSA     -0.680300
      8 O8          1.8950    0.0370    4.8260 o         1 LSA     -0.560500
      9 C1          1.3590    0.0160    2.4410 ca        1 LSA     -0.094600
     10 C2         -0.0200    0.0060    2.4450 ca        1 LSA     -0.071000
     11 O12         4.3780    1.2080    1.1190 o         1 LSA     -0.634800
     12 O11         4.3940   -1.1530    1.1360 o         1 LSA     -0.634800
     13 H4         -0.5000   -0.0210   -0.9470 ha        1 LSA      0.148000
     14 H5          1.9890   -0.0040   -0.9250 ha        1 LSA      0.152000
     15 H3         -1.7890   -0.0150    1.1890 ha        1 LSA      0.147000
     16 HN9         4.2970    0.0470    3.9000 hn        1 LSA      0.358500
     17 H2         -0.5810    0.0090    3.3930 ha        1 LSA      0.165000
@<TRIPOS>BOND
     1    1    2 ar  
     2    1    5 ar  
     3    1   13 1   
     4    2    3 ar  
     5    2   14 1   
     6    3    6 1   
     7    3    9 ar  
     8    4    7 1   
     9    4    8 2   
    10    4    9 1   
    11    5   10 ar  
    12    5   15 1   
    13    6    7 1   
    14    6   11 2   
    15    6   12 2   
    16    7   16 1   
    17    9   10 ar  
    18   10   17 1   
@<TRIPOS>SUBSTRUCTURE
     1 LSA         1 TEMP              0 ****  ****    0 ROOT
