@<TRIPOS>MOLECULE
LSC
   87    86     1     0     0
SMALL
bcc


@<TRIPOS>ATOM
      1 C1          3.0800    4.5440    1.1960 c3        1 LSC     -0.092100
      2 C2          3.2690    3.1060    1.6060 c3        1 LSC     -0.080400
      3 C3          4.3480    2.9660    2.6590 c3        1 LSC     -0.079400
      4 C4          4.5340    1.5200    3.0680 c3        1 LSC     -0.079400
      5 C5          5.6130    1.3810    4.1200 c3        1 LSC     -0.078400
      6 C6          5.7990   -0.0640    4.5290 c3        1 LSC     -0.079400
      7 C7          6.8790   -0.2030    5.5810 c3        1 LSC     -0.077400
      8 C8          7.0610   -1.6500    5.9890 c3        1 LSC     -0.049200
      9 C9          8.1180   -1.8150    7.0150 c2        1 LSC     -0.176200
     10 C10         8.5320   -3.0030    7.4710 c2        1 LSC     -0.173200
     11 C11         7.9920   -4.2990    6.9970 c3        1 LSC     -0.049200
     12 C12         8.5260   -5.4870    7.7720 c3        1 LSC     -0.076400
     13 C13         7.9740   -5.5420    9.1810 c3        1 LSC     -0.079400
     14 C14         8.5350   -6.7230    9.9440 c3        1 LSC     -0.079400
     15 C15         7.9820   -6.7780   11.3520 c3        1 LSC     -0.078400
     16 C16         8.5380   -7.9650   12.1080 c3        1 LSC     -0.079400
     17 C17         8.0010   -8.0020   13.5230 c3        1 LSC     -0.127400
     18 C18         8.4290   -9.2510   14.2290 c         1 LSC      0.632100
     19 O19         8.7270   -9.0340   15.5450 os        1 LSC     -0.444900
     20 C20         9.0880  -10.1870   16.3250 c3        1 LSC      0.134400
     21 C21         9.1330   -9.7120   17.7780 c3        1 LSC      0.140100
     22 C22        10.3750  -10.2690   18.4790 c3        1 LSC      0.132400
     23 O23        10.2730   -9.9600   19.8460 os        1 LSC     -0.583200
     24 P24        11.5810  -10.4250   20.7060 p5        1 LSC      1.439800
     25 O25        11.2380  -10.2180   22.1330 o         1 LSC     -0.816000
     26 C30        13.3040   -8.6000   21.4080 c3        1 LSC      0.199400
     27 C31        12.9680   -7.1650   21.8620 c3        1 LSC      0.091800
     28 N32        11.7870   -6.9860   22.7810 n4        1 LSC     -0.581800
     29 O32         8.5270  -10.3960   13.7820 o         1 LSC     -0.543000
     30 C33        10.5070   -7.2570   22.0630 c3        1 LSC      0.079100
     31 O33         7.9390  -10.1680   18.3960 oh        1 LSC     -0.610800
     32 C34        11.8910   -7.8740   23.9760 c3        1 LSC      0.079100
     33 O34        12.2570  -11.5520   20.0630 o         1 LSC     -0.816000
     34 C35        11.7820   -5.5640   23.2400 c3        1 LSC      0.079100
     35 O35        12.4440   -9.0150   20.4130 os        1 LSC     -0.573200
     36 H1          2.2810    4.6240    0.4200 hc        1 LSC      0.032700
     37 H1A         2.7830    5.1680    2.0730 hc        1 LSC      0.032700
     38 H1B         4.0260    4.9610    0.7730 hc        1 LSC      0.032700
     39 H2          3.5420    2.4910    0.7080 hc        1 LSC      0.038700
     40 H2A         2.3030    2.6970    2.0040 hc        1 LSC      0.038700
     41 H3          5.3150    3.3720    2.2620 hc        1 LSC      0.039700
     42 H3A         4.0760    3.5790    3.5580 hc        1 LSC      0.039700
     43 H4          3.5670    1.1140    3.4650 hc        1 LSC      0.039700
     44 H4A         4.8050    0.9070    2.1680 hc        1 LSC      0.039700
     45 H5          5.3420    1.9950    5.0200 hc        1 LSC      0.039700
     46 H5A         6.5810    1.7870    3.7230 hc        1 LSC      0.039700
     47 H6          6.0690   -0.6780    3.6300 hc        1 LSC      0.039700
     48 H6A         4.8310   -0.4690    4.9280 hc        1 LSC      0.039700
     49 H7          7.8460    0.2010    5.1820 hc        1 LSC      0.041200
     50 H7A         6.6090    0.4110    6.4800 hc        1 LSC      0.041200
     51 H8          7.3180   -2.2660    5.0840 hc        1 LSC      0.047200
     52 H8A         6.0900   -2.0530    6.3880 hc        1 LSC      0.047200
     53 H9          8.5630   -0.8850    7.4030 ha        1 LSC      0.121000
     54 H10         9.3210   -3.0600    8.2380 ha        1 LSC      0.122000
     55 H11         6.8690   -4.2840    7.0590 hc        1 LSC      0.047700
     56 H11A        8.2540   -4.4250    5.9100 hc        1 LSC      0.047700
     57 H12         9.6460   -5.4420    7.8080 hc        1 LSC      0.041200
     58 H12A        8.2480   -6.4290    7.2290 hc        1 LSC      0.041200
     59 H13         8.2260   -4.5900    9.7190 hc        1 LSC      0.041200
     60 H13A        6.8550   -5.6150    9.1440 hc        1 LSC      0.041200
     61 H14         8.2840   -7.6740    9.4040 hc        1 LSC      0.042200
     62 H14A        9.6540   -6.6500    9.9820 hc        1 LSC      0.042200
     63 H15         8.2390   -5.8300   11.8950 hc        1 LSC      0.040200
     64 H15A        6.8630   -6.8450   11.3140 hc        1 LSC      0.040200
     65 H16         9.6580   -7.9100   12.1320 hc        1 LSC      0.057700
     66 H16A        8.2660   -8.9190   11.5810 hc        1 LSC      0.057700
     67 H17         8.3470   -7.1040   14.1000 hc        1 LSC      0.075700
     68 H17A        6.8780   -7.9920   13.5150 hc        1 LSC      0.075700
     69 H20         8.3200  -10.9910   16.1840 h1        1 LSC      0.069200
     70 H20A       10.0890  -10.5480   15.9750 h1        1 LSC      0.069200
     71 H21         9.1490   -8.5860   17.8220 h1        1 LSC      0.051700
     72 H22        11.3070   -9.7960   18.0690 h1        1 LSC      0.054200
     73 H22A       10.4450  -11.3850   18.3690 h1        1 LSC      0.054200
     74 H30        14.3490   -8.5240   20.9810 h1        1 LSC      0.054200
     75 H30A       13.3030   -9.3090   22.2820 h1        1 LSC      0.054200
     76 H31        13.8650   -6.7530   22.4040 hx        1 LSC      0.080200
     77 H31A       12.7620   -6.5510   20.9410 hx        1 LSC      0.080200
     78 H33         9.6510   -7.0820   22.7630 hx        1 LSC      0.100144
     79 H33A       10.4320   -6.5810   21.1730 hx        1 LSC      0.100144
     80 H33B       10.5000   -8.3390   21.7210 hx        1 LSC      0.100144
     81 HO33        8.0980  -10.1640   19.3500 ho        1 LSC      0.424000
     82 H34        11.1430   -7.5430   24.7410 hx        1 LSC      0.100144
     83 H34A       12.9270   -7.8030   24.3950 hx        1 LSC      0.100144
     84 H34B       11.6620   -8.9460   23.6810 hx        1 LSC      0.100144
     85 H35        10.8730   -5.3800   23.8710 hx        1 LSC      0.100144
     86 H35A       12.7030   -5.3620   23.8460 hx        1 LSC      0.100144
     87 H35B       11.7600   -4.8850   22.3490 hx        1 LSC      0.100144
@<TRIPOS>BOND
     1    1    2 1   
     2    1   36 1   
     3    1   37 1   
     4    1   38 1   
     5    2    3 1   
     6    2   39 1   
     7    2   40 1   
     8    3    4 1   
     9    3   41 1   
    10    3   42 1   
    11    4    5 1   
    12    4   43 1   
    13    4   44 1   
    14    5    6 1   
    15    5   45 1   
    16    5   46 1   
    17    6    7 1   
    18    6   47 1   
    19    6   48 1   
    20    7    8 1   
    21    7   49 1   
    22    7   50 1   
    23    8    9 1   
    24    8   51 1   
    25    8   52 1   
    26    9   10 2   
    27    9   53 1   
    28   10   11 1   
    29   10   54 1   
    30   11   12 1   
    31   11   55 1   
    32   11   56 1   
    33   12   13 1   
    34   12   57 1   
    35   12   58 1   
    36   13   14 1   
    37   13   59 1   
    38   13   60 1   
    39   14   15 1   
    40   14   61 1   
    41   14   62 1   
    42   15   16 1   
    43   15   63 1   
    44   15   64 1   
    45   16   17 1   
    46   16   65 1   
    47   16   66 1   
    48   17   18 1   
    49   17   67 1   
    50   17   68 1   
    51   18   19 1   
    52   18   29 2   
    53   19   20 1   
    54   20   21 1   
    55   20   69 1   
    56   20   70 1   
    57   21   22 1   
    58   21   31 1   
    59   21   71 1   
    60   22   23 1   
    61   22   72 1   
    62   22   73 1   
    63   23   24 1   
    64   24   25 1   
    65   24   33 1   
    66   24   35 1   
    67   26   27 1   
    68   26   35 1   
    69   26   74 1   
    70   26   75 1   
    71   27   28 1   
    72   27   76 1   
    73   27   77 1   
    74   28   30 1   
    75   28   32 1   
    76   28   34 1   
    77   30   78 1   
    78   30   79 1   
    79   30   80 1   
    80   31   81 1   
    81   32   82 1   
    82   32   83 1   
    83   32   84 1   
    84   34   85 1   
    85   34   86 1   
    86   34   87 1   
@<TRIPOS>SUBSTRUCTURE
     1 LSC         1 TEMP              0 ****  ****    0 ROOT
