@<TRIPOS>MOLECULE
LSC
   87    86     1     0     0
SMALL
bcc


@<TRIPOS>ATOM
      1 C1          1.5040    4.0130    1.8130 c3        1 LSC     -0.092100
      2 C2          1.9010    3.0430    2.8960 c3        1 LSC     -0.080400
      3 C3          3.2770    2.4640    2.6470 c3        1 LSC     -0.079400
      4 C4          3.6710    1.4910    3.7360 c3        1 LSC     -0.079400
      5 C5          5.0470    0.9130    3.4850 c3        1 LSC     -0.079400
      6 C6          5.4410   -0.0610    4.5750 c3        1 LSC     -0.079400
      7 C7          6.8180   -0.6390    4.3240 c3        1 LSC     -0.077400
      8 C8          7.2100   -1.6130    5.4150 c3        1 LSC     -0.049200
      9 C9          8.5540   -2.1950    5.1940 c2        1 LSC     -0.174200
     10 C10         9.1280   -3.0760    6.0200 c2        1 LSC     -0.174200
     11 C11         8.4880   -3.5780    7.2590 c3        1 LSC     -0.049200
     12 C12         9.3630   -4.5710    7.9960 c3        1 LSC     -0.077400
     13 C13         8.6870   -5.0640    9.2570 c3        1 LSC     -0.079400
     14 C14         9.5590   -6.0580    9.9940 c3        1 LSC     -0.079400
     15 C15         8.8850   -6.5480   11.2570 c3        1 LSC     -0.078400
     16 C16         9.7570   -7.5470   11.9870 c3        1 LSC     -0.079400
     17 C17         9.0870   -8.0170   13.2610 c3        1 LSC     -0.127400
     18 C18         9.8770   -9.1110   13.9120 c         1 LSC      0.632100
     19 O19         9.8540   -9.0330   15.2760 os        1 LSC     -0.444900
     20 C20        10.5300  -10.0780   15.9950 c3        1 LSC      0.134400
     21 C21        10.1440   -9.8940   17.4640 c3        1 LSC      0.140100
     22 C22        11.3750  -10.0550   18.3590 c3        1 LSC      0.132400
     23 O23        10.9380  -10.0640   19.6950 os        1 LSC     -0.583200
     24 P24        12.1660  -10.1460   20.7680 p5        1 LSC      1.439800
     25 O25        11.5450  -10.3580   22.0970 o         1 LSC     -0.816000
     26 C30        12.8480   -7.9680   22.0260 c3        1 LSC      0.199400
     27 C31        11.8840   -6.8840   22.5470 c3        1 LSC      0.091800
     28 N32        10.6040   -7.3460   23.1960 n4        1 LSC     -0.581800
     29 O32        10.5030  -10.0320   13.3840 o         1 LSC     -0.543000
     30 C33         9.6810   -7.9440   22.1870 c3        1 LSC      0.079100
     31 O33         9.1580  -10.8730   17.7550 oh        1 LSC     -0.610800
     32 C34        10.8730   -8.3340   24.2810 c3        1 LSC      0.079100
     33 O34        13.3390  -10.7870   20.1750 o         1 LSC     -0.816000
     34 C35         9.9410   -6.1470   23.7930 c3        1 LSC      0.079100
     35 O35        12.4060   -8.4860   20.8270 os        1 LSC     -0.573200
     36 H1          1.4860    3.5070    0.8180 hc        1 LSC      0.032700
     37 H1A         0.4870    4.4280    2.0170 hc        1 LSC      0.032700
     38 H1B         2.2270    4.8630    1.7600 hc        1 LSC      0.032700
     39 H2          1.1500    2.2110    2.9500 hc        1 LSC      0.038200
     40 H2A         1.8890    3.5630    3.8900 hc        1 LSC      0.038200
     41 H3          4.0300    3.2950    2.5940 hc        1 LSC      0.039700
     42 H3A         3.2900    1.9430    1.6530 hc        1 LSC      0.039700
     43 H4          3.6580    2.0120    4.7290 hc        1 LSC      0.039200
     44 H4A         2.9180    0.6600    3.7890 hc        1 LSC      0.039200
     45 H5          5.8000    1.7430    3.4330 hc        1 LSC      0.039700
     46 H5A         5.0610    0.3910    2.4920 hc        1 LSC      0.039700
     47 H6          5.4280    0.4610    5.5680 hc        1 LSC      0.039200
     48 H6A         4.6890   -0.8910    4.6280 hc        1 LSC      0.039200
     49 H7          6.8310   -1.1610    3.3310 hc        1 LSC      0.041700
     50 H7A         7.5710    0.1910    4.2710 hc        1 LSC      0.041700
     51 H8          6.4500   -2.4410    5.4710 hc        1 LSC      0.047200
     52 H8A         7.1880   -1.0900    6.4110 hc        1 LSC      0.047200
     53 H9          9.0820   -1.8590    4.2860 ha        1 LSC      0.122000
     54 H10        10.1320   -3.4740    5.8000 ha        1 LSC      0.122000
     55 H11         7.5050   -4.0620    7.0020 hc        1 LSC      0.047200
     56 H11A        8.2520   -2.7100    7.9350 hc        1 LSC      0.047200
     57 H12        10.3420   -4.0880    8.2580 hc        1 LSC      0.042700
     58 H12A        9.5920   -5.4410    7.3260 hc        1 LSC      0.042700
     59 H13         8.4590   -4.1940    9.9270 hc        1 LSC      0.039200
     60 H13A        7.7080   -5.5450    8.9950 hc        1 LSC      0.039200
     61 H14        10.5400   -5.5780   10.2530 hc        1 LSC      0.043200
     62 H14A        9.7840   -6.9300    9.3250 hc        1 LSC      0.043200
     63 H15         8.6650   -5.6770   11.9290 hc        1 LSC      0.039700
     64 H15A        7.9020   -7.0240   10.9980 hc        1 LSC      0.039700
     65 H16        10.7460   -7.0790   12.2330 hc        1 LSC      0.057700
     66 H16A        9.9660   -8.4310   11.3270 hc        1 LSC      0.057700
     67 H17         8.0670   -8.4310   13.0360 hc        1 LSC      0.075700
     68 H17A        8.9610   -7.1640   13.9780 hc        1 LSC      0.075700
     69 H20        10.1970  -11.0760   15.6100 h1        1 LSC      0.069200
     70 H20A       11.6330   -9.9550   15.8380 h1        1 LSC      0.069200
     71 H21         9.6910   -8.8740   17.6250 h1        1 LSC      0.051700
     72 H22        11.9120  -11.0200   18.1520 h1        1 LSC      0.054200
     73 H22A       12.0850   -9.1960   18.2160 h1        1 LSC      0.054200
     74 H30        13.0000   -8.7740   22.7970 h1        1 LSC      0.054200
     75 H30A       13.8220   -7.4210   21.8510 h1        1 LSC      0.054200
     76 H31        11.5920   -6.2340   21.6750 hx        1 LSC      0.080200
     77 H31A       12.4330   -6.2700   23.3150 hx        1 LSC      0.080200
     78 H33        10.1750   -8.8630   21.7370 hx        1 LSC      0.100144
     79 H33A        9.4770   -7.1940   21.3810 hx        1 LSC      0.100144
     80 H33B        8.7300   -8.2440   22.6950 hx        1 LSC      0.100144
     81 HO33        9.1470  -10.9820   18.7160 ho        1 LSC      0.424000
     82 H34         9.9430   -8.4630   24.8930 hx        1 LSC      0.100144
     83 H34A       11.7060   -7.9530   24.9240 hx        1 LSC      0.100144
     84 H34B       11.1560   -9.3350   23.8290 hx        1 LSC      0.100144
     85 H35        10.5880   -5.7260   24.6050 hx        1 LSC      0.100144
     86 H35A        8.9490   -6.4460   24.2230 hx        1 LSC      0.100144
     87 H35B        9.7830   -5.3730   22.9970 hx        1 LSC      0.100144
@<TRIPOS>BOND
     1    1    2 1   
     2    1   36 1   
     3    1   37 1   
     4    1   38 1   
     5    2    3 1   
     6    2   39 1   
     7    2   40 1   
     8    3    4 1   
     9    3   41 1   
    10    3   42 1   
    11    4    5 1   
    12    4   43 1   
    13    4   44 1   
    14    5    6 1   
    15    5   45 1   
    16    5   46 1   
    17    6    7 1   
    18    6   47 1   
    19    6   48 1   
    20    7    8 1   
    21    7   49 1   
    22    7   50 1   
    23    8    9 1   
    24    8   51 1   
    25    8   52 1   
    26    9   10 2   
    27    9   53 1   
    28   10   11 1   
    29   10   54 1   
    30   11   12 1   
    31   11   55 1   
    32   11   56 1   
    33   12   13 1   
    34   12   57 1   
    35   12   58 1   
    36   13   14 1   
    37   13   59 1   
    38   13   60 1   
    39   14   15 1   
    40   14   61 1   
    41   14   62 1   
    42   15   16 1   
    43   15   63 1   
    44   15   64 1   
    45   16   17 1   
    46   16   65 1   
    47   16   66 1   
    48   17   18 1   
    49   17   67 1   
    50   17   68 1   
    51   18   19 1   
    52   18   29 2   
    53   19   20 1   
    54   20   21 1   
    55   20   69 1   
    56   20   70 1   
    57   21   22 1   
    58   21   31 1   
    59   21   71 1   
    60   22   23 1   
    61   22   72 1   
    62   22   73 1   
    63   23   24 1   
    64   24   25 1   
    65   24   33 1   
    66   24   35 1   
    67   26   27 1   
    68   26   35 1   
    69   26   74 1   
    70   26   75 1   
    71   27   28 1   
    72   27   76 1   
    73   27   77 1   
    74   28   30 1   
    75   28   32 1   
    76   28   34 1   
    77   30   78 1   
    78   30   79 1   
    79   30   80 1   
    80   31   81 1   
    81   32   82 1   
    82   32   83 1   
    83   32   84 1   
    84   34   85 1   
    85   34   86 1   
    86   34   87 1   
@<TRIPOS>SUBSTRUCTURE
     1 LSC         1 TEMP              0 ****  ****    0 ROOT
