@<TRIPOS>MOLECULE
LSC
   87    86     1     0     0
SMALL
bcc


@<TRIPOS>ATOM
      1 C1         17.8090    1.9310   -0.9660 c3        1 LSC     -0.092100
      2 C2         16.8290    0.7960   -1.1150 c3        1 LSC     -0.080400
      3 C3         15.5260    1.0900   -0.4020 c3        1 LSC     -0.079400
      4 C4         14.5450   -0.0530   -0.5540 c3        1 LSC     -0.079400
      5 C5         13.2430    0.2430    0.1600 c3        1 LSC     -0.079400
      6 C6         12.2620   -0.9000    0.0080 c3        1 LSC     -0.079400
      7 C7         10.9600   -0.6030    0.7200 c3        1 LSC     -0.076400
      8 C8          9.9800   -1.7510    0.5690 c3        1 LSC     -0.048200
      9 C9          8.7070   -1.4770    1.2770 c2        1 LSC     -0.170200
     10 C10         7.5020   -1.7120    0.7500 c2        1 LSC     -0.171200
     11 C11         6.2300   -1.4790    1.4750 c3        1 LSC     -0.048200
     12 C12         5.2080   -0.7830    0.5970 c3        1 LSC     -0.076400
     13 C13         3.9080   -0.5650    1.3410 c3        1 LSC     -0.079400
     14 C14         2.8850    0.1260    0.4650 c3        1 LSC     -0.079400
     15 C15         1.5850    0.3440    1.2090 c3        1 LSC     -0.078400
     16 C16         0.5650    1.0370    0.3310 c3        1 LSC     -0.079400
     17 C17        -0.7390    1.2340    1.0740 c3        1 LSC     -0.127400
     18 C18        -1.7030    2.0440    0.2630 c         1 LSC      0.632100
     19 O19        -2.9970    1.6330    0.4240 os        1 LSC     -0.444900
     20 C20        -4.0070    2.3900   -0.2660 c3        1 LSC      0.134400
     21 C21        -5.3470    1.8920    0.2790 c3        1 LSC      0.140100
     22 C22        -6.3410    1.6890   -0.8680 c3        1 LSC      0.132400
     23 O23        -7.5990    1.4170   -0.3040 os        1 LSC     -0.583200
     24 P24        -8.7440    1.0920   -1.4230 p5        1 LSC      1.439800
     25 O25       -10.0340    1.0390   -0.6950 o         1 LSC     -0.816000
     26 C30        -9.4500   -1.3920   -1.7730 c3        1 LSC      0.199400
     27 C31        -9.6040   -2.4540   -0.6670 c3        1 LSC      0.091800
     28 N32       -10.2550   -2.0240    0.6230 n4        1 LSC     -0.581800
     29 O32        -1.4750    2.9960   -0.4860 o         1 LSC     -0.542000
     30 C33        -9.3680   -1.0940    1.3830 c3        1 LSC      0.079100
     31 O33        -5.8060    2.8720    1.1980 oh        1 LSC     -0.610800
     32 C34       -11.5730   -1.3720    0.3730 c3        1 LSC      0.079100
     33 O34        -8.4210    1.7220   -2.7020 o         1 LSC     -0.816000
     34 C35       -10.4750   -3.2490    1.4490 c3        1 LSC      0.079100
     35 O35        -8.3940   -0.5480   -1.5020 os        1 LSC     -0.573200
     36 H1         18.0430    2.1110    0.1110 hc        1 LSC      0.032700
     37 H1A        18.7610    1.6930   -1.4980 hc        1 LSC      0.032700
     38 H1B        17.3900    2.8730   -1.3950 hc        1 LSC      0.032700
     39 H2         16.6260    0.6130   -2.2030 hc        1 LSC      0.038200
     40 H2A        17.2770   -0.1460   -0.7000 hc        1 LSC      0.038200
     41 H3         15.7270    1.2710    0.6870 hc        1 LSC      0.039700
     42 H3A        15.0760    2.0300   -0.8160 hc        1 LSC      0.039700
     43 H4         14.3440   -0.2340   -1.6430 hc        1 LSC      0.039200
     44 H4A        14.9950   -0.9930   -0.1400 hc        1 LSC      0.039200
     45 H5         13.4430    0.4240    1.2480 hc        1 LSC      0.040200
     46 H5A        12.7920    1.1830   -0.2550 hc        1 LSC      0.040200
     47 H6         12.0620   -1.0820   -1.0810 hc        1 LSC      0.039200
     48 H6A        12.7120   -1.8400    0.4220 hc        1 LSC      0.039200
     49 H7         11.1590   -0.4200    1.8090 hc        1 LSC      0.042200
     50 H7A        10.5070    0.3340    0.3040 hc        1 LSC      0.042200
     51 H8          9.7950   -1.9420   -0.5220 hc        1 LSC      0.045200
     52 H8A        10.4360   -2.6870    0.9950 hc        1 LSC      0.045200
     53 H9          8.8150   -1.0690    2.2960 ha        1 LSC      0.120000
     54 H10         7.3940   -2.1110   -0.2720 ha        1 LSC      0.120000
     55 H11         5.8180   -2.4710    1.8090 hc        1 LSC      0.045200
     56 H11A        6.4050   -0.8670    2.4010 hc        1 LSC      0.045200
     57 H12         5.6170    0.2040    0.2550 hc        1 LSC      0.043200
     58 H12A        5.0180   -1.3990   -0.3210 hc        1 LSC      0.043200
     59 H13         3.5020   -1.5520    1.6870 hc        1 LSC      0.038700
     60 H13A        4.0980    0.0540    2.2570 hc        1 LSC      0.038700
     61 H14         3.2900    1.1130    0.1190 hc        1 LSC      0.043200
     62 H14A        2.6950   -0.4920   -0.4520 hc        1 LSC      0.043200
     63 H15         1.1770   -0.6440    1.5530 hc        1 LSC      0.039200
     64 H15A        1.7750    0.9610    2.1260 hc        1 LSC      0.039200
     65 H16         0.9590    2.0340   -0.0020 hc        1 LSC      0.057700
     66 H16A        0.3830    0.4280   -0.5930 hc        1 LSC      0.057700
     67 H17        -1.2000    0.2450    1.3320 hc        1 LSC      0.075700
     68 H17A       -0.5620    1.7910    2.0340 hc        1 LSC      0.075700
     69 H20        -3.8650    3.4820   -0.0580 h1        1 LSC      0.069200
     70 H20A       -3.9050    2.1920   -1.3630 h1        1 LSC      0.069200
     71 H21        -5.2080    0.9210    0.8330 h1        1 LSC      0.051700
     72 H22        -6.4280    2.6100   -1.5060 h1        1 LSC      0.054200
     73 H22A       -6.0350    0.8200   -1.5090 h1        1 LSC      0.054200
     74 H30        -9.2120   -1.9870   -2.7060 h1        1 LSC      0.054200
     75 H30A      -10.4100   -0.8240   -1.9220 h1        1 LSC      0.054200
     76 H31       -10.2270   -3.2970   -1.0780 hx        1 LSC      0.080200
     77 H31A       -8.5760   -2.8320   -0.4050 hx        1 LSC      0.080200
     78 H33        -9.2060   -0.1560    0.7640 hx        1 LSC      0.100144
     79 H33A       -9.8660   -0.8220    2.3480 hx        1 LSC      0.100144
     80 H33B       -8.3840   -1.5940    1.5730 hx        1 LSC      0.100144
     81 HO33       -6.7600    2.7410    1.2930 ho        1 LSC      0.424000
     82 H34       -12.1570   -1.9920   -0.3530 hx        1 LSC      0.100144
     83 H34A      -12.1290   -1.2920    1.3430 hx        1 LSC      0.100144
     84 H34B      -11.4140   -0.3290   -0.0440 hx        1 LSC      0.100144
     85 H35        -9.4990   -3.7800    1.5980 hx        1 LSC      0.100144
     86 H35A      -10.8940   -2.9550    2.4470 hx        1 LSC      0.100144
     87 H35B      -11.1980   -3.9290    0.9280 hx        1 LSC      0.100144
@<TRIPOS>BOND
     1    1    2 1   
     2    1   36 1   
     3    1   37 1   
     4    1   38 1   
     5    2    3 1   
     6    2   39 1   
     7    2   40 1   
     8    3    4 1   
     9    3   41 1   
    10    3   42 1   
    11    4    5 1   
    12    4   43 1   
    13    4   44 1   
    14    5    6 1   
    15    5   45 1   
    16    5   46 1   
    17    6    7 1   
    18    6   47 1   
    19    6   48 1   
    20    7    8 1   
    21    7   49 1   
    22    7   50 1   
    23    8    9 1   
    24    8   51 1   
    25    8   52 1   
    26    9   10 2   
    27    9   53 1   
    28   10   11 1   
    29   10   54 1   
    30   11   12 1   
    31   11   55 1   
    32   11   56 1   
    33   12   13 1   
    34   12   57 1   
    35   12   58 1   
    36   13   14 1   
    37   13   59 1   
    38   13   60 1   
    39   14   15 1   
    40   14   61 1   
    41   14   62 1   
    42   15   16 1   
    43   15   63 1   
    44   15   64 1   
    45   16   17 1   
    46   16   65 1   
    47   16   66 1   
    48   17   18 1   
    49   17   67 1   
    50   17   68 1   
    51   18   19 1   
    52   18   29 2   
    53   19   20 1   
    54   20   21 1   
    55   20   69 1   
    56   20   70 1   
    57   21   22 1   
    58   21   31 1   
    59   21   71 1   
    60   22   23 1   
    61   22   72 1   
    62   22   73 1   
    63   23   24 1   
    64   24   25 1   
    65   24   33 1   
    66   24   35 1   
    67   26   27 1   
    68   26   35 1   
    69   26   74 1   
    70   26   75 1   
    71   27   28 1   
    72   27   76 1   
    73   27   77 1   
    74   28   30 1   
    75   28   32 1   
    76   28   34 1   
    77   30   78 1   
    78   30   79 1   
    79   30   80 1   
    80   31   81 1   
    81   32   82 1   
    82   32   83 1   
    83   32   84 1   
    84   34   85 1   
    85   34   86 1   
    86   34   87 1   
@<TRIPOS>SUBSTRUCTURE
     1 LSC         1 TEMP              0 ****  ****    0 ROOT
