@<TRIPOS>MOLECULE
LSC
   87    86     1     0     0
SMALL
bcc


@<TRIPOS>ATOM
      1 C1          1.4710    4.0180    1.8000 c3        1 LSC     -0.092100
      2 C2          1.8620    3.0370    2.8740 c3        1 LSC     -0.080400
      3 C3          3.2540    2.4880    2.6460 c3        1 LSC     -0.079400
      4 C4          3.6430    1.5030    3.7280 c3        1 LSC     -0.079400
      5 C5          5.0340    0.9540    3.4970 c3        1 LSC     -0.079400
      6 C6          5.4230   -0.0310    4.5790 c3        1 LSC     -0.079400
      7 C7          6.8140   -0.5800    4.3480 c3        1 LSC     -0.077400
      8 C8          7.2000   -1.5650    5.4310 c3        1 LSC     -0.049200
      9 C9          8.5590   -2.1200    5.2290 c2        1 LSC     -0.174200
     10 C10         9.1390   -2.9880    6.0650 c2        1 LSC     -0.174200
     11 C11         8.4940   -3.4990    7.2970 c3        1 LSC     -0.049200
     12 C12         9.3650   -4.5010    8.0280 c3        1 LSC     -0.077400
     13 C13         8.6830   -5.0040    9.2820 c3        1 LSC     -0.079400
     14 C14         9.5500   -6.0080   10.0120 c3        1 LSC     -0.079400
     15 C15         8.8710   -6.5070   11.2690 c3        1 LSC     -0.078400
     16 C16         9.7360   -7.5180   11.9900 c3        1 LSC     -0.079400
     17 C17         9.0630   -7.9960   13.2590 c3        1 LSC     -0.127400
     18 C18         9.8440   -9.1020   13.8980 c         1 LSC      0.632100
     19 O19         9.8280   -9.0340   15.2630 os        1 LSC     -0.444900
     20 C20        10.4960  -10.0930   15.9720 c3        1 LSC      0.134400
     21 C21        10.1220   -9.9130   17.4440 c3        1 LSC      0.140100
     22 C22        11.3560  -10.0990   18.3300 c3        1 LSC      0.132400
     23 O23        10.9270  -10.1130   19.6680 os        1 LSC     -0.583200
     24 P24        12.1610  -10.2240   20.7330 p5        1 LSC      1.439800
     25 O25        11.5440  -10.4350   22.0640 o         1 LSC     -0.816000
     26 C30        12.8880   -8.0670   22.0030 c3        1 LSC      0.199400
     27 C31        11.9460   -6.9710   22.5390 c3        1 LSC      0.091800
     28 N32        10.6630   -7.4160   23.1930 n4        1 LSC     -0.581800
     29 O32        10.4570  -10.0260   13.3610 o         1 LSC     -0.543000
     30 C33         9.7230   -7.9910   22.1860 c3        1 LSC      0.079100
     31 O33         9.1230  -10.8790   17.7340 oh        1 LSC     -0.609800
     32 C34        10.9220   -8.4170   24.2680 c3        1 LSC      0.079100
     33 O34        13.3190  -10.8790   20.1270 o         1 LSC     -0.816000
     34 C35        10.0240   -6.2110   23.8040 c3        1 LSC      0.079100
     35 O35        12.4280   -8.5670   20.8030 os        1 LSC     -0.573200
     36 H1          2.1800    4.8810    1.7770 hc        1 LSC      0.032700
     37 H1A         1.4840    3.5290    0.7960 hc        1 LSC      0.032700
     38 H1B         0.4430    4.4110    1.9870 hc        1 LSC      0.032700
     39 H2          1.1260    2.1910    2.8980 hc        1 LSC      0.038200
     40 H2A         1.8190    3.5400    3.8770 hc        1 LSC      0.038200
     41 H3          3.2990    1.9840    1.6450 hc        1 LSC      0.039700
     42 H3A         3.9920    3.3330    2.6230 hc        1 LSC      0.039700
     43 H4          2.9040    0.6590    3.7500 hc        1 LSC      0.039200
     44 H4A         3.5980    2.0070    4.7290 hc        1 LSC      0.039200
     45 H5          5.0790    0.4500    2.4960 hc        1 LSC      0.039700
     46 H5A         5.7730    1.7990    3.4750 hc        1 LSC      0.039700
     47 H6          4.6840   -0.8750    4.6020 hc        1 LSC      0.039200
     48 H6A         5.3790    0.4740    5.5800 hc        1 LSC      0.039200
     49 H7          7.5530    0.2640    4.3260 hc        1 LSC      0.041700
     50 H7A         6.8580   -1.0840    3.3470 hc        1 LSC      0.041700
     51 H8          6.4540   -2.4080    5.4560 hc        1 LSC      0.047200
     52 H8A         7.1480   -1.0600    6.4350 hc        1 LSC      0.047200
     53 H9          9.0920   -1.7750    4.3280 ha        1 LSC      0.122000
     54 H10        10.1540   -3.3650    5.8590 ha        1 LSC      0.122000
     55 H11         7.5110   -3.9780    7.0330 hc        1 LSC      0.047200
     56 H11A        8.2590   -2.6370    7.9800 hc        1 LSC      0.047200
     57 H12         9.5930   -5.3650    7.3510 hc        1 LSC      0.042700
     58 H12A       10.3440   -4.0230    8.2970 hc        1 LSC      0.042700
     59 H13         8.4570   -4.1390    9.9600 hc        1 LSC      0.039200
     60 H13A        7.7030   -5.4790    9.0130 hc        1 LSC      0.039200
     61 H14         9.7720   -6.8750    9.3350 hc        1 LSC      0.043200
     62 H14A       10.5320   -5.5350   10.2770 hc        1 LSC      0.043200
     63 H15         7.8860   -6.9740   11.0050 hc        1 LSC      0.039700
     64 H15A        8.6550   -5.6410   11.9500 hc        1 LSC      0.039700
     65 H16        10.7290   -7.0590   12.2410 hc        1 LSC      0.057700
     66 H16A        9.9390   -8.3980   11.3220 hc        1 LSC      0.057700
     67 H17         8.9440   -7.1490   13.9850 hc        1 LSC      0.075700
     68 H17A        8.0400   -8.3990   13.0310 hc        1 LSC      0.075700
     69 H20        10.1480  -11.0840   15.5820 h1        1 LSC      0.069200
     70 H20A       11.5990   -9.9820   15.8070 h1        1 LSC      0.069200
     71 H21         9.6860   -8.8880   17.6150 h1        1 LSC      0.051700
     72 H22        12.0780   -9.2510   18.1890 h1        1 LSC      0.054200
     73 H22A       11.8770  -11.0710   18.1120 h1        1 LSC      0.054200
     74 H30        13.0320   -8.8820   22.7660 h1        1 LSC      0.054200
     75 H30A       13.8700   -7.5350   21.8260 h1        1 LSC      0.054200
     76 H31        11.6600   -6.3090   21.6740 hx        1 LSC      0.080200
     77 H31A       12.5110   -6.3730   23.3080 hx        1 LSC      0.080200
     78 H33         8.7700   -8.2790   22.6980 hx        1 LSC      0.100144
     79 H33A       10.1980   -8.9140   21.7260 hx        1 LSC      0.100144
     80 H33B        9.5270   -7.2310   21.3870 hx        1 LSC      0.100144
     81 HO33        9.1160  -10.9950   18.6940 ho        1 LSC      0.424000
     82 H34         9.9950   -8.5360   24.8860 hx        1 LSC      0.100144
     83 H34A       11.1850   -9.4200   23.8070 hx        1 LSC      0.100144
     84 H34B       11.7660   -8.0560   24.9090 hx        1 LSC      0.100144
     85 H35         9.8750   -5.4280   23.0150 hx        1 LSC      0.100144
     86 H35A       10.6840   -5.8080   24.6160 hx        1 LSC      0.100144
     87 H35B        9.0310   -6.4970   24.2380 hx        1 LSC      0.100144
@<TRIPOS>BOND
     1    1    2 1   
     2    1   36 1   
     3    1   37 1   
     4    1   38 1   
     5    2    3 1   
     6    2   39 1   
     7    2   40 1   
     8    3    4 1   
     9    3   41 1   
    10    3   42 1   
    11    4    5 1   
    12    4   43 1   
    13    4   44 1   
    14    5    6 1   
    15    5   45 1   
    16    5   46 1   
    17    6    7 1   
    18    6   47 1   
    19    6   48 1   
    20    7    8 1   
    21    7   49 1   
    22    7   50 1   
    23    8    9 1   
    24    8   51 1   
    25    8   52 1   
    26    9   10 2   
    27    9   53 1   
    28   10   11 1   
    29   10   54 1   
    30   11   12 1   
    31   11   55 1   
    32   11   56 1   
    33   12   13 1   
    34   12   57 1   
    35   12   58 1   
    36   13   14 1   
    37   13   59 1   
    38   13   60 1   
    39   14   15 1   
    40   14   61 1   
    41   14   62 1   
    42   15   16 1   
    43   15   63 1   
    44   15   64 1   
    45   16   17 1   
    46   16   65 1   
    47   16   66 1   
    48   17   18 1   
    49   17   67 1   
    50   17   68 1   
    51   18   19 1   
    52   18   29 2   
    53   19   20 1   
    54   20   21 1   
    55   20   69 1   
    56   20   70 1   
    57   21   22 1   
    58   21   31 1   
    59   21   71 1   
    60   22   23 1   
    61   22   72 1   
    62   22   73 1   
    63   23   24 1   
    64   24   25 1   
    65   24   33 1   
    66   24   35 1   
    67   26   27 1   
    68   26   35 1   
    69   26   74 1   
    70   26   75 1   
    71   27   28 1   
    72   27   76 1   
    73   27   77 1   
    74   28   30 1   
    75   28   32 1   
    76   28   34 1   
    77   30   78 1   
    78   30   79 1   
    79   30   80 1   
    80   31   81 1   
    81   32   82 1   
    82   32   83 1   
    83   32   84 1   
    84   34   85 1   
    85   34   86 1   
    86   34   87 1   
@<TRIPOS>SUBSTRUCTURE
     1 LSC         1 TEMP              0 ****  ****    0 ROOT
