@<TRIPOS>MOLECULE
LSC
   87    85     1     0     0
SMALL
bcc


@<TRIPOS>ATOM
      1 C1        -15.1640   -2.5280   -0.7170 c3        1 LSC     -0.210000
      2 C2        -13.9190   -1.7260   -1.0980 c3        1 LSC     -0.159000
      3 C3        -13.0230   -1.5210    0.1670 c3        1 LSC     -0.158000
      4 C4        -11.7530   -0.8220   -0.2260 c3        1 LSC     -0.158000
      5 C5        -10.8860   -0.5710    1.0350 c3        1 LSC     -0.157000
      6 C6         -9.5320   -0.0230    0.6170 c3        1 LSC     -0.158000
      7 C7         -8.6190    0.1120    1.8620 c3        1 LSC     -0.156000
      8 C8         -7.2160    0.6310    1.4220 c3        1 LSC     -0.132000
      9 C9         -6.1380   -0.0860    2.2150 c2        1 LSC     -0.170000
     10 C10        -4.8480    0.4560    2.2950 c1        1 LSC     -0.170000
     11 C11        -4.5240    1.7830    1.5780 c2        1 LSC     -0.132000
     12 C12        -3.0900    1.7500    1.0620 c3        1 LSC     -0.154000
     13 C13        -2.2980    2.9560    1.6540 c3        1 LSC     -0.159000
     14 C14        -0.9720    3.1540    0.8500 c3        1 LSC     -0.158000
     15 C15         0.1050    3.7290    1.7710 c3        1 LSC     -0.157000
     16 C16         1.4040    3.9520    0.9670 c3        1 LSC     -0.158000
     17 C17         2.5860    4.0540    1.9290 c3        1 LSC     -0.156000
     18 C18         3.9020    4.1370    1.1210 c2        1 LSC      0.302000
     19 O19         4.9690    3.2210    1.3980 os        1 LSC     -0.280000
     20 C20         6.1980    3.5170    0.6860 c3        1 LSC     -0.042000
     21 C21         7.2790    2.5070    1.0910 c3        1 LSC      0.005000
     22 C22         8.0620    2.0950   -0.1160 c3        1 LSC      0.013000
     23 O23         8.3170    0.6880   -0.0570 os        1 LSC     -0.737000
     24 P24         9.3300    0.0550   -1.1020 p5        1 LSC      1.906000
     25 O25         9.0630    0.6290   -2.4740 o         1 LSC     -0.807500
     26 C30         9.9050   -2.3140   -2.0540 c3        1 LSC      0.046000
     27 C31         9.7740   -3.8150   -1.7120 c3        1 LSC     -0.152000
     28 N32        10.3980   -4.6080   -2.7660 n4        1 LSC      0.053000
     29 O32         4.0760    5.0590    0.3280 o         1 LSC     -0.354000
     30 C33         9.8470   -4.2470   -4.0130 c3        1 LSC     -0.202000
     31 O33         6.6710    1.3720    1.6620 oh        1 LSC     -0.357000
     32 C34        11.8160   -4.3590   -2.7770 c3        1 LSC     -0.202000
     33 O34        10.7500    0.3780   -0.6890 o         1 LSC     -0.807500
     34 C35        10.1560   -6.0310   -2.5190 c3        1 LSC     -0.202000
     35 O35         9.1290   -1.5510   -1.1380 os        1 LSC     -0.746000
     36 H1        -15.7700   -2.5770   -1.4870 hc        1 LSC      0.072000
     37 H1A       -14.9010   -3.4310   -0.4510 hc        1 LSC      0.072000
     38 H1B       -15.6190   -2.0880    0.0290 hc        1 LSC      0.072000
     39 H2        -13.4080   -2.2180   -1.7880 hc        1 LSC      0.078000
     40 H2A       -14.1920   -0.8450   -1.4560 hc        1 LSC      0.078000
     41 H3        -13.5030   -0.9800    0.8220 hc        1 LSC      0.079000
     42 H3A       -12.8060   -2.3990    0.5620 hc        1 LSC      0.079000
     43 H4        -11.2550   -1.3810   -0.8600 hc        1 LSC      0.079000
     44 H4A       -11.9690    0.0320   -0.6460 hc        1 LSC      0.079000
     45 H5        -10.7610   -1.4220    1.5250 hc        1 LSC      0.079000
     46 H5A       -11.3320    0.0710    1.6110 hc        1 LSC      0.079000
     47 H6         -9.6490    0.8460    0.2070 hc        1 LSC      0.079000
     48 H6A        -9.1150   -0.6370   -0.0290 hc        1 LSC      0.079000
     49 H7         -9.0190    0.7460    2.4930 hc        1 LSC      0.080500
     50 H7A        -8.5230   -0.7770    2.3000 hc        1 LSC      0.080500
     51 H8         -7.0890    0.4570    0.4650 hc        1 LSC      0.086500
     52 H8A        -7.1590    1.5780    1.5860 hc        1 LSC      0.086500
     53 H9         -6.3410   -0.9180    2.6640 ha        1 LSC      0.121000
     54 H10        -4.1600   -0.0020    2.8020 ha        1 LSC      0.121000
     55 H11        -5.1390    1.9060    0.8230 ha        1 LSC      0.087500
     56 H11A       -4.6260    2.5240    2.2040 ha        1 LSC      0.087500
     57 H12        -3.0940    1.8110    0.0900 hc        1 LSC      0.080500
     58 H12A       -2.6660    0.9190    1.3330 hc        1 LSC      0.080500
     59 H13        -2.8430    3.7680    1.5900 hc        1 LSC      0.081000
     60 H13A       -2.0840    2.7760    2.6060 hc        1 LSC      0.081000
     61 H14        -1.1290    3.7710    0.1100 hc        1 LSC      0.081500
     62 H14A       -0.6730    2.2910    0.4970 hc        1 LSC      0.081500
     63 H15        -0.2020    4.5810    2.1380 hc        1 LSC      0.079500
     64 H15A        0.2780    3.0990    2.5060 hc        1 LSC      0.079500
     65 H16         1.3300    4.7830    0.4490 hc        1 LSC      0.097000
     66 H16A        1.5450    3.1940    0.3530 hc        1 LSC      0.097000
     67 H17         2.6060    3.2630    2.5070 hc        1 LSC      0.116500
     68 H17A        2.4910    4.8540    2.4770 hc        1 LSC      0.116500
     69 H20         6.0400    3.4580   -0.2750 h1        1 LSC      0.101000
     70 H20A        6.4970    4.4260    0.9140 h1        1 LSC      0.101000
     71 H21         7.8820    2.9190    1.7460 h1        1 LSC      0.128000
     72 H22         7.5480    2.3020   -0.9270 h1        1 LSC      0.088500
     73 H22A        8.9130    2.5820   -0.1350 h1        1 LSC      0.088500
     74 H30         9.5810   -2.1570   -2.9680 h1        1 LSC      0.096500
     75 H30A       10.8300   -2.0490   -1.9900 h1        1 LSC      0.096500
     76 H31        10.2180   -3.9950   -0.8640 hx        1 LSC      0.125500
     77 H31A        8.8170   -4.0550   -1.6400 hx        1 LSC      0.125500
     78 H33         9.9840   -4.9720   -4.6510 hx        1 LSC      0.141000
     79 H33A       10.2930   -3.4250   -4.3450 hx        1 LSC      0.141000
     80 H33B        8.8930   -4.0800   -3.9120 hx        1 LSC      0.141000
     81 HO33        6.8100    1.3690    2.5150 ho        1 LSC      0.221000
     82 H34        12.2670   -5.0440   -3.3310 hx        1 LSC      0.141000
     83 H34A       12.1580   -4.4000   -1.8730 hx        1 LSC      0.141000
     84 H34B       11.9910   -3.4580   -3.1570 hx        1 LSC      0.141000
     85 H35         9.1830   -6.2010   -2.4880 hx        1 LSC      0.141000
     86 H35A       10.5610   -6.2880   -1.6610 hx        1 LSC      0.141000
     87 H35B       10.5590   -6.5620   -3.2420 hx        1 LSC      0.141000
@<TRIPOS>BOND
     1    1    2 1   
     2    1   36 1   
     3    1   37 1   
     4    1   38 1   
     5    2    3 1   
     6    2   39 1   
     7    2   40 1   
     8    3    4 1   
     9    3   41 1   
    10    3   42 1   
    11    4    5 1   
    12    4   43 1   
    13    4   44 1   
    14    5    6 1   
    15    5   45 1   
    16    5   46 1   
    17    6    7 1   
    18    6   47 1   
    19    6   48 1   
    20    7    8 1   
    21    7   49 1   
    22    7   50 1   
    23    8    9 1   
    24    8   51 1   
    25    8   52 1   
    26    9   10 1   
    27    9   53 1   
    28   10   54 1   
    29   11   12 1   
    30   11   55 1   
    31   11   56 1   
    32   12   13 1   
    33   12   57 1   
    34   12   58 1   
    35   13   14 1   
    36   13   59 1   
    37   13   60 1   
    38   14   15 1   
    39   14   61 1   
    40   14   62 1   
    41   15   16 1   
    42   15   63 1   
    43   15   64 1   
    44   16   17 1   
    45   16   65 1   
    46   16   66 1   
    47   17   18 1   
    48   17   67 1   
    49   17   68 1   
    50   18   19 1   
    51   18   29 1   
    52   19   20 1   
    53   20   21 1   
    54   20   69 1   
    55   20   70 1   
    56   21   22 1   
    57   21   31 1   
    58   21   71 1   
    59   22   23 1   
    60   22   72 1   
    61   22   73 1   
    62   23   24 1   
    63   24   25 1   
    64   24   33 1   
    65   24   35 1   
    66   26   27 1   
    67   26   35 1   
    68   26   74 1   
    69   26   75 1   
    70   27   28 1   
    71   27   76 1   
    72   27   77 1   
    73   28   30 1   
    74   28   32 1   
    75   28   34 1   
    76   30   78 1   
    77   30   79 1   
    78   30   80 1   
    79   31   81 1   
    80   32   82 1   
    81   32   83 1   
    82   32   84 1   
    83   34   85 1   
    84   34   86 1   
    85   34   87 1   
@<TRIPOS>SUBSTRUCTURE
     1 LSC         1 TEMP              0 ****  ****    0 ROOT
