@<TRIPOS>MOLECULE
LSE
   66    67     1     0     0
SMALL
bcc


@<TRIPOS>ATOM
      1 O4         -0.4560    0.6470    0.1770 oh        1 LSE     -0.582800
      2 C9          0.9070    0.2940    0.0330 c3        1 LSE      0.129100
      3 C10         1.4610    0.0520    1.4440 c3        1 LSE      0.144100
      4 O3          0.9430   -1.1920    1.8780 oh        1 LSE     -0.593800
      5 C8          1.6480    1.4720   -0.6390 c3        1 LSE      0.297900
      6 O5          1.3560    1.3970   -2.0140 os        1 LSE     -0.419600
      7 C13         1.8130    2.5320   -2.7670 c3        1 LSE      0.153400
      8 C14         1.3390    2.3330   -4.1800 c3        1 LSE     -0.282400
      9 Si          1.9470    3.6890   -5.2620 Si        1 LSE      0.629000
     10 C18         3.7750    3.6920   -5.2960 c3        1 LSE     -0.297767
     11 C17         1.3060    3.4040   -6.9500 c3        1 LSE     -0.297767
     12 C16         1.3420    5.3010   -4.6460 c3        1 LSE     -0.297767
     13 O2          3.0640    1.3230   -0.6100 os        1 LSE     -0.438600
     14 C7          3.5810    1.2390    0.7200 c3        1 LSE      0.153100
     15 C11         5.0920    1.1820    0.5780 c3        1 LSE     -0.015300
     16 SE6         5.7960    2.3340    1.7260 ss        1 LSE     -0.292200
     17 C12         7.4650    2.4100    1.1960 c3        1 LSE     -0.044000
     18 C6          3.0010   -0.0130    1.4040 c3        1 LSE      0.079100
     19 O1          3.4570   -0.0120    2.7600 os        1 LSE     -0.411600
     20 C5          4.1760   -1.1650    3.1490 c3        1 LSE      0.311900
     21 O           3.1290   -2.1060    3.3250 os        1 LSE     -0.449600
     22 C4          4.8890   -0.8150    4.4690 c3        1 LSE      0.090100
     23 O7          6.0430   -0.0360    4.2200 oh        1 LSE     -0.620800
     24 C3          5.3700   -2.1060    5.1490 c3        1 LSE      0.111100
     25 O8          5.8480   -1.8330    6.4550 oh        1 LSE     -0.606800
     26 C2          4.2030   -3.0960    5.3090 c3        1 LSE      0.123100
     27 O9          3.2270   -2.6120    6.2140 oh        1 LSE     -0.590800
     28 C1          3.5340   -3.3260    3.9480 c3        1 LSE      0.114100
     29 C           2.2440   -4.1460    4.0790 c3        1 LSE      0.143400
     30 O10         1.6880   -4.4100    2.8110 oh        1 LSE     -0.601800
     31 H1         -0.8380    0.6160   -0.7100 ho        1 LSE      0.416000
     32 H2          1.0180   -0.6350   -0.5900 h1        1 LSE      0.079700
     33 H3          1.1290    0.8740    2.1370 h1        1 LSE      0.067700
     34 H4          1.2170   -1.2920    2.8020 ho        1 LSE      0.427000
     35 H5          1.3480    2.4590   -0.1890 h2        1 LSE      0.053700
     36 H6          1.3830    3.4660   -2.3120 h1        1 LSE      0.035700
     37 H7          2.9340    2.5730   -2.7070 h1        1 LSE      0.035700
     38 H8          0.2210    2.2810   -4.1910 hc        1 LSE      0.068200
     39 H9          1.6970    1.3390   -4.5490 hc        1 LSE      0.068200
     40 H10         4.2070    3.8700   -4.2850 hc        1 LSE      0.049033
     41 H11         4.1680    4.4890   -5.9690 hc        1 LSE      0.049033
     42 H12         4.1790    2.7210   -5.6630 hc        1 LSE      0.049033
     43 H13         1.6480    4.1940   -7.6570 hc        1 LSE      0.049033
     44 H14         0.1920    3.4010   -6.9710 hc        1 LSE      0.049033
     45 H15         1.6470    2.4250   -7.3580 hc        1 LSE      0.049033
     46 H16         1.7000    6.1410   -5.2840 hc        1 LSE      0.049033
     47 H17         1.6910    5.5030   -3.6070 hc        1 LSE      0.049033
     48 H18         0.2290    5.3450   -4.6350 hc        1 LSE      0.049033
     49 H19         3.2730    2.1560    1.3020 h1        1 LSE      0.071700
     50 H20         5.3860    1.4440   -0.4690 h1        1 LSE      0.076700
     51 H21         5.4680    0.1520    0.7910 h1        1 LSE      0.076700
     52 H22         7.5480    2.7460    0.1380 h1        1 LSE      0.067367
     53 H23         7.9800    1.4300    1.3000 h1        1 LSE      0.067367
     54 H24         7.9660    3.1560    1.8550 h1        1 LSE      0.067367
     55 H25         3.3190   -0.9420    0.8600 h1        1 LSE      0.081700
     56 H26         4.8990   -1.5160    2.3630 h2        1 LSE      0.052700
     57 H27         4.1790   -0.2620    5.1460 h1        1 LSE      0.085700
     58 H28         5.7660    0.7390    3.6990 ho        1 LSE      0.441000
     59 H29         6.1910   -2.5710    4.5380 h1        1 LSE      0.057700
     60 H30         6.4780   -1.1040    6.3740 ho        1 LSE      0.431000
     61 H31         4.6080   -4.0750    5.6930 h1        1 LSE      0.058700
     62 H32         3.7020   -2.3240    7.0060 ho        1 LSE      0.426000
     63 H33         4.2670   -3.8480    3.2710 h1        1 LSE      0.054700
     64 H34         2.4820   -5.1500    4.5180 h1        1 LSE      0.066200
     65 H35         1.5170   -3.5970    4.7340 h1        1 LSE      0.066200
     66 H36         1.4420   -3.5590    2.4200 ho        1 LSE      0.423000
@<TRIPOS>BOND
     1    1    2 1   
     2    1   31 1   
     3    2    3 1   
     4    2    5 1   
     5    2   32 1   
     6    3    4 1   
     7    3   18 1   
     8    3   33 1   
     9    4   34 1   
    10    5    6 1   
    11    5   13 1   
    12    5   35 1   
    13    6    7 1   
    14    7    8 1   
    15    7   36 1   
    16    7   37 1   
    17    8    9 1   
    18    8   38 1   
    19    8   39 1   
    20    9   10 1   
    21    9   11 1   
    22    9   12 1   
    23   10   40 1   
    24   10   41 1   
    25   10   42 1   
    26   11   43 1   
    27   11   44 1   
    28   11   45 1   
    29   12   46 1   
    30   12   47 1   
    31   12   48 1   
    32   13   14 1   
    33   14   15 1   
    34   14   18 1   
    35   14   49 1   
    36   15   16 1   
    37   15   50 1   
    38   15   51 1   
    39   16   17 1   
    40   17   52 1   
    41   17   53 1   
    42   17   54 1   
    43   18   19 1   
    44   18   55 1   
    45   19   20 1   
    46   20   21 1   
    47   20   22 1   
    48   20   56 1   
    49   21   28 1   
    50   22   23 1   
    51   22   24 1   
    52   22   57 1   
    53   23   58 1   
    54   24   25 1   
    55   24   26 1   
    56   24   59 1   
    57   25   60 1   
    58   26   27 1   
    59   26   28 1   
    60   26   61 1   
    61   27   62 1   
    62   28   29 1   
    63   28   63 1   
    64   29   30 1   
    65   29   64 1   
    66   29   65 1   
    67   30   66 1   
@<TRIPOS>SUBSTRUCTURE
     1 LSE         1 TEMP              0 ****  ****    0 ROOT
