@<TRIPOS>MOLECULE
LSE
   66    67     1     0     0
SMALL
bcc


@<TRIPOS>ATOM
      1 O4         -0.4570    0.6570    0.1990 oh        1 LSE     -0.582800
      2 C9          0.9050    0.3000    0.0480 c3        1 LSE      0.129100
      3 C10         1.4660    0.0610    1.4570 c3        1 LSE      0.144100
      4 O3          0.9470   -1.1810    1.8980 oh        1 LSE     -0.593800
      5 C8          1.6450    1.4730   -0.6320 c3        1 LSE      0.297900
      6 O5          1.3450    1.3940   -2.0060 os        1 LSE     -0.419600
      7 C13         1.8010    2.5250   -2.7640 c3        1 LSE      0.153400
      8 C14         1.3190    2.3210   -4.1740 c3        1 LSE     -0.282400
      9 SI          1.9320    3.6680   -5.2670 Si        1 LSE      0.629000
     10 C18         3.7600    3.6780   -5.2850 c3        1 LSE     -0.297767
     11 C17         1.3070    3.3620   -6.9560 c3        1 LSE     -0.297767
     12 C16         1.3160    5.2840   -4.6720 c3        1 LSE     -0.297767
     13 O2          3.0610    1.3200   -0.6100 os        1 LSE     -0.438600
     14 C7          3.5850    1.2400    0.7170 c3        1 LSE      0.153100
     15 C11         5.0960    1.1770    0.5660 c3        1 LSE     -0.015300
     16 SE6         5.8090    2.3320    1.7070 ss        1 LSE     -0.292200
     17 C12         7.4750    2.4010    1.1670 c3        1 LSE     -0.044000
     18 C6          3.0060   -0.0090    1.4080 c3        1 LSE      0.079100
     19 O1          3.4700   -0.0050    2.7620 os        1 LSE     -0.411600
     20 C5          4.1880   -1.1580    3.1510 c3        1 LSE      0.311900
     21 O           3.1390   -2.0960    3.3360 os        1 LSE     -0.449600
     22 C4          4.9080   -0.8050    4.4650 c3        1 LSE      0.090100
     23 O7          6.0640   -0.0310    4.2070 oh        1 LSE     -0.620800
     24 C3          5.3900   -2.0950    5.1470 c3        1 LSE      0.111100
     25 O8          5.8760   -1.8200    6.4500 oh        1 LSE     -0.606800
     26 C2          4.2210   -3.0820    5.3160 c3        1 LSE      0.123100
     27 O9          3.2520   -2.5930    6.2250 oh        1 LSE     -0.590800
     28 C1          3.5440   -3.3140    3.9600 c3        1 LSE      0.114100
     29 C           2.2530   -4.1310    4.1010 c3        1 LSE      0.143400
     30 O10         1.6890   -4.3970    2.8370 oh        1 LSE     -0.601800
     31 H1         -0.8430    0.6240   -0.6860 ho        1 LSE      0.416000
     32 H2          1.0090   -0.6320   -0.5720 h1        1 LSE      0.079700
     33 H3          1.1410    0.8860    2.1490 h1        1 LSE      0.067700
     34 H4          1.2260   -1.2780    2.8210 ho        1 LSE      0.427000
     35 H5          1.3510    2.4630   -0.1830 h2        1 LSE      0.053700
     36 H6          1.3740    3.4620   -2.3110 h1        1 LSE      0.035700
     37 H7          2.9220    2.5650   -2.7110 h1        1 LSE      0.035700
     38 H8          0.2020    2.2770   -4.1810 hc        1 LSE      0.068200
     39 H9          1.6700    1.3230   -4.5400 hc        1 LSE      0.068200
     40 H10         4.1830    3.8930   -4.2770 hc        1 LSE      0.049144
     41 H11         4.1720    2.6960   -5.6130 hc        1 LSE      0.049144
     42 H12         4.1560    4.4520   -5.9820 hc        1 LSE      0.049144
     43 H13         1.6690    4.1340   -7.6740 hc        1 LSE      0.049144
     44 H14         1.6380    2.3710   -7.3430 hc        1 LSE      0.049144
     45 H15         0.1930    3.3750   -6.9900 hc        1 LSE      0.049144
     46 H16         1.6420    5.4920   -3.6270 hc        1 LSE      0.049144
     47 H17         1.6890    6.1200   -5.3080 hc        1 LSE      0.049144
     48 H18         0.2030    5.3290   -4.6870 hc        1 LSE      0.049144
     49 H19         3.2830    2.1590    1.2970 h1        1 LSE      0.071700
     50 H20         5.3840    1.4350   -0.4830 h1        1 LSE      0.076700
     51 H21         5.4690    0.1470    0.7810 h1        1 LSE      0.076700
     52 H22         7.9880    1.4190    1.2720 h1        1 LSE      0.067367
     53 H23         7.5540    2.7330    0.1070 h1        1 LSE      0.067367
     54 H24         7.9820    3.1480    1.8210 h1        1 LSE      0.067367
     55 H25         3.3180   -0.9410    0.8650 h1        1 LSE      0.081700
     56 H26         4.9050   -1.5140    2.3610 h2        1 LSE      0.052700
     57 H27         4.2040   -0.2490    5.1450 h1        1 LSE      0.085700
     58 H28         5.7860    0.7430    3.6850 ho        1 LSE      0.441000
     59 H29         6.2070   -2.5660    4.5330 h1        1 LSE      0.057700
     60 H30         6.5070   -1.0930    6.3630 ho        1 LSE      0.431000
     61 H31         4.6260   -4.0610    5.7020 h1        1 LSE      0.058700
     62 H32         3.7320   -2.3040    7.0140 ho        1 LSE      0.426000
     63 H33         4.2710   -3.8410    3.2800 h1        1 LSE      0.054700
     64 H34         2.4900   -5.1340    4.5420 h1        1 LSE      0.066200
     65 H35         1.5300   -3.5780    4.7580 h1        1 LSE      0.066200
     66 H36         1.4420   -3.5470    2.4450 ho        1 LSE      0.423000
@<TRIPOS>BOND
     1    1    2 1   
     2    1   31 1   
     3    2    3 1   
     4    2    5 1   
     5    2   32 1   
     6    3    4 1   
     7    3   18 1   
     8    3   33 1   
     9    4   34 1   
    10    5    6 1   
    11    5   13 1   
    12    5   35 1   
    13    6    7 1   
    14    7    8 1   
    15    7   36 1   
    16    7   37 1   
    17    8    9 1   
    18    8   38 1   
    19    8   39 1   
    20    9   10 1   
    21    9   11 1   
    22    9   12 1   
    23   10   40 1   
    24   10   41 1   
    25   10   42 1   
    26   11   43 1   
    27   11   44 1   
    28   11   45 1   
    29   12   46 1   
    30   12   47 1   
    31   12   48 1   
    32   13   14 1   
    33   14   15 1   
    34   14   18 1   
    35   14   49 1   
    36   15   16 1   
    37   15   50 1   
    38   15   51 1   
    39   16   17 1   
    40   17   52 1   
    41   17   53 1   
    42   17   54 1   
    43   18   19 1   
    44   18   55 1   
    45   19   20 1   
    46   20   21 1   
    47   20   22 1   
    48   20   56 1   
    49   21   28 1   
    50   22   23 1   
    51   22   24 1   
    52   22   57 1   
    53   23   58 1   
    54   24   25 1   
    55   24   26 1   
    56   24   59 1   
    57   25   60 1   
    58   26   27 1   
    59   26   28 1   
    60   26   61 1   
    61   27   62 1   
    62   28   29 1   
    63   28   63 1   
    64   29   30 1   
    65   29   64 1   
    66   29   65 1   
    67   30   66 1   
@<TRIPOS>SUBSTRUCTURE
     1 LSE         1 TEMP              0 ****  ****    0 ROOT
