@<TRIPOS>MOLECULE
LSG
   42    43     1     0     0
SMALL
bcc


@<TRIPOS>ATOM
      1 C1          2.2890   -1.3760    1.4010 ca        1 LSG     -0.107000
      2 C2          2.8310   -0.8580    0.2280 ca        1 LSG      0.017900
      3 C3          2.0510   -0.0510   -0.5970 ca        1 LSG     -0.082000
      4 C4          0.7370    0.2540   -0.2570 ca        1 LSG     -0.166000
      5 C5          0.1640   -0.2280    0.9370 ca        1 LSG      0.121600
      6 C6          0.9680   -1.0740    1.7640 ca        1 LSG      0.094900
      7 F7          0.4620   -1.6040    2.9040 f         1 LSG     -0.128900
      8 I8          4.7380   -1.2880   -0.2760 i         1 LSG     -0.124900
      9 N9         -1.1370    0.1000    1.3630 nh        1 LSG     -0.603000
     10 C10        -1.9090    1.0470    0.6850 cc        1 LSG      0.190300
     11 N11        -1.5810    2.3990    0.5610 na        1 LSG     -0.017100
     12 C12        -2.6450    3.0540   -0.0910 cc        1 LSG     -0.218900
     13 C13        -3.6620    2.1160   -0.3450 cd        1 LSG     -0.086000
     14 C14        -3.2210    0.8500    0.1350 cd        1 LSG     -0.281600
     15 C15        -3.9180   -0.4280    0.1150 c         1 LSG      0.667700
     16 O16        -3.4560   -1.4530    0.6570 o         1 LSG     -0.606100
     17 N17        -5.1220   -0.4900   -0.6560 n         1 LSG     -0.353400
     18 O18        -5.9300   -1.5100   -0.3340 os        1 LSG     -0.267900
     19 C19        -5.9970   -2.5760   -1.3140 c3        1 LSG      0.090400
     20 C20        -4.7540   -3.4520   -1.2810 c3        1 LSG      0.112400
     21 O21        -4.6090   -4.0920   -0.0330 oh        1 LSG     -0.604800
     22 C22        -0.3670    3.0030    1.0220 c3        1 LSG     -0.001400
     23 C23        -2.6700    4.4730   -0.4560 c         1 LSG      0.606700
     24 O24        -1.7070    5.2350   -0.2950 o         1 LSG     -0.547100
     25 C25        -3.9570    4.9490   -1.0530 c3        1 LSG     -0.193100
     26 H1          2.8780   -2.0300    2.0640 ha        1 LSG      0.165000
     27 H3          2.4630    0.3500   -1.5380 ha        1 LSG      0.152000
     28 H4          0.1370    0.8660   -0.9490 ha        1 LSG      0.151000
     29 HN9        -1.6780   -0.6910    1.6790 hn        1 LSG      0.473800
     30 H13        -4.6100    2.3340   -0.8340 ha        1 LSG      0.158000
     31 HN17       -5.6590    0.3680   -0.5960 hn        1 LSG      0.288500
     32 H19        -6.8970   -3.1430   -0.9500 h1        1 LSG      0.067200
     33 H19A       -6.1740   -2.1680   -2.3400 h1        1 LSG      0.067200
     34 H20        -4.8590   -4.2850   -2.0270 h1        1 LSG      0.052200
     35 H20A       -3.8400   -2.8430   -1.5160 h1        1 LSG      0.052200
     36 HO21       -4.4360   -3.3990    0.6210 ho        1 LSG      0.427000
     37 H22         0.4580    2.8170    0.2810 h1        1 LSG      0.075700
     38 H22A       -0.5120    4.1110    1.1390 h1        1 LSG      0.075700
     39 H22B       -0.0760    2.5590    2.0130 h1        1 LSG      0.075700
     40 H25        -4.8010    4.7560   -0.3470 hc        1 LSG      0.068700
     41 H25A       -3.9010    6.0450   -1.2620 hc        1 LSG      0.068700
     42 H25B       -4.1550    4.4070   -2.0100 hc        1 LSG      0.068700
@<TRIPOS>BOND
     1    1    2 ar  
     2    1    6 ar  
     3    1   26 1   
     4    2    3 ar  
     5    2    8 1   
     6    3    4 ar  
     7    3   27 1   
     8    4    5 ar  
     9    4   28 1   
    10    5    6 ar  
    11    5    9 1   
    12    6    7 1   
    13    9   10 1   
    14    9   29 1   
    15   10   11 1   
    16   10   14 2   
    17   11   12 1   
    18   11   22 1   
    19   12   13 2   
    20   12   23 1   
    21   13   14 1   
    22   13   30 1   
    23   14   15 1   
    24   15   16 2   
    25   15   17 1   
    26   17   18 1   
    27   17   31 1   
    28   18   19 1   
    29   19   20 1   
    30   19   32 1   
    31   19   33 1   
    32   20   21 1   
    33   20   34 1   
    34   20   35 1   
    35   21   36 1   
    36   22   37 1   
    37   22   38 1   
    38   22   39 1   
    39   23   24 2   
    40   23   25 1   
    41   25   40 1   
    42   25   41 1   
    43   25   42 1   
@<TRIPOS>SUBSTRUCTURE
     1 LSG         1 TEMP              0 ****  ****    0 ROOT
