@<TRIPOS>MOLECULE
LSG
   44    45     1     0     0
SMALL
bcc


@<TRIPOS>ATOM
      1 C1          0.6880   -1.0840    0.1930 ca        1 LSG     -0.101000
      2 C2          1.5400   -0.0210   -0.1040 ca        1 LSG      0.092900
      3 C3          1.5950    1.0900    0.7470 ca        1 LSG     -0.086000
      4 C4          0.8060    1.1550    1.8890 ca        1 LSG     -0.072000
      5 C5         -0.0600    0.0930    2.2000 ca        1 LSG     -0.125400
      6 C6         -0.1150   -1.0430    1.3450 ca        1 LSG      0.154900
      7 F7         -0.9390   -2.0720    1.6440 f         1 LSG     -0.113900
      8 I8          2.6870   -0.0860   -1.7620 i         1 LSG      0.000100
      9 N9         -0.9590    0.1750    3.3600 n4        1 LSG     -0.481800
     10 C10        -0.2860    0.2990    4.6460 cc        1 LSG     -0.005700
     11 N11         0.6470   -0.5850    5.1650 na        1 LSG      0.068900
     12 C12         1.0550   -0.1070    6.4200 cc        1 LSG     -0.137900
     13 C13         0.3680    1.0900    6.7020 cd        1 LSG     -0.072000
     14 C14        -0.4910    1.3630    5.5980 cd        1 LSG     -0.238600
     15 C15        -1.4020    2.4520    5.4070 c         1 LSG      0.622700
     16 O16        -2.0980    2.6850    4.4200 o         1 LSG     -0.471100
     17 N17        -1.6020    3.4400    6.5510 n4        1 LSG     -0.441300
     18 O18        -0.4080    4.0490    6.8150 os        1 LSG     -0.223100
     19 C19        -0.4300    5.1580    7.7620 c3        1 LSG      0.092400
     20 C20        -1.2710    6.3270    7.2770 c3        1 LSG      0.088400
     21 O21        -2.6230    5.8950    7.3080 oh        1 LSG     -0.668800
     22 C22         1.1230   -1.8150    4.5830 c3        1 LSG     -0.026400
     23 C23         2.0640   -0.7980    7.2750 c         1 LSG      0.598700
     24 O24         2.5940   -1.8400    6.8910 o         1 LSG     -0.470100
     25 C25         2.3520   -0.1320    8.5740 c3        1 LSG     -0.194100
     26 H1          0.6210   -1.9730   -0.4640 ha        1 LSG      0.209000
     27 H3          2.2690    1.9360    0.5140 ha        1 LSG      0.193000
     28 H4          0.8650    2.0450    2.5380 ha        1 LSG      0.161000
     29 HN9        -1.5600   -0.6700    3.3750 hn        1 LSG      0.491300
     30 H13         0.4960    1.6990    7.5990 ha        1 LSG      0.195000
     31 HN17       -2.3190    4.1530    6.2640 hn        1 LSG      0.488800
     32 H19        -0.7680    4.7860    8.7640 h1        1 LSG      0.120700
     33 H19A        0.6680    5.4210    7.7720 h1        1 LSG      0.120700
     34 H20        -0.9990    6.6120    6.2240 h1        1 LSG      0.088200
     35 H20A       -1.1040    7.2040    7.9590 h1        1 LSG      0.088200
     36 HO21       -3.1930    6.6750    7.3540 ho        1 LSG      0.469000
     37 H22         0.9340   -2.6590    5.3080 h1        1 LSG      0.109367
     38 H22A        2.2380   -1.7380    4.4280 h1        1 LSG      0.109367
     39 H22B        0.6130   -2.0270    3.6080 h1        1 LSG      0.109367
     40 H25         2.7500    0.8990    8.4010 hc        1 LSG      0.091700
     41 H25A        3.1190   -0.7220    9.1410 hc        1 LSG      0.091700
     42 H25B        1.4220   -0.0700    9.1920 hc        1 LSG      0.091700
     43 H92        -1.5630    1.0110    3.2350 hn        1 LSG      0.491300
     44 H172       -1.9380    2.9440    7.3940 hn        1 LSG      0.488800
@<TRIPOS>BOND
     1    1    2 ar  
     2    1    6 ar  
     3    1   26 1   
     4    2    3 ar  
     5    2    8 1   
     6    3    4 ar  
     7    3   27 1   
     8    4    5 ar  
     9    4   28 1   
    10    5    6 ar  
    11    5    9 1   
    12    6    7 1   
    13    9   10 1   
    14    9   29 1   
    15    9   43 1   
    16   10   11 1   
    17   10   14 2   
    18   11   12 1   
    19   11   22 1   
    20   12   13 2   
    21   12   23 1   
    22   13   14 1   
    23   13   30 1   
    24   14   15 1   
    25   15   16 2   
    26   15   17 1   
    27   17   18 1   
    28   17   31 1   
    29   17   44 1   
    30   18   19 1   
    31   19   20 1   
    32   19   32 1   
    33   19   33 1   
    34   20   21 1   
    35   20   34 1   
    36   20   35 1   
    37   21   36 1   
    38   22   37 1   
    39   22   38 1   
    40   22   39 1   
    41   23   24 2   
    42   23   25 1   
    43   25   40 1   
    44   25   41 1   
    45   25   42 1   
@<TRIPOS>SUBSTRUCTURE
     1 LSG         1 TEMP              0 ****  ****    0 ROOT
