@<TRIPOS>MOLECULE
LSG
   43    44     1     0     0
SMALL
bcc


@<TRIPOS>ATOM
      1 C1         -0.1150   -1.3460    0.1750 ca        1 LSG     -0.117000
      2 C2          1.2210   -1.2810   -0.2100 ca        1 LSG      0.054900
      3 C3          2.1190   -0.4950    0.5140 ca        1 LSG     -0.099000
      4 C4          1.6950    0.2280    1.6250 ca        1 LSG     -0.108000
      5 C5          0.3520    0.1730    2.0450 ca        1 LSG      0.055600
      6 C6         -0.5610   -0.6270    1.2980 ca        1 LSG      0.120900
      7 F7         -1.8650   -0.6910    1.6530 f         1 LSG     -0.124900
      8 I8          1.8550   -2.3200   -1.8200 i         1 LSG     -0.076900
      9 N9         -0.1100    0.9630    3.1220 nu        1 LSG     -0.612000
     10 C10         0.2300    0.8180    4.4340 cc        1 LSG      0.315300
     11 N11         1.0660   -0.1320    5.0140 na        1 LSG     -0.055100
     12 C12         1.1900    0.1640    6.4010 cc        1 LSG     -0.160900
     13 C13         0.4050    1.2680    6.7070 cd        1 LSG     -0.083000
     14 C14        -0.2320    1.7140    5.4950 cd        1 LSG     -0.360600
     15 C15        -1.1100    2.7840    5.2740 c         1 LSG      0.629700
     16 O16        -1.6470    3.2160    4.2540 o         1 LSG     -0.508100
     17 N17        -1.5710    3.5620    6.5380 ny        1 LSG     -0.457300
     18 O18        -0.5260    4.3120    6.9880 os        1 LSG     -0.208100
     19 C19        -0.8060    5.2540    8.0560 c3        1 LSG      0.089400
     20 C20        -1.7830    6.3380    7.6300 c3        1 LSG      0.087400
     21 O21        -3.0580    5.7190    7.5280 oh        1 LSG     -0.652800
     22 C22         1.6800   -1.2390    4.3410 c3        1 LSG     -0.003400
     23 C23         2.0510   -0.5790    7.3430 c         1 LSG      0.600700
     24 O24         2.8440   -1.4500    6.9760 o         1 LSG     -0.507100
     25 C25         1.8980   -0.1850    8.7770 c3        1 LSG     -0.194100
     26 H1         -0.8460   -1.9540   -0.3850 ha        1 LSG      0.180000
     27 H3          3.1770   -0.4300    0.2070 ha        1 LSG      0.168000
     28 H4          2.4190    0.8570    2.1690 ha        1 LSG      0.157000
     29 HN9        -0.8850    1.5700    2.9240 hn        1 LSG      0.488800
     30 H13         0.3090    1.7360    7.6860 ha        1 LSG      0.161000
     31 HN17       -1.8690    2.9020    7.2710 hn        1 LSG      0.461800
     32 H19         0.2220    5.6820    8.2260 h1        1 LSG      0.107200
     33 H19A       -1.1690    4.7030    8.9620 h1        1 LSG      0.107200
     34 H20        -1.4950    6.7690    6.6330 h1        1 LSG      0.074700
     35 H20A       -1.7920    7.1500    8.4050 h1        1 LSG      0.074700
     36 HO21       -3.7250    6.4160    7.4890 ho        1 LSG      0.451000
     37 H22         2.6020   -0.8920    3.7960 h1        1 LSG      0.084367
     38 H22A        0.9580   -1.6860    3.6050 h1        1 LSG      0.084367
     39 H22B        1.9730   -2.0250    5.0890 h1        1 LSG      0.084367
     40 H25         2.2280    0.8730    8.9180 hc        1 LSG      0.075700
     41 H25A        2.5290   -0.8470    9.4220 hc        1 LSG      0.075700
     42 H25B        0.8310   -0.2820    9.0930 hc        1 LSG      0.075700
     43 H172       -2.3710    4.1760    6.2770 hn        1 LSG      0.461800
@<TRIPOS>BOND
     1    1    2 ar  
     2    1    6 ar  
     3    1   26 1   
     4    2    3 ar  
     5    2    8 1   
     6    3    4 ar  
     7    3   27 1   
     8    4    5 ar  
     9    4   28 1   
    10    5    6 ar  
    11    5    9 1   
    12    6    7 1   
    13    9   10 1   
    14    9   29 1   
    15   10   11 1   
    16   10   14 2   
    17   11   12 1   
    18   11   22 1   
    19   12   13 2   
    20   12   23 1   
    21   13   14 1   
    22   13   30 1   
    23   14   15 1   
    24   15   16 2   
    25   15   17 1   
    26   17   18 1   
    27   17   31 1   
    28   17   43 1   
    29   18   19 1   
    30   19   20 1   
    31   19   32 1   
    32   19   33 1   
    33   20   21 1   
    34   20   34 1   
    35   20   35 1   
    36   21   36 1   
    37   22   37 1   
    38   22   38 1   
    39   22   39 1   
    40   23   24 2   
    41   23   25 1   
    42   25   40 1   
    43   25   41 1   
    44   25   42 1   
@<TRIPOS>SUBSTRUCTURE
     1 LSG         1 TEMP              0 ****  ****    0 ROOT
