@<TRIPOS>MOLECULE
LSG
   43    44     1     0     0
SMALL
bcc


@<TRIPOS>ATOM
      1 C1         -0.1490   -1.3260    0.1650 ca        1 LSG     -0.117000
      2 C2          1.1840   -1.2570   -0.2280 ca        1 LSG      0.054900
      3 C3          2.0850   -0.4730    0.4950 ca        1 LSG     -0.099000
      4 C4          1.6680    0.2430    1.6120 ca        1 LSG     -0.108000
      5 C5          0.3270    0.1830    2.0410 ca        1 LSG      0.055600
      6 C6         -0.5890   -0.6140    1.2950 ca        1 LSG      0.120900
      7 F7         -1.8910   -0.6810    1.6580 f         1 LSG     -0.124900
      8 I8          1.8090   -2.2870   -1.8470 i         1 LSG     -0.076900
      9 N9         -0.1290    0.9670    3.1250 nh        1 LSG     -0.612000
     10 C10         0.2240    0.8180    4.4330 cc        1 LSG      0.315300
     11 N11         1.0670   -0.1310    5.0020 na        1 LSG     -0.055100
     12 C12         1.2040    0.1610    6.3890 cc        1 LSG     -0.160900
     13 C13         0.4190    1.2630    6.7060 cd        1 LSG     -0.083000
     14 C14        -0.2300    1.7100    5.5010 cd        1 LSG     -0.360600
     15 C15        -1.1120    2.7790    5.2910 c         1 LSG      0.629700
     16 O16        -1.6600    3.2120    4.2780 o         1 LSG     -0.508100
     17 N17        -1.5630    3.5530    6.5620 n4        1 LSG     -0.457300
     18 O18        -0.5150    4.3030    7.0040 os        1 LSG     -0.208100
     19 C19        -0.7870    5.2410    8.0780 c3        1 LSG      0.089400
     20 C20        -1.7710    6.3240    7.6650 c3        1 LSG      0.087400
     21 O21        -3.0450    5.7030    7.5720 oh        1 LSG     -0.652800
     22 C22         1.6770   -1.2350    4.3200 c3        1 LSG     -0.003400
     23 C23         2.0750   -0.5830    7.3200 c         1 LSG      0.600700
     24 O24         2.8650   -1.4530    6.9430 o         1 LSG     -0.507100
     25 C25         1.9360   -0.1940    8.7570 c3        1 LSG     -0.194100
     26 H1         -0.8830   -1.9320   -0.3930 ha        1 LSG      0.180000
     27 H3          3.1420   -0.4050    0.1820 ha        1 LSG      0.168000
     28 H4          2.3940    0.8700    2.1550 ha        1 LSG      0.157000
     29 HN9        -0.9070    1.5720    2.9350 hn        1 LSG      0.488800
     30 H13         0.3310    1.7270    7.6870 ha        1 LSG      0.161000
     31 HN17       -2.3670    4.1650    6.3100 hn        1 LSG      0.461800
     32 H19         0.2420    5.6710    8.2390 h1        1 LSG      0.107200
     33 H19A       -1.1410    4.6870    8.9860 h1        1 LSG      0.107200
     34 H20        -1.4930    6.7590    6.6660 h1        1 LSG      0.074700
     35 H20A       -1.7740    7.1350    8.4410 h1        1 LSG      0.074700
     36 HO21       -3.7130    6.3990    7.5420 ho        1 LSG      0.451000
     37 H22         2.5940   -0.8860    3.7700 h1        1 LSG      0.084367
     38 H22A        0.9500   -1.6800    3.5880 h1        1 LSG      0.084367
     39 H22B        1.9760   -2.0250    5.0640 h1        1 LSG      0.084367
     40 H25         2.2660    0.8650    8.8970 hc        1 LSG      0.075700
     41 H25A        2.5740   -0.8560    9.3940 hc        1 LSG      0.075700
     42 H25B        0.8730   -0.2920    9.0840 hc        1 LSG      0.075700
     43 H172       -1.8530    2.8900    7.2950 hn        1 LSG      0.461800
@<TRIPOS>BOND
     1    1    2 ar  
     2    1    6 ar  
     3    1   26 1   
     4    2    3 ar  
     5    2    8 1   
     6    3    4 ar  
     7    3   27 1   
     8    4    5 ar  
     9    4   28 1   
    10    5    6 ar  
    11    5    9 1   
    12    6    7 1   
    13    9   10 1   
    14    9   29 1   
    15   10   11 1   
    16   10   14 2   
    17   11   12 1   
    18   11   22 1   
    19   12   13 2   
    20   12   23 1   
    21   13   14 1   
    22   13   30 1   
    23   14   15 1   
    24   15   16 2   
    25   15   17 1   
    26   17   18 1   
    27   17   31 1   
    28   17   43 1   
    29   18   19 1   
    30   19   20 1   
    31   19   32 1   
    32   19   33 1   
    33   20   21 1   
    34   20   34 1   
    35   20   35 1   
    36   21   36 1   
    37   22   37 1   
    38   22   38 1   
    39   22   39 1   
    40   23   24 2   
    41   23   25 1   
    42   25   40 1   
    43   25   41 1   
    44   25   42 1   
@<TRIPOS>SUBSTRUCTURE
     1 LSG         1 TEMP              0 ****  ****    0 ROOT
