@<TRIPOS>MOLECULE
LSJ
   56    59     1     0     0
SMALL
bcc


@<TRIPOS>ATOM
      1 C1          0.0900   -0.2950   -0.2090 c3        1 LSJ      0.179700
      2 O2          1.4680   -0.0560    0.0660 os        1 LSJ     -0.335900
      3 C3          1.8240   -0.0310    1.4080 ca        1 LSJ      0.100100
      4 C4          1.9250   -1.2470    2.1130 ca        1 LSJ     -0.064800
      5 C5          2.4140   -1.2320    3.4200 ca        1 LSJ     -0.102000
      6 C6          2.7950   -0.0250    4.0090 ca        1 LSJ     -0.140000
      7 C7          2.6920    1.1720    3.3000 ca        1 LSJ     -0.119000
      8 C8          2.2030    1.1800    1.9940 ca        1 LSJ     -0.136000
      9 C9          1.4660   -2.4590    1.4210 ce        1 LSJ      0.014600
     10 C10         2.3130   -3.3980    0.9530 cf        1 LSJ     -0.024400
     11 C11         1.8930   -4.5210    0.1020 ca        1 LSJ     -0.020800
     12 C12         1.9090   -4.3700   -1.2910 ca        1 LSJ     -0.135000
     13 C13         1.5520   -5.4410   -2.1060 ca        1 LSJ     -0.103000
     14 C14         1.1850   -6.6670   -1.5610 ca        1 LSJ     -0.181000
     15 C15         1.1800   -6.8380   -0.1600 ca        1 LSJ      0.148600
     16 C16         1.5340   -5.7470    0.6640 ca        1 LSJ     -0.146000
     17 N17         0.8240   -8.0660    0.4260 nu        1 LSJ     -0.783500
     18 S18         0.9510   -9.5540   -0.2150 s6        1 LSJ      1.469900
     19 O19         0.4360  -10.4620    0.7350 o         1 LSJ     -0.652300
     20 O20         0.4160   -9.6260   -1.5130 o         1 LSJ     -0.652300
     21 C21         2.6300   -9.7920   -0.3310 c3        1 LSJ     -0.370300
     22 C22         3.7880   -3.3400    1.2010 c3        1 LSJ     -0.046200
     23 C23         4.2230   -4.3320    2.2520 c3        1 LSJ     -0.088100
     24 C24         0.0130   -2.4540    1.2040 ca        1 LSJ     -0.051800
     25 C25        -0.6000   -1.4590    0.4320 ca        1 LSJ     -0.069300
     26 C26        -1.9900   -1.4980    0.2190 ca        1 LSJ     -0.165000
     27 C27        -2.7730   -2.4900    0.7920 ca        1 LSJ     -0.088000
     28 C28        -2.1920   -3.4510    1.6180 ca        1 LSJ     -0.203000
     29 C29        -0.8110   -3.4220    1.8340 ca        1 LSJ      0.142100
     30 O30        -0.1610   -4.3140    2.6690 os        1 LSJ     -0.326900
     31 C31        -0.9950   -5.1460    3.4680 c3        1 LSJ      0.110700
     32 H1         -0.4800    0.6420    0.0530 h1        1 LSJ      0.062200
     33 H1A         0.0930   -0.4330   -1.3290 h1        1 LSJ      0.062200
     34 H5          2.4980   -2.1750    3.9810 ha        1 LSJ      0.141000
     35 H6          3.1780   -0.0190    5.0400 ha        1 LSJ      0.133000
     36 H7          2.9960    2.1180    3.7720 ha        1 LSJ      0.134000
     37 H8          2.1270    2.1150    1.4210 ha        1 LSJ      0.146000
     38 H12         2.1980   -3.4060   -1.7340 ha        1 LSJ      0.144000
     39 H13         1.5520   -5.3180   -3.2010 ha        1 LSJ      0.138000
     40 H14         0.8840   -7.4890   -2.2340 ha        1 LSJ      0.164000
     41 H16         1.5020   -5.8370    1.7630 ha        1 LSJ      0.147000
     42 HN17        0.4970   -7.9660    1.3630 hn        1 LSJ      0.456800
     43 H21         3.1300   -9.8930    0.6630 h1        1 LSJ      0.118033
     44 H21A        2.8510  -10.7380   -0.8900 h1        1 LSJ      0.118033
     45 H21B        3.1660   -8.9790   -0.8790 h1        1 LSJ      0.118033
     46 H22         4.3220   -3.5560    0.2360 hc        1 LSJ      0.056200
     47 H22A        4.0840   -2.3040    1.5220 hc        1 LSJ      0.056200
     48 H23         3.7740   -4.0770    3.2430 hc        1 LSJ      0.035033
     49 H23A        5.3350   -4.3180    2.3530 hc        1 LSJ      0.035033
     50 H23B        3.9010   -5.3660    1.9760 hc        1 LSJ      0.035033
     51 H26        -2.4610   -0.7260   -0.4080 ha        1 LSJ      0.134000
     52 H27        -3.8570   -2.5150    0.6070 ha        1 LSJ      0.136000
     53 H28        -2.8240   -4.2180    2.0870 ha        1 LSJ      0.140000
     54 H31        -1.5510   -5.8740    2.8290 h1        1 LSJ      0.045033
     55 H31A       -0.2680   -5.6800    4.1310 h1        1 LSJ      0.045033
     56 H31B       -1.7050   -4.5350    4.0760 h1        1 LSJ      0.045033
@<TRIPOS>BOND
     1    1    2 1   
     2    1   25 1   
     3    1   32 1   
     4    1   33 1   
     5    2    3 1   
     6    3    4 ar  
     7    3    8 ar  
     8    4    5 ar  
     9    4    9 1   
    10    5    6 ar  
    11    5   34 1   
    12    6    7 ar  
    13    6   35 1   
    14    7    8 ar  
    15    7   36 1   
    16    8   37 1   
    17    9   10 2   
    18    9   24 1   
    19   10   11 1   
    20   10   22 1   
    21   11   12 ar  
    22   11   16 ar  
    23   12   13 ar  
    24   12   38 1   
    25   13   14 ar  
    26   13   39 1   
    27   14   15 ar  
    28   14   40 1   
    29   15   16 ar  
    30   15   17 1   
    31   16   41 1   
    32   17   18 1   
    33   17   42 1   
    34   18   19 2   
    35   18   20 2   
    36   18   21 1   
    37   21   43 1   
    38   21   44 1   
    39   21   45 1   
    40   22   23 1   
    41   22   46 1   
    42   22   47 1   
    43   23   48 1   
    44   23   49 1   
    45   23   50 1   
    46   24   25 ar  
    47   24   29 ar  
    48   25   26 ar  
    49   26   27 ar  
    50   26   51 1   
    51   27   28 ar  
    52   27   52 1   
    53   28   29 ar  
    54   28   53 1   
    55   29   30 1   
    56   30   31 1   
    57   31   54 1   
    58   31   55 1   
    59   31   56 1   
@<TRIPOS>SUBSTRUCTURE
     1 LSJ         1 TEMP              0 ****  ****    0 ROOT
