@<TRIPOS>MOLECULE
LSJ
   57    60     1     0     0
SMALL
bcc


@<TRIPOS>ATOM
      1 C1          0.0520   -0.3870   -0.1020 c3        1 LSJ      0.172700
      2 O2          1.4480   -0.2490    0.1490 os        1 LSJ     -0.333900
      3 C3          1.8170   -0.2890    1.4880 ca        1 LSJ      0.101100
      4 C4          1.8770   -1.5410    2.1340 ca        1 LSJ     -0.094800
      5 C5          2.3650   -1.6100    3.4390 ca        1 LSJ     -0.106000
      6 C6          2.7880   -0.4460    4.0840 ca        1 LSJ     -0.131000
      7 C7          2.7310    0.7860    3.4330 ca        1 LSJ     -0.104000
      8 C8          2.2430    0.8770    2.1290 ca        1 LSJ     -0.125000
      9 C9          1.3810   -2.6940    1.3710 ce        1 LSJ      0.060600
     10 C10         2.2110   -3.6110    0.8300 cf        1 LSJ     -0.075400
     11 C11         1.7600   -4.6530   -0.1030 ca        1 LSJ      0.001200
     12 C12         1.8930   -4.4550   -1.4860 ca        1 LSJ     -0.067000
     13 C13         1.4870   -5.4440   -2.3810 ca        1 LSJ     -0.107000
     14 C14         0.9460   -6.6410   -1.9220 ca        1 LSJ     -0.119000
     15 C15         0.8300   -6.8500   -0.5350 ca        1 LSJ     -0.075400
     16 C16         1.2280   -5.8540    0.3750 ca        1 LSJ     -0.103000
     17 N17         0.2520   -8.0850   -0.0290 n4        1 LSJ     -0.576300
     18 S18         1.4980   -9.4420    0.3670 s6        1 LSJ      1.406900
     19 O19         1.1930   -9.6890    1.6900 o         1 LSJ     -0.564300
     20 O20         1.2040  -10.3580   -0.6230 o         1 LSJ     -0.564300
     21 C21         2.9330   -8.6810    0.1570 c3        1 LSJ     -0.450300
     22 C22         3.6870   -3.6090    1.0680 c3        1 LSJ     -0.046200
     23 C23         4.1120   -4.7170    2.0010 c3        1 LSJ     -0.083100
     24 C24        -0.0720   -2.6460    1.1560 ca        1 LSJ     -0.060800
     25 C25        -0.6610   -1.5860    0.4440 ca        1 LSJ     -0.080300
     26 C26        -2.0500   -1.5850    0.2310 ca        1 LSJ     -0.132000
     27 C27        -2.8630   -2.5860    0.7490 ca        1 LSJ     -0.102000
     28 C28        -2.3030   -3.6030    1.5180 ca        1 LSJ     -0.149000
     29 C29        -0.9190   -3.6240    1.7190 ca        1 LSJ      0.094100
     30 O30        -0.3830   -4.6810    2.4540 os        1 LSJ     -0.386900
     31 C31        -0.4390   -4.4600    3.8670 c3        1 LSJ      0.116700
     32 H1         -0.4680    0.5370    0.2800 h1        1 LSJ      0.072200
     33 H1A         0.0130   -0.4030   -1.2290 h1        1 LSJ      0.072200
     34 H5          2.4160   -2.5800    3.9550 ha        1 LSJ      0.134000
     35 H6          3.1710   -0.5040    5.1140 ha        1 LSJ      0.144000
     36 H7          3.0700    1.6970    3.9510 ha        1 LSJ      0.148000
     37 H8          2.2000    1.8420    1.6030 ha        1 LSJ      0.157000
     38 H12         2.3100   -3.5040   -1.8610 ha        1 LSJ      0.176000
     39 H13         1.5820   -5.2740   -3.4670 ha        1 LSJ      0.169000
     40 H14         0.6070   -7.3990   -2.6480 ha        1 LSJ      0.155000
     41 H16         1.0970   -5.9780    1.4660 ha        1 LSJ      0.179000
     42 HN17       -0.2880   -7.8610    0.8150 hn        1 LSJ      0.466800
     43 H21         3.8020   -9.3070    0.5200 h1        1 LSJ      0.175700
     44 H21A        3.1940   -8.4410   -0.9130 h1        1 LSJ      0.175700
     45 H21B        3.0580   -7.7030    0.7060 h1        1 LSJ      0.175700
     46 H22         4.2140   -3.7200    0.0820 hc        1 LSJ      0.066700
     47 H22A        4.0030   -2.6200    1.5010 hc        1 LSJ      0.066700
     48 H23         5.2260   -4.7390    2.0850 hc        1 LSJ      0.032367
     49 H23A        3.6830   -4.5600    3.0210 hc        1 LSJ      0.032367
     50 H23B        3.7640   -5.7100    1.6230 hc        1 LSJ      0.032367
     51 H26        -2.5040   -0.7620   -0.3460 ha        1 LSJ      0.147000
     52 H27        -3.9490   -2.5640    0.5710 ha        1 LSJ      0.149000
     53 H28        -2.9330   -4.3790    1.9780 ha        1 LSJ      0.147000
     54 H31        -1.4930   -4.2800    4.1900 h1        1 LSJ      0.048033
     55 H31A        0.2090   -3.5920    4.1440 h1        1 LSJ      0.048033
     56 H31B       -0.0430   -5.4090    4.3040 h1        1 LSJ      0.048033
     57 H172       -0.4140   -8.4350   -0.7250 hn        1 LSJ      0.466800
@<TRIPOS>BOND
     1    1    2 1   
     2    1   25 1   
     3    1   32 1   
     4    1   33 1   
     5    2    3 1   
     6    3    4 ar  
     7    3    8 ar  
     8    4    5 ar  
     9    4    9 1   
    10    5    6 ar  
    11    5   34 1   
    12    6    7 ar  
    13    6   35 1   
    14    7    8 ar  
    15    7   36 1   
    16    8   37 1   
    17    9   10 2   
    18    9   24 1   
    19   10   11 1   
    20   10   22 1   
    21   11   12 ar  
    22   11   16 ar  
    23   12   13 ar  
    24   12   38 1   
    25   13   14 ar  
    26   13   39 1   
    27   14   15 ar  
    28   14   40 1   
    29   15   16 ar  
    30   15   17 1   
    31   16   41 1   
    32   17   18 1   
    33   17   42 1   
    34   17   57 1   
    35   18   19 2   
    36   18   20 2   
    37   18   21 1   
    38   21   43 1   
    39   21   44 1   
    40   21   45 1   
    41   22   23 1   
    42   22   46 1   
    43   22   47 1   
    44   23   48 1   
    45   23   49 1   
    46   23   50 1   
    47   24   25 ar  
    48   24   29 ar  
    49   25   26 ar  
    50   26   27 ar  
    51   26   51 1   
    52   27   28 ar  
    53   27   52 1   
    54   28   29 ar  
    55   28   53 1   
    56   29   30 1   
    57   30   31 1   
    58   31   54 1   
    59   31   55 1   
    60   31   56 1   
@<TRIPOS>SUBSTRUCTURE
     1 LSJ         1 TEMP              0 ****  ****    0 ROOT
