@<TRIPOS>MOLECULE
LSJ
   56    59     1     0     0
SMALL
bcc


@<TRIPOS>ATOM
      1 C1          0.0850   -0.2930   -0.1980 c3        1 LSJ      0.179700
      2 O2          1.4650   -0.0550    0.0710 os        1 LSJ     -0.335900
      3 C3          1.8270   -0.0320    1.4110 ca        1 LSJ      0.100100
      4 C4          1.9320   -1.2490    2.1140 ca        1 LSJ     -0.064800
      5 C5          2.4270   -1.2350    3.4190 ca        1 LSJ     -0.102000
      6 C6          2.8110   -0.0290    4.0070 ca        1 LSJ     -0.140000
      7 C7          2.7050    1.1690    3.3000 ca        1 LSJ     -0.119000
      8 C8          2.2100    1.1780    1.9960 ca        1 LSJ     -0.136000
      9 C9          1.4680   -2.4600    1.4230 ce        1 LSJ      0.014600
     10 C10         2.3130   -3.3980    0.9500 cf        1 LSJ     -0.024400
     11 C11         1.8890   -4.5200    0.0980 ca        1 LSJ     -0.020800
     12 C12         1.8980   -4.3670   -1.2950 ca        1 LSJ     -0.135000
     13 C13         1.5360   -5.4350   -2.1100 ca        1 LSJ     -0.103000
     14 C14         1.1710   -6.6630   -1.5650 ca        1 LSJ     -0.181000
     15 C15         1.1730   -6.8360   -0.1650 ca        1 LSJ      0.148600
     16 C16         1.5320   -5.7470    0.6600 ca        1 LSJ     -0.146000
     17 N17         0.8200   -8.0650    0.4210 nh        1 LSJ     -0.783500
     18 S18         0.9430   -9.5520   -0.2240 s6        1 LSJ      1.469900
     19 O19         0.4320  -10.4610    0.7270 o         1 LSJ     -0.652300
     20 O20         0.4010   -9.6200   -1.5190 o         1 LSJ     -0.652300
     21 C21         2.6200   -9.7910   -0.3500 c3        1 LSJ     -0.370300
     22 C22         3.7890   -3.3410    1.1900 c3        1 LSJ     -0.046200
     23 C23         4.2290   -4.3360    2.2380 c3        1 LSJ     -0.088100
     24 C24         0.0140   -2.4540    1.2130 ca        1 LSJ     -0.051800
     25 C25        -0.6020   -1.4570    0.4450 ca        1 LSJ     -0.069300
     26 C26        -1.9930   -1.4960    0.2390 ca        1 LSJ     -0.165000
     27 C27        -2.7730   -2.4880    0.8150 ca        1 LSJ     -0.088000
     28 C28        -2.1890   -3.4510    1.6370 ca        1 LSJ     -0.203000
     29 C29        -0.8070   -3.4220    1.8450 ca        1 LSJ      0.142100
     30 O30        -0.1530   -4.3160    2.6760 os        1 LSJ     -0.326900
     31 C31        -0.9830   -5.1500    3.4770 c3        1 LSJ      0.110700
     32 H1          0.0830   -0.4290   -1.3180 h1        1 LSJ      0.062200
     33 H1A        -0.4830    0.6440    0.0680 h1        1 LSJ      0.062200
     34 H5          2.5130   -2.1790    3.9780 ha        1 LSJ      0.141000
     35 H6          3.1990   -0.0250    5.0360 ha        1 LSJ      0.133000
     36 H7          3.0120    2.1140    3.7720 ha        1 LSJ      0.134000
     37 H8          2.1310    2.1140    1.4250 ha        1 LSJ      0.146000
     38 H12         2.1840   -3.4010   -1.7370 ha        1 LSJ      0.144000
     39 H13         1.5310   -5.3110   -3.2040 ha        1 LSJ      0.138000
     40 H14         0.8670   -7.4830   -2.2380 ha        1 LSJ      0.164000
     41 H16         1.5050   -5.8390    1.7580 ha        1 LSJ      0.147000
     42 HN17        0.4980   -7.9670    1.3600 hn        1 LSJ      0.456800
     43 H21         3.1260   -9.8930    0.6410 h1        1 LSJ      0.118033
     44 H21A        2.8380  -10.7350   -0.9120 h1        1 LSJ      0.118033
     45 H21B        3.1540   -8.9760   -0.8990 h1        1 LSJ      0.118033
     46 H22         4.0870   -2.3070    1.5120 hc        1 LSJ      0.056200
     47 H22A        4.3190   -3.5560    0.2230 hc        1 LSJ      0.056200
     48 H23         3.9050   -5.3690    1.9610 hc        1 LSJ      0.035033
     49 H23A        3.7830   -4.0820    3.2310 hc        1 LSJ      0.035033
     50 H23B        5.3410   -4.3220    2.3340 hc        1 LSJ      0.035033
     51 H26        -2.4660   -0.7220   -0.3840 ha        1 LSJ      0.134000
     52 H27        -3.8590   -2.5120    0.6360 ha        1 LSJ      0.136000
     53 H28        -2.8190   -4.2170    2.1080 ha        1 LSJ      0.140000
     54 H31        -1.5420   -5.8760    2.8380 h1        1 LSJ      0.045033
     55 H31A       -1.6900   -4.5410    4.0900 h1        1 LSJ      0.045033
     56 H31B       -0.2530   -5.6860    4.1350 h1        1 LSJ      0.045033
@<TRIPOS>BOND
     1    1    2 1   
     2    1   25 1   
     3    1   32 1   
     4    1   33 1   
     5    2    3 1   
     6    3    4 ar  
     7    3    8 ar  
     8    4    5 ar  
     9    4    9 1   
    10    5    6 ar  
    11    5   34 1   
    12    6    7 ar  
    13    6   35 1   
    14    7    8 ar  
    15    7   36 1   
    16    8   37 1   
    17    9   10 2   
    18    9   24 1   
    19   10   11 1   
    20   10   22 1   
    21   11   12 ar  
    22   11   16 ar  
    23   12   13 ar  
    24   12   38 1   
    25   13   14 ar  
    26   13   39 1   
    27   14   15 ar  
    28   14   40 1   
    29   15   16 ar  
    30   15   17 1   
    31   16   41 1   
    32   17   18 1   
    33   17   42 1   
    34   18   19 2   
    35   18   20 2   
    36   18   21 1   
    37   21   43 1   
    38   21   44 1   
    39   21   45 1   
    40   22   23 1   
    41   22   46 1   
    42   22   47 1   
    43   23   48 1   
    44   23   49 1   
    45   23   50 1   
    46   24   25 ar  
    47   24   29 ar  
    48   25   26 ar  
    49   26   27 ar  
    50   26   51 1   
    51   27   28 ar  
    52   27   52 1   
    53   28   29 ar  
    54   28   53 1   
    55   29   30 1   
    56   30   31 1   
    57   31   54 1   
    58   31   55 1   
    59   31   56 1   
@<TRIPOS>SUBSTRUCTURE
     1 LSJ         1 TEMP              0 ****  ****    0 ROOT
