@<TRIPOS>MOLECULE
LSM
   81    82     1     0     0
SMALL
bcc


@<TRIPOS>ATOM
      1 SE         -0.6440   -1.6690   -0.6580 ss        1 LSM     -0.285200
      2 C1         -1.8550   -0.8080    0.3090 c3        1 LSM     -0.004300
      3 C2         -3.1840   -0.9890   -0.3800 c3        1 LSM     -0.073400
      4 C3         -4.2890   -0.2960    0.3920 c3        1 LSM     -0.077400
      5 C4         -5.6250   -0.4720   -0.2960 c3        1 LSM     -0.079400
      6 C5         -6.7320    0.2180    0.4720 c3        1 LSM     -0.079400
      7 C6         -8.0690    0.0430   -0.2160 c3        1 LSM     -0.079400
      8 C7         -9.1760    0.7330    0.5520 c3        1 LSM     -0.079400
      9 C8        -10.5130    0.5580   -0.1350 c3        1 LSM     -0.079400
     10 C9        -11.6200    1.2480    0.6320 c3        1 LSM     -0.079400
     11 C1'         0.8630   -1.3240    0.2270 c3        1 LSM      0.184200
     12 C1B         6.0090   -0.3380   -0.0210 c3        1 LSM      0.298900
     13 O1B         4.7930   -0.0290    0.6470 os        1 LSM     -0.458600
     14 C2'         1.9240   -2.3330   -0.2180 c3        1 LSM      0.091100
     15 O2'         1.6760   -3.6200    0.3250 oh        1 LSM     -0.604800
     16 C2B         7.1540   -0.0720    0.9750 c3        1 LSM      0.094100
     17 O2B         6.9410   -0.7320    2.2050 oh        1 LSM     -0.592800
     18 C3'         3.3150   -1.9330    0.3130 c3        1 LSM      0.124100
     19 O3'         4.3040   -2.7370   -0.3050 oh        1 LSM     -0.603800
     20 C3B         7.3530    1.4320    1.2100 c3        1 LSM      0.074100
     21 O3B         8.5680    1.6820    1.8970 oh        1 LSM     -0.607800
     22 C4'         3.6180   -0.4660   -0.0370 c3        1 LSM      0.128100
     23 O4B         7.5190    3.5700    0.0600 oh        1 LSM     -0.595800
     24 C4B         7.4460    2.1700   -0.1360 c3        1 LSM      0.125100
     25 C5'         2.4680    0.4190    0.4740 c3        1 LSM      0.091100
     26 O5'         1.2380    0.0000   -0.1220 os        1 LSM     -0.404600
     27 C5B         6.1650    1.8770   -0.9320 c3        1 LSM      0.136100
     28 O5B         6.0670    0.4690   -1.1740 os        1 LSM     -0.425600
     29 C6'         2.6490    1.8860    0.0680 c3        1 LSM      0.138400
     30 O6'         1.4960    2.6400    0.3690 oh        1 LSM     -0.595800
     31 C6B         6.1840    2.5440   -2.3070 c3        1 LSM      0.136400
     32 O6B         4.8270    2.7240   -2.6850 oh        1 LSM     -0.603800
     33 H1         -1.8860   -1.2210    1.3460 h1        1 LSM      0.068200
     34 H1A        -1.5870    0.2750    0.3780 h1        1 LSM      0.068200
     35 H2         -3.1330   -0.5690   -1.4200 hc        1 LSM      0.056200
     36 H2A        -3.4200   -2.0830   -0.4720 hc        1 LSM      0.056200
     37 H3         -4.3420   -0.7160    1.4310 hc        1 LSM      0.043200
     38 H3A        -4.0540    0.7970    0.4870 hc        1 LSM      0.043200
     39 H4         -5.5710   -0.0530   -1.3360 hc        1 LSM      0.041700
     40 H4A        -5.8590   -1.5650   -0.3920 hc        1 LSM      0.041700
     41 H5         -6.7860   -0.2000    1.5120 hc        1 LSM      0.040200
     42 H5A        -6.4980    1.3110    0.5670 hc        1 LSM      0.040200
     43 H6         -8.0150    0.4620   -1.2550 hc        1 LSM      0.040200
     44 H6A        -8.3030   -1.0500   -0.3110 hc        1 LSM      0.040200
     45 H7         -9.2300    0.3150    1.5920 hc        1 LSM      0.039700
     46 H7A        -8.9420    1.8260    0.6480 hc        1 LSM      0.039700
     47 H8        -10.4590    0.9760   -1.1750 hc        1 LSM      0.039700
     48 H8A       -10.7470   -0.5350   -0.2310 hc        1 LSM      0.039700
     49 H9        -11.6740    0.8300    1.6720 hc        1 LSM      0.039700
     50 H9A       -11.3860    2.3410    0.7280 hc        1 LSM      0.039700
     51 H1'         0.6970   -1.3930    1.3350 h2        1 LSM      0.070700
     52 H1B         6.0240   -1.3990   -0.4040 h2        1 LSM      0.124700
     53 H2'         1.9530   -2.3880   -1.3430 h1        1 LSM      0.076700
     54 HO2'        0.7970   -3.8880    0.0220 ho        1 LSM      0.424000
     55 H2B         8.1020   -0.5240    0.5650 h1        1 LSM      0.099700
     56 HO2B        6.0470   -0.5140    2.5030 ho        1 LSM      0.420000
     57 H3'         3.3510   -2.0800    1.4290 h1        1 LSM      0.061700
     58 HO3'        4.0750   -3.6560   -0.1090 ho        1 LSM      0.425000
     59 H3B         6.4940    1.8410    1.8120 h1        1 LSM      0.062700
     60 HO3B        8.5880    1.0800    2.6530 ho        1 LSM      0.424000
     61 H4'         3.7500   -0.3510   -1.1480 h1        1 LSM      0.096700
     62 HO4B        8.2360    3.7200    0.6920 ho        1 LSM      0.425000
     63 H4B         8.3540    1.8180   -0.7000 h1        1 LSM      0.058700
     64 H5'         2.3890    0.3350    1.5930 h1        1 LSM      0.059700
     65 H5B         5.2640    2.2200   -0.3520 h1        1 LSM      0.082700
     66 H6'         3.4670    2.3370    0.6920 h1        1 LSM      0.069700
     67 H6'A        2.9080    1.9630   -1.0220 h1        1 LSM      0.069700
     68 HO6'        0.7760    2.2850   -0.1670 ho        1 LSM      0.411000
     69 H6B         6.6970    3.5400   -2.2230 h1        1 LSM      0.048700
     70 H6BA        6.7140    1.8950   -3.0520 h1        1 LSM      0.048700
     71 HO6B        4.8380    3.1030   -3.5710 ho        1 LSM      0.404000
     72 C10       -12.9570    1.0730   -0.0550 c3        1 LSM     -0.079400
     73 C11       -14.0650    1.7630    0.7120 c3        1 LSM     -0.080400
     74 C12       -15.3990    1.5910    0.0320 c3        1 LSM     -0.092100
     75 H10       -12.9040    1.4910   -1.0940 hc        1 LSM      0.039700
     76 H10A      -13.1910   -0.0200   -0.1500 hc        1 LSM      0.039700
     77 H11       -14.1160    1.3450    1.7520 hc        1 LSM      0.038700
     78 H11A      -13.8290    2.8560    0.8080 hc        1 LSM      0.038700
     79 H12       -16.2010    2.1070    0.6130 hc        1 LSM      0.032700
     80 H12A      -15.3750    2.0240   -0.9980 hc        1 LSM      0.032700
     81 H12B      -15.6630    0.5090   -0.0510 hc        1 LSM      0.032700
@<TRIPOS>BOND
     1    1    2 1   
     2    1   11 1   
     3    2    3 1   
     4    2   33 1   
     5    2   34 1   
     6    3    4 1   
     7    3   35 1   
     8    3   36 1   
     9    4    5 1   
    10    4   37 1   
    11    4   38 1   
    12    5    6 1   
    13    5   39 1   
    14    5   40 1   
    15    6    7 1   
    16    6   41 1   
    17    6   42 1   
    18    7    8 1   
    19    7   43 1   
    20    7   44 1   
    21    8    9 1   
    22    8   45 1   
    23    8   46 1   
    24    9   10 1   
    25    9   47 1   
    26    9   48 1   
    27   10   49 1   
    28   10   50 1   
    29   10   72 1   
    30   11   14 1   
    31   11   26 1   
    32   11   51 1   
    33   12   13 1   
    34   12   16 1   
    35   12   28 1   
    36   12   52 1   
    37   13   22 1   
    38   14   15 1   
    39   14   18 1   
    40   14   53 1   
    41   15   54 1   
    42   16   17 1   
    43   16   20 1   
    44   16   55 1   
    45   17   56 1   
    46   18   19 1   
    47   18   22 1   
    48   18   57 1   
    49   19   58 1   
    50   20   21 1   
    51   20   24 1   
    52   20   59 1   
    53   21   60 1   
    54   22   25 1   
    55   22   61 1   
    56   23   24 1   
    57   23   62 1   
    58   24   27 1   
    59   24   63 1   
    60   25   26 1   
    61   25   29 1   
    62   25   64 1   
    63   27   28 1   
    64   27   31 1   
    65   27   65 1   
    66   29   30 1   
    67   29   66 1   
    68   29   67 1   
    69   30   68 1   
    70   31   32 1   
    71   31   69 1   
    72   31   70 1   
    73   32   71 1   
    74   72   73 1   
    75   72   75 1   
    76   72   76 1   
    77   73   74 1   
    78   73   77 1   
    79   73   78 1   
    80   74   79 1   
    81   74   80 1   
    82   74   81 1   
@<TRIPOS>SUBSTRUCTURE
     1 LSM         1 TEMP              0 ****  ****    0 ROOT
