@<TRIPOS>MOLECULE
LSO
   51    50     1     0     0
SMALL
bcc


@<TRIPOS>ATOM
      1 O          -0.4540   -7.2810   -2.7940 o         1 LSO     -0.854800
      2 C          -0.3190   -6.3730   -1.9190 c         1 LSO      0.886600
      3 CA         -0.0090   -4.9180   -2.3990 c3        1 LSO      0.026500
      4 N           0.1470   -4.7900   -3.8430 n3        1 LSO     -0.893800
      5 CB         -1.0560   -3.9700   -1.8070 c3        1 LSO     -0.065400
      6 CG         -0.6870   -2.5110   -1.9790 c3        1 LSO     -0.078400
      7 CD         -1.7390   -1.5920   -1.3900 c3        1 LSO     -0.074400
      8 CE         -1.3490   -0.1290   -1.6260 c3        1 LSO      0.122800
      9 NZ         -2.3770    0.8090   -1.2730 n2        1 LSO     -0.649900
     10 C4         -2.1950    1.7970   -0.4670 c2        1 LSO      0.476300
     11 C3         -0.9760    2.1950    0.3210 c3        1 LSO     -0.155700
     12 C2         -0.1030    3.1760   -0.4290 c3        1 LSO     -0.187400
     13 C1          0.8410    3.9410    0.5150 c         1 LSO      0.907600
     14 O2          1.9800    4.2660    0.0690 o         1 LSO     -0.855800
     15 O1          0.4380    4.2380    1.6780 o         1 LSO     -0.855800
     16 C5         -3.3600    2.7350   -0.2450 c3        1 LSO     -0.360900
     17 S6         -4.7270    2.5020   -1.2650 s6        1 LSO      1.354000
     18 O6         -5.4480    1.3760   -0.8660 o         1 LSO     -0.641300
     19 O5         -4.3990    2.6990   -2.6070 o         1 LSO     -0.641300
     20 C7         -5.5640    3.9180   -0.7000 c3        1 LSO     -0.425600
     21 C8         -6.9760    4.1520   -1.1770 c         1 LSO      0.615100
     22 O7         -7.4470    3.5080   -2.1190 o         1 LSO     -0.548100
     23 C9         -7.7230    5.2030   -0.4140 c3        1 LSO     -0.158400
     24 C10        -8.7900    5.9000   -1.2230 c3        1 LSO     -0.187400
     25 C11        -9.7130    6.7530   -0.3370 c         1 LSO      0.907600
     26 O3         -9.8890    6.4200    0.8710 o         1 LSO     -0.858300
     27 O4        -10.2770    7.7530   -0.8720 o         1 LSO     -0.858300
     28 OXT        -0.3880   -6.5870   -0.6770 o         1 LSO     -0.854800
     29 HA          0.9940   -4.6490   -1.9530 h1        1 LSO      0.041700
     30 HN1         0.4930   -5.6710   -4.1890 hn        1 LSO      0.327300
     31 HN2        -0.7590   -4.6600   -4.2570 hn        1 LSO      0.327300
     32 HBC1       -2.0560   -4.1630   -2.2770 hc        1 LSO      0.044700
     33 HBC2       -1.1470   -4.2170   -0.7160 hc        1 LSO      0.044700
     34 HGC1        0.3010   -2.3170   -1.4860 hc        1 LSO      0.035700
     35 HGC2       -0.5610   -2.2780   -3.0690 hc        1 LSO      0.035700
     36 HDC1       -2.7340   -1.8060   -1.8610 hc        1 LSO      0.043700
     37 HDC2       -1.8410   -1.7860   -0.2910 hc        1 LSO      0.043700
     38 HEC1       -0.3640    0.0620   -1.1070 h1        1 LSO      0.042200
     39 HEC2       -1.1720    0.0160   -2.7330 h1        1 LSO      0.042200
     40 H3C1       -0.3730    1.2890    0.5940 hc        1 LSO      0.064200
     41 H3C2       -1.2960    2.6760    1.2870 hc        1 LSO      0.064200
     42 H2C1       -0.7360    3.9380   -0.9520 hc        1 LSO      0.027700
     43 H2C2        0.5020    2.6440   -1.2040 hc        1 LSO      0.027700
     44 H5C1       -3.6470    2.6270    0.8360 h1        1 LSO      0.120700
     45 H5C2       -2.9390    3.7740   -0.3460 h1        1 LSO      0.120700
     46 H7C1       -5.6030    3.9270    0.4220 h1        1 LSO      0.118200
     47 H7C2       -4.9920    4.8390   -0.9960 h1        1 LSO      0.118200
     48 H9C1       -8.2160    4.7120    0.4740 hc        1 LSO      0.073700
     49 H9C2       -7.0020    5.9600   -0.0090 hc        1 LSO      0.073700
     50 H101       -8.3230    6.5530   -2.0010 hc        1 LSO      0.035700
     51 H102       -9.4230    5.1410   -1.7500 hc        1 LSO      0.035700
@<TRIPOS>BOND
     1    1    2 1   
     2    2    3 1   
     3    2   28 1   
     4    3    4 1   
     5    3    5 1   
     6    3   29 1   
     7    4   30 1   
     8    4   31 1   
     9    5    6 1   
    10    5   32 1   
    11    5   33 1   
    12    6    7 1   
    13    6   34 1   
    14    6   35 1   
    15    7    8 1   
    16    7   36 1   
    17    7   37 1   
    18    8    9 1   
    19    8   38 1   
    20    8   39 1   
    21    9   10 2   
    22   10   11 1   
    23   10   16 1   
    24   11   12 1   
    25   11   40 1   
    26   11   41 1   
    27   12   13 1   
    28   12   42 1   
    29   12   43 1   
    30   13   14 1   
    31   13   15 1   
    32   16   17 1   
    33   16   44 1   
    34   16   45 1   
    35   17   18 2   
    36   17   19 2   
    37   17   20 1   
    38   20   21 1   
    39   20   46 1   
    40   20   47 1   
    41   21   22 2   
    42   21   23 1   
    43   23   24 1   
    44   23   48 1   
    45   23   49 1   
    46   24   25 1   
    47   24   50 1   
    48   24   51 1   
    49   25   26 1   
    50   25   27 1   
@<TRIPOS>SUBSTRUCTURE
     1 LSO         1 TEMP              0 ****  ****    0 ROOT
