@<TRIPOS>MOLECULE
LSP
   32    31     1     0     0
SMALL
bcc


@<TRIPOS>ATOM
      1 N          -0.1700    0.3190    1.1480 n3        1 LSP     -0.940800
      2 C12         1.2320    0.5080    0.8710 c3        1 LSP      0.126800
      3 C11         2.1310    0.2060    2.0820 c3        1 LSP      0.165400
      4 P           1.3770   -1.6530    3.7180 p5        1 LSP      1.638500
      5 O12         0.0950   -2.3520    3.0990 oh        1 LSP     -0.752400
      6 O14         1.2060   -0.6250    4.7320 o         1 LSP     -0.814300
      7 O11         2.2610   -2.9110    4.1620 os        1 LSP     -0.573200
      8 O13         2.1100   -1.1720    2.3740 os        1 LSP     -0.583200
      9 C1          2.6470   -3.0050    5.5180 c3        1 LSP      0.124400
     10 C2          2.1840   -4.3630    6.0590 c3        1 LSP      0.128100
     11 O21         2.8220   -5.4290    5.3750 oh        1 LSP     -0.598800
     12 C3          2.5760   -4.5110    7.5320 c3        1 LSP      0.138400
     13 O31         1.5870   -3.7760    8.2680 os        1 LSP     -0.449900
     14 C31         1.7180   -3.7640    9.6310 c         1 LSP      0.637100
     15 O32         2.6660   -4.3720   10.1300 o         1 LSP     -0.540000
     16 C32         0.6450   -2.9850   10.3070 c3        1 LSP     -0.150100
     17 HN1        -0.5070    0.9990    1.8010 hn        1 LSP      0.360800
     18 HN2        -0.0600   -2.2240    2.1630 ho        1 LSP      0.497000
     19 HN3        -0.7090    0.3710    0.3070 hn        1 LSP      0.360800
     20 H121        1.4800    1.5580    0.5360 h1        1 LSP      0.044700
     21 H122        1.5220   -0.1960    0.0400 h1        1 LSP      0.044700
     22 H111        1.8230    0.7930    2.9910 h1        1 LSP      0.064200
     23 H112        3.1910    0.4620    1.8010 h1        1 LSP      0.064200
     24 H11         2.1970   -2.1680    6.1190 h1        1 LSP      0.075700
     25 H12         3.7720   -2.9550    5.5510 h1        1 LSP      0.075700
     26 H2          1.0690   -4.4620    5.9450 h1        1 LSP      0.059700
     27 H21         2.7400   -5.2350    4.4310 ho        1 LSP      0.425000
     28 H31         3.5900   -4.0830    7.7410 h1        1 LSP      0.069200
     29 H32         2.5530   -5.5880    7.8420 h1        1 LSP      0.069200
     30 H321        0.0220   -3.6840   10.9170 hc        1 LSP      0.078367
     31 H322       -0.0030   -2.4650    9.5610 hc        1 LSP      0.078367
     32 H323        1.1170   -2.2300   10.9830 hc        1 LSP      0.078367
@<TRIPOS>BOND
     1    1    2 1   
     2    1   17 1   
     3    1   19 1   
     4    2    3 1   
     5    2   20 1   
     6    2   21 1   
     7    3    8 1   
     8    3   22 1   
     9    3   23 1   
    10    4    5 1   
    11    4    6 2   
    12    4    7 1   
    13    4    8 1   
    14    5   18 1   
    15    7    9 1   
    16    9   10 1   
    17    9   24 1   
    18    9   25 1   
    19   10   11 1   
    20   10   12 1   
    21   10   26 1   
    22   11   27 1   
    23   12   13 1   
    24   12   28 1   
    25   12   29 1   
    26   13   14 1   
    27   14   15 2   
    28   14   16 1   
    29   16   30 1   
    30   16   31 1   
    31   16   32 1   
@<TRIPOS>SUBSTRUCTURE
     1 LSP         1 TEMP              0 ****  ****    0 ROOT
