@<TRIPOS>MOLECULE
LSP
   32    31     1     0     0
SMALL
bcc


@<TRIPOS>ATOM
      1 N          -5.3110   -0.4720    0.7490 n3        1 LSP     -0.940800
      2 C12        -4.6360   -1.3310   -0.1920 c3        1 LSP      0.126800
      3 C11        -3.3530   -0.7060   -0.7650 c3        1 LSP      0.165400
      4 P          -1.9750    0.8640    0.7680 p5        1 LSP      1.635500
      5 O12        -2.6570    0.8390    2.1980 oh        1 LSP     -0.745400
      6 O14        -2.2800    1.9480   -0.1530 o         1 LSP     -0.811300
      7 O11        -0.4270    0.6870    1.1390 os        1 LSP     -0.564200
      8 O13        -2.3700   -0.6000    0.2390 os        1 LSP     -0.588200
      9 C1          0.5190    1.4400    0.4120 c3        1 LSP      0.131400
     10 C2          1.5350    0.4860   -0.2370 c3        1 LSP      0.103100
     11 O21         2.3660    1.2160   -1.1160 oh        1 LSP     -0.594800
     12 C3          2.3190   -0.2450    0.8520 c3        1 LSP      0.105400
     13 O31         3.2470   -1.1680    0.2770 os        1 LSP     -0.433900
     14 C31         4.4820   -0.6970   -0.0780 c         1 LSP      0.645100
     15 O32         4.7440    0.4890    0.1390 o         1 LSP     -0.561000
     16 C32         5.3490   -1.7420   -0.6870 c3        1 LSP     -0.149100
     17 HN1        -3.2000    0.0770    2.4040 ho        1 LSP      0.496000
     18 HN2        -5.6800    0.3430    0.3000 hn        1 LSP      0.360800
     19 HN3        -6.0510   -0.9620    1.2090 hn        1 LSP      0.360800
     20 H121       -5.2810   -1.6140   -1.0750 h1        1 LSP      0.044200
     21 H122       -4.3500   -2.2800    0.3440 h1        1 LSP      0.044200
     22 H111       -3.5430    0.3060   -1.2190 h1        1 LSP      0.064200
     23 H112       -2.9440   -1.4050   -1.5470 h1        1 LSP      0.064200
     24 H11         1.0510    2.1130    1.1410 h1        1 LSP      0.070200
     25 H12         0.0110    2.0610   -0.3770 h1        1 LSP      0.070200
     26 H2          1.0120   -0.2600   -0.8990 h1        1 LSP      0.086700
     27 H21         3.0170    1.6940   -0.5820 ho        1 LSP      0.422000
     28 H31         1.6250   -0.8940    1.4500 h1        1 LSP      0.079700
     29 H32         2.8520    0.4830    1.5180 h1        1 LSP      0.079700
     30 H321        6.3710   -1.6750   -0.2400 hc        1 LSP      0.077700
     31 H322        4.9270   -2.7610   -0.5150 hc        1 LSP      0.077700
     32 H323        5.4160   -1.5520   -1.7870 hc        1 LSP      0.077700
@<TRIPOS>BOND
     1    1    2 1   
     2    1   18 1   
     3    1   19 1   
     4    2    3 1   
     5    2   20 1   
     6    2   21 1   
     7    3    8 1   
     8    3   22 1   
     9    3   23 1   
    10    4    5 1   
    11    4    6 2   
    12    4    7 1   
    13    4    8 1   
    14    5   17 1   
    15    7    9 1   
    16    9   10 1   
    17    9   24 1   
    18    9   25 1   
    19   10   11 1   
    20   10   12 1   
    21   10   26 1   
    22   11   27 1   
    23   12   13 1   
    24   12   28 1   
    25   12   29 1   
    26   13   14 1   
    27   14   15 2   
    28   14   16 1   
    29   16   30 1   
    30   16   31 1   
    31   16   32 1   
@<TRIPOS>SUBSTRUCTURE
     1 LSP         1 TEMP              0 ****  ****    0 ROOT
