@<TRIPOS>MOLECULE
LSP
   32    31     1     0     0
SMALL
bcc


@<TRIPOS>ATOM
      1 N          -0.1410    0.2960    1.1200 n8        1 LSP     -0.940800
      2 C12         1.2630    0.4870    0.8540 c3        1 LSP      0.126800
      3 C11         2.1520    0.1930    2.0740 c3        1 LSP      0.165400
      4 P           1.3880   -1.6600    3.7120 p5        1 LSP      1.638500
      5 O12         0.1120   -2.3640    3.0860 oh        1 LSP     -0.752400
      6 O14         1.2070   -0.6270    4.7210 o         1 LSP     -0.814300
      7 O11         2.2710   -2.9150    4.1700 os        1 LSP     -0.573200
      8 O13         2.1310   -1.1840    2.3730 os        1 LSP     -0.583200
      9 C1          2.6450   -3.0020    5.5300 c3        1 LSP      0.124400
     10 C2          2.1790   -4.3580    6.0730 c3        1 LSP      0.128100
     11 O21         2.8240   -5.4270    5.3990 oh        1 LSP     -0.598800
     12 C3          2.5580   -4.5000    7.5490 c3        1 LSP      0.138400
     13 O31         1.5670   -3.7550    8.2720 os        1 LSP     -0.449900
     14 C31         1.6820   -3.7410    9.6370 c         1 LSP      0.637100
     15 O32         2.6200   -4.3560   10.1480 o         1 LSP     -0.540000
     16 C32         0.6080   -2.9520   10.2990 c3        1 LSP     -0.150100
     17 HN1        -0.0350   -2.2410    2.1480 ho        1 LSP      0.497000
     18 HN2        -0.4860    0.9780    1.7670 hn        1 LSP      0.360800
     19 HN3        -0.6720    0.3430    0.2750 hn        1 LSP      0.360800
     20 H121        1.5620   -0.2210    0.0290 h1        1 LSP      0.044700
     21 H122        1.5120    1.5360    0.5160 h1        1 LSP      0.044700
     22 H111        3.2140    0.4500    1.8020 h1        1 LSP      0.064200
     23 H112        1.8350    0.7840    2.9780 h1        1 LSP      0.064200
     24 H11         3.7700   -2.9510    5.5730 h1        1 LSP      0.075700
     25 H12         2.1880   -2.1630    6.1230 h1        1 LSP      0.075700
     26 H2          1.0640   -4.4600    5.9490 h1        1 LSP      0.059700
     27 H21         2.7500   -5.2370    4.4540 ho        1 LSP      0.425000
     28 H31         3.5720   -4.0760    7.7640 h1        1 LSP      0.069200
     29 H32         2.5270   -5.5740    7.8660 h1        1 LSP      0.069200
     30 H321       -0.0120   -2.4080    9.5460 hc        1 LSP      0.078367
     31 H322        1.0770   -2.2180   10.9990 hc        1 LSP      0.078367
     32 H323       -0.0430   -3.6490   10.8820 hc        1 LSP      0.078367
@<TRIPOS>BOND
     1    1    2 1   
     2    1   18 1   
     3    1   19 1   
     4    2    3 1   
     5    2   20 1   
     6    2   21 1   
     7    3    8 1   
     8    3   22 1   
     9    3   23 1   
    10    4    5 1   
    11    4    6 2   
    12    4    7 1   
    13    4    8 1   
    14    5   17 1   
    15    7    9 1   
    16    9   10 1   
    17    9   24 1   
    18    9   25 1   
    19   10   11 1   
    20   10   12 1   
    21   10   26 1   
    22   11   27 1   
    23   12   13 1   
    24   12   28 1   
    25   12   29 1   
    26   13   14 1   
    27   14   15 2   
    28   14   16 1   
    29   16   30 1   
    30   16   31 1   
    31   16   32 1   
@<TRIPOS>SUBSTRUCTURE
     1 LSP         1 TEMP              0 ****  ****    0 ROOT
