@<TRIPOS>MOLECULE
LSP
   32    31     1     0     0
SMALL
bcc


@<TRIPOS>ATOM
      1 N          -0.0380    0.4880    1.2050 n3        1 LSP     -0.940800
      2 C12         1.3660    0.5390    0.8820 c3        1 LSP      0.126800
      3 C11         2.2690    0.1480    2.0640 c3        1 LSP      0.165400
      4 P           1.3890   -1.6320    3.7250 p5        1 LSP      1.638500
      5 O12         0.0250   -2.2000    3.1480 oh        1 LSP     -0.752400
      6 O14         1.3520   -0.5950    4.7440 o         1 LSP     -0.814300
      7 O11         2.1590   -2.9720    4.1410 os        1 LSP     -0.573200
      8 O13         2.1230   -1.2220    2.3580 os        1 LSP     -0.583200
      9 C1          2.5770   -3.1070    5.4850 c3        1 LSP      0.124400
     10 C2          1.9990   -4.4150    6.0400 c3        1 LSP      0.128100
     11 O21         2.5070   -5.5370    5.3370 oh        1 LSP     -0.598800
     12 C3          2.4200   -4.6050    7.5000 c3        1 LSP      0.138400
     13 O31         1.5390   -3.7690    8.2650 os        1 LSP     -0.449900
     14 C31         1.7090   -3.7780    9.6240 c         1 LSP      0.637100
     15 O32         2.5990   -4.4880   10.0950 o         1 LSP     -0.540000
     16 C32         0.7470   -2.8900   10.3310 c3        1 LSP     -0.150100
     17 HN1        -0.5960    0.5940    0.3810 hn        1 LSP      0.360800
     18 HN2        -0.1460   -2.0560    2.2170 ho        1 LSP      0.497000
     19 HN3        -0.2870    1.1960    1.8670 hn        1 LSP      0.360800
     20 H121        1.7050    1.5610    0.5390 h1        1 LSP      0.044700
     21 H122        1.5590   -0.1880    0.0430 h1        1 LSP      0.044700
     22 H111        3.3400    0.3000    1.7500 h1        1 LSP      0.064200
     23 H112        2.0490    0.7600    2.9830 h1        1 LSP      0.064200
     24 H11         3.7020   -3.1690    5.4820 h1        1 LSP      0.075700
     25 H12         2.2300   -2.2320    6.0990 h1        1 LSP      0.075700
     26 H2          0.8760   -4.4040    5.9610 h1        1 LSP      0.059700
     27 H21         2.4160   -5.3330    4.3960 ho        1 LSP      0.425000
     28 H31         3.4790   -4.2870    7.6760 h1        1 LSP      0.069200
     29 H32         2.2930   -5.6730    7.8140 h1        1 LSP      0.069200
     30 H321        1.3150   -2.2150   11.0170 hc        1 LSP      0.078367
     31 H322        0.0500   -3.5220   10.9340 hc        1 LSP      0.078367
     32 H323        0.1580   -2.2780    9.6060 hc        1 LSP      0.078367
@<TRIPOS>BOND
     1    1    2 1   
     2    1   17 1   
     3    1   19 1   
     4    2    3 1   
     5    2   20 1   
     6    2   21 1   
     7    3    8 1   
     8    3   22 1   
     9    3   23 1   
    10    4    5 1   
    11    4    6 2   
    12    4    7 1   
    13    4    8 1   
    14    5   18 1   
    15    7    9 1   
    16    9   10 1   
    17    9   24 1   
    18    9   25 1   
    19   10   11 1   
    20   10   12 1   
    21   10   26 1   
    22   11   27 1   
    23   12   13 1   
    24   12   28 1   
    25   12   29 1   
    26   13   14 1   
    27   14   15 2   
    28   14   16 1   
    29   16   30 1   
    30   16   31 1   
    31   16   32 1   
@<TRIPOS>SUBSTRUCTURE
     1 LSP         1 TEMP              0 ****  ****    0 ROOT
