@<TRIPOS>MOLECULE
LSR
   39    39     1     0     0
SMALL
bcc


@<TRIPOS>ATOM
      1 CAF        -0.0710    0.0500   -0.0580 c3        1 LSR     -0.062900
      2 CAE         1.3960   -0.0180    0.0720 c2        1 LSR     -0.160200
      3 CAD         2.0730    0.0100    1.2380 ce        1 LSR     -0.088200
      4 CAA         1.3980    0.1130    2.5550 c3        1 LSR     -0.059900
      5 CAC         3.5280   -0.0620    1.2310 ce        1 LSR     -0.130000
      6 CAB         4.3060    0.0570    2.3190 cf        1 LSR     -0.120000
      7 CAK         5.7650   -0.0010    2.2910 cf        1 LSR     -0.083200
      8 CAJ         6.4370   -1.0090    1.6950 c2        1 LSR     -0.101400
      9 CAI         5.7670   -2.1610    1.0410 c3        1 LSR     -0.062900
     10 CAN         7.9240   -1.0820    1.6530 c3        1 LSR     -0.041200
     11 CAO         8.5830    0.2490    1.9410 c3        1 LSR     -0.075400
     12 CAP         7.9550    0.8930    3.1540 c3        1 LSR     -0.070400
     13 CAL         6.4580    1.1580    2.9680 c3        1 LSR     -0.005800
     14 CAH         6.2620    2.4120    2.1200 c3        1 LSR     -0.084600
     15 CAM         5.8620    1.4080    4.3520 c3        1 LSR     -0.084600
     16 HAE         1.9510   -0.0950   -0.8790 ha        1 LSR      0.119000
     17 HAA         1.6740    1.0760    3.0530 hc        1 LSR      0.042367
     18 HAAA        0.2860    0.0770    2.4550 hc        1 LSR      0.042367
     19 HAAB        1.7170   -0.7290    3.2200 hc        1 LSR      0.042367
     20 HAC         3.9900   -0.2180    0.2390 ha        1 LSR      0.124000
     21 HAB         3.8630    0.2220    3.3170 ha        1 LSR      0.128000
     22 HAI         4.7280   -2.3090    1.4260 hc        1 LSR      0.043367
     23 HAIA        6.3480   -3.1000    1.2190 hc        1 LSR      0.043367
     24 HAIB        5.7110   -1.9900   -0.0640 hc        1 LSR      0.043367
     25 HAN         8.2640   -1.8430    2.4090 hc        1 LSR      0.047700
     26 HANA        8.2500   -1.4510    0.6430 hc        1 LSR      0.047700
     27 HAO         8.4780    0.9240    1.0520 hc        1 LSR      0.041700
     28 HAOA        9.6800    0.0960    2.1180 hc        1 LSR      0.041700
     29 HAP         8.1000    0.2220    4.0420 hc        1 LSR      0.041700
     30 HAPA        8.4720    1.8630    3.3780 hc        1 LSR      0.041700
     31 HAH         6.6920    3.2990    2.6440 hc        1 LSR      0.036200
     32 HAHA        5.1740    2.5910    1.9460 hc        1 LSR      0.036200
     33 HAHB        6.7670    2.2990    1.1320 hc        1 LSR      0.036200
     34 HAM         6.5160    2.1110    4.9240 hc        1 LSR      0.036200
     35 HAMA        4.8480    1.8670    4.2700 hc        1 LSR      0.036200
     36 HAMB        5.7810    0.4520    4.9210 hc        1 LSR      0.036200
     37 HAF        -0.3740    0.0440   -1.1340 hc        1 LSR      0.041700
     38 HAFA       -0.4700    0.9850    0.4110 hc        1 LSR      0.041700
     39 H24        -0.5550   -0.8250    0.4460 hc        1 LSR      0.041700
@<TRIPOS>BOND
     1    1    2 1   
     2    1   37 1   
     3    1   38 1   
     4    1   39 1   
     5    2    3 2   
     6    2   16 1   
     7    3    4 1   
     8    3    5 1   
     9    4   17 1   
    10    4   18 1   
    11    4   19 1   
    12    5    6 2   
    13    5   20 1   
    14    6    7 1   
    15    6   21 1   
    16    7    8 2   
    17    7   13 1   
    18    8    9 1   
    19    8   10 1   
    20    9   22 1   
    21    9   23 1   
    22    9   24 1   
    23   10   11 1   
    24   10   25 1   
    25   10   26 1   
    26   11   12 1   
    27   11   27 1   
    28   11   28 1   
    29   12   13 1   
    30   12   29 1   
    31   12   30 1   
    32   13   14 1   
    33   13   15 1   
    34   14   31 1   
    35   14   32 1   
    36   14   33 1   
    37   15   34 1   
    38   15   35 1   
    39   15   36 1   
@<TRIPOS>SUBSTRUCTURE
     1 LSR         1 TEMP              0 ****  ****    0 ROOT
