@<TRIPOS>MOLECULE
LSR
   39    39     1     0     0
SMALL
bcc


@<TRIPOS>ATOM
      1 CAF         5.3150   -0.1130    0.6740 c3        1 LSR     -0.062900
      2 CAE         3.8760   -0.4200    0.7580 c2        1 LSR     -0.160200
      3 CAD         2.9180    0.1380   -0.0090 ce        1 LSR     -0.088200
      4 CAA         3.2130    1.1510   -1.0520 c3        1 LSR     -0.059900
      5 CAC         1.5260   -0.2510    0.1760 ce        1 LSR     -0.130000
      6 CAB         0.4840    0.3060   -0.4610 cf        1 LSR     -0.120000
      7 CAK        -0.9070   -0.0860   -0.2510 cf        1 LSR     -0.083200
      8 CAJ        -1.3150   -1.3710   -0.3240 c2        1 LSR     -0.101400
      9 CAI        -0.4050   -2.4980   -0.6490 c3        1 LSR     -0.062900
     10 CAN        -2.7280   -1.7900   -0.1090 c3        1 LSR     -0.041200
     11 CAO        -3.5460   -0.7380    0.6060 c3        1 LSR     -0.075400
     12 CAP        -3.3130    0.6200   -0.0140 c3        1 LSR     -0.070400
     13 CAL        -1.8460    1.0550    0.0630 c3        1 LSR     -0.005800
     14 CAH        -1.5400    1.5720    1.4660 c3        1 LSR     -0.084600
     15 CAM        -1.6560    2.2000   -0.9300 c3        1 LSR     -0.084600
     16 HAE         3.5980   -1.1690    1.5200 ha        1 LSR      0.119000
     17 HAA         2.8040    0.8200   -2.0390 hc        1 LSR      0.042367
     18 HAAA        2.7370    2.1270   -0.7840 hc        1 LSR      0.042367
     19 HAAB        4.3120    1.3170   -1.1670 hc        1 LSR      0.042367
     20 HAC         1.3540   -1.0620    0.9070 ha        1 LSR      0.124000
     21 HAB         0.6350    1.1230   -1.1880 ha        1 LSR      0.128000
     22 HAI        -0.0760   -3.0040    0.2940 hc        1 LSR      0.043367
     23 HAIA       -0.9320   -3.2530   -1.2830 hc        1 LSR      0.043367
     24 HAIB        0.5060   -2.1510   -1.1960 hc        1 LSR      0.043367
     25 HAN        -3.1890   -2.0110   -1.1100 hc        1 LSR      0.047700
     26 HANA       -2.7470   -2.7450    0.4820 hc        1 LSR      0.047700
     27 HAO        -4.6350   -1.0000    0.5440 hc        1 LSR      0.041700
     28 HAOA       -3.2690   -0.7140    1.6920 hc        1 LSR      0.041700
     29 HAP        -3.6290    0.5900   -1.0910 hc        1 LSR      0.041700
     30 HAPA       -3.9480    1.3870    0.5020 hc        1 LSR      0.041700
     31 HAH        -0.4620    1.8550    1.5440 hc        1 LSR      0.036200
     32 HAHA       -2.1640    2.4710    1.6870 hc        1 LSR      0.036200
     33 HAHB       -1.7580    0.7870    2.2290 hc        1 LSR      0.036200
     34 HAM        -1.6470    1.8120   -1.9760 hc        1 LSR      0.036200
     35 HAMA       -2.4920    2.9330   -0.8270 hc        1 LSR      0.036200
     36 HAMB       -0.6970    2.7370   -0.7360 hc        1 LSR      0.036200
     37 HAF         5.7200   -0.3790   -0.3350 hc        1 LSR      0.041700
     38 HAFA        5.5010    0.9780    0.8450 hc        1 LSR      0.041700
     39 H24         5.8890   -0.6880    1.4420 hc        1 LSR      0.041700
@<TRIPOS>BOND
     1    1    2 1   
     2    1   37 1   
     3    1   38 1   
     4    1   39 1   
     5    2    3 2   
     6    2   16 1   
     7    3    4 1   
     8    3    5 1   
     9    4   17 1   
    10    4   18 1   
    11    4   19 1   
    12    5    6 2   
    13    5   20 1   
    14    6    7 1   
    15    6   21 1   
    16    7    8 2   
    17    7   13 1   
    18    8    9 1   
    19    8   10 1   
    20    9   22 1   
    21    9   23 1   
    22    9   24 1   
    23   10   11 1   
    24   10   25 1   
    25   10   26 1   
    26   11   12 1   
    27   11   27 1   
    28   11   28 1   
    29   12   13 1   
    30   12   29 1   
    31   12   30 1   
    32   13   14 1   
    33   13   15 1   
    34   14   31 1   
    35   14   32 1   
    36   14   33 1   
    37   15   34 1   
    38   15   35 1   
    39   15   36 1   
@<TRIPOS>SUBSTRUCTURE
     1 LSR         1 TEMP              0 ****  ****    0 ROOT
