@<TRIPOS>MOLECULE
LSR
   39    39     1     0     0
SMALL
bcc


@<TRIPOS>ATOM
      1 CAF         2.0700    0.7120   -0.3010 c3        1 LSR     -0.062900
      2 CAE         2.7950   -0.1140    0.6810 c2        1 LSR     -0.159200
      3 CAD         2.4730   -0.1920    1.9850 ce        1 LSR     -0.095200
      4 CAA         1.3250    0.5570    2.5590 c3        1 LSR     -0.056900
      5 CAC         3.1840   -1.0520    2.9210 ce        1 LSR     -0.124000
      6 CAB         4.5050   -1.1900    3.0820 cf        1 LSR     -0.118000
      7 CAK         5.5870   -0.4940    2.3840 cf        1 LSR     -0.073200
      8 CAJ         6.1570   -0.9980    1.2720 c2        1 LSR     -0.112400
      9 CAI         5.7130   -2.2660    0.6410 c3        1 LSR     -0.060900
     10 CAN         7.3130   -0.3560    0.5860 c3        1 LSR     -0.039200
     11 CAO         7.5440    1.0730    1.0270 c3        1 LSR     -0.075400
     12 CAP         7.4410    1.1920    2.5300 c3        1 LSR     -0.070400
     13 CAL         6.0650    0.7720    3.0540 c3        1 LSR     -0.003800
     14 CAH         5.0600    1.8930    2.8100 c3        1 LSR     -0.085100
     15 CAM         6.1830    0.5420    4.5590 c3        1 LSR     -0.085100
     16 HAE         3.6590   -0.6830    0.2940 ha        1 LSR      0.131000
     17 HAA         1.3230    1.6110    2.1840 hc        1 LSR      0.040367
     18 HAAA        0.3610    0.0770    2.2560 hc        1 LSR      0.040367
     19 HAAB        1.3730    0.5800    3.6750 hc        1 LSR      0.040367
     20 HAC         2.5090   -1.6380    3.5750 ha        1 LSR      0.121000
     21 HAB         4.8770   -1.8930    3.8530 ha        1 LSR      0.123000
     22 HAI         4.8690   -2.7370    1.2010 hc        1 LSR      0.042033
     23 HAIA        5.3760   -2.0760   -0.4100 hc        1 LSR      0.042033
     24 HAIB        6.5650   -2.9910    0.6060 hc        1 LSR      0.042033
     25 HAN         7.1500   -0.3820   -0.5250 hc        1 LSR      0.046200
     26 HANA        8.2320   -0.9690    0.7990 hc        1 LSR      0.046200
     27 HAO         6.7910    1.7460    0.5390 hc        1 LSR      0.041200
     28 HAOA        8.5590    1.4090    0.6910 hc        1 LSR      0.041200
     29 HAP         7.6410    2.2510    2.8410 hc        1 LSR      0.041200
     30 HAPA        8.2270    0.5470    3.0050 hc        1 LSR      0.041200
     31 HAH         4.0330    1.5590    3.1000 hc        1 LSR      0.036533
     32 HAHA        5.3340    2.7900    3.4160 hc        1 LSR      0.036533
     33 HAHB        5.0450    2.1790    1.7320 hc        1 LSR      0.036533
     34 HAM         6.6360    1.4390    5.0450 hc        1 LSR      0.036533
     35 HAMA        6.8290   -0.3440    4.7690 hc        1 LSR      0.036533
     36 HAMB        5.1760    0.3630    5.0060 hc        1 LSR      0.036533
     37 HAF         2.4000    1.7790   -0.2250 hc        1 LSR      0.040033
     38 HAFA        0.9660    0.6790   -0.1230 hc        1 LSR      0.040033
     39 H24         2.2700    0.3570   -1.3420 hc        1 LSR      0.040033
@<TRIPOS>BOND
     1    1    2 1   
     2    1   37 1   
     3    1   38 1   
     4    1   39 1   
     5    2    3 2   
     6    2   16 1   
     7    3    4 1   
     8    3    5 1   
     9    4   17 1   
    10    4   18 1   
    11    4   19 1   
    12    5    6 2   
    13    5   20 1   
    14    6    7 1   
    15    6   21 1   
    16    7    8 2   
    17    7   13 1   
    18    8    9 1   
    19    8   10 1   
    20    9   22 1   
    21    9   23 1   
    22    9   24 1   
    23   10   11 1   
    24   10   25 1   
    25   10   26 1   
    26   11   12 1   
    27   11   27 1   
    28   11   28 1   
    29   12   13 1   
    30   12   29 1   
    31   12   30 1   
    32   13   14 1   
    33   13   15 1   
    34   14   31 1   
    35   14   32 1   
    36   14   33 1   
    37   15   34 1   
    38   15   35 1   
    39   15   36 1   
@<TRIPOS>SUBSTRUCTURE
     1 LSR         1 TEMP              0 ****  ****    0 ROOT
