@<TRIPOS>MOLECULE
LSS
   56    58     1     0     0
SMALL
bcc


@<TRIPOS>ATOM
      1 C1          0.2630    0.0570   -0.6660 c         1 LSS      0.636100
      2 N1          1.5130    0.7750   -8.0730 nb        1 LSS     -0.791000
      3 O1         -0.5470    0.9620   -0.9140 o         1 LSS     -0.559100
      4 S1         -1.7650   -1.7270   -0.2640 s6        1 LSS      1.700100
      5 C2          0.3260    0.2420   -8.4650 ca        1 LSS      0.688900
      6 N2         -0.2120   -1.2390   -0.4220 n         1 LSS     -0.701300
      7 O2         -3.8600   -1.6570   -7.2290 oh        1 LSS     -0.596800
      8 N3         -0.7890   -0.0290   -7.7460 nb        1 LSS     -0.760000
      9 O3         -5.0650   -2.8780   -5.2550 oh        1 LSS     -0.584800
     10 C4         -0.6540    0.3060   -6.4270 ca        1 LSS      0.445800
     11 N4          2.1960    1.4910   -1.3320 n3        1 LSS     -0.895800
     12 O4         -3.5000   -0.3420   -4.1480 os        1 LSS     -0.377600
     13 C5          0.5570    0.8800   -5.8530 ca        1 LSS     -0.224200
     14 O5         -2.4970   -1.2960   -1.7070 os        1 LSS     -0.550500
     15 C6          1.6610    1.1000   -6.7440 ca        1 LSS      0.757200
     16 N6          2.8500    1.5880   -6.2650 nh        1 LSS     -0.950500
     17 C7          3.7260    0.2470    1.0290 c3        1 LSS     -0.067700
     18 N7          0.3720    1.1120   -4.4820 nc        1 LSS     -0.575100
     19 C8         -0.8810    0.7100   -4.2200 cd        1 LSS      0.429700
     20 C9          2.2160    0.2930    0.8480 c3        1 LSS     -0.072400
     21 N9         -1.5550    0.2030   -5.3570 na        1 LSS     -0.293000
     22 CA          1.7940    0.2980   -0.6310 c3        1 LSS      0.125500
     23 C10         4.0780    0.6360    2.4520 c3        1 LSS     -0.092600
     24 C11         4.2820   -1.1270    0.7150 c3        1 LSS     -0.092600
     25 O1A        -1.7750   -3.1200   -0.2810 o         1 LSS     -0.635800
     26 C21        -2.9160   -0.2780   -5.4500 c3        1 LSS      0.221800
     27 C22        -3.0320   -1.7030   -6.0900 c3        1 LSS      0.082100
     28 C23        -3.7110   -2.5720   -5.0070 c3        1 LSS      0.128100
     29 C24        -3.6650   -1.7030   -3.7310 c3        1 LSS      0.127100
     30 C25        -2.5070   -2.1430   -2.8300 c3        1 LSS      0.158400
     31 O2A        -2.4730   -1.0300    0.6900 o         1 LSS     -0.635800
     32 HN2         0.5140   -1.9190   -0.3390 hn        1 LSS      0.342500
     33 HO2        -3.3420   -1.2460   -7.9360 ho        1 LSS      0.440000
     34 HO3        -5.1850   -2.9760   -6.2100 ho        1 LSS      0.434000
     35 HN4         1.8840    1.4670   -2.2840 hn        1 LSS      0.374800
     36 HN4A        1.8340    2.3120   -0.8850 hn        1 LSS      0.374800
     37 HN6         3.5700    1.8450   -6.8960 hn        1 LSS      0.445300
     38 HN6A        2.8690    1.9500   -5.3430 hn        1 LSS      0.445300
     39 H7          4.2030    0.9920    0.3310 hc        1 LSS      0.073700
     40 H8         -1.3880    0.7520   -3.2390 h5        1 LSS      0.111800
     41 H9          1.8080    1.2080    1.3530 hc        1 LSS      0.051700
     42 H9A         1.7620   -0.6000    1.3530 hc        1 LSS      0.051700
     43 HA          2.2920   -0.5720   -1.1560 h1        1 LSS      0.077700
     44 H10         3.5970   -0.0600    3.1800 hc        1 LSS      0.035200
     45 H10A        3.7310    1.6740    2.6710 hc        1 LSS      0.035200
     46 H10B        5.1840    0.5940    2.6000 hc        1 LSS      0.035200
     47 H11         5.3870   -1.1390    0.8780 hc        1 LSS      0.035200
     48 H11A        4.0830   -1.4020   -0.3480 hc        1 LSS      0.035200
     49 H11B        3.8210   -1.9010    1.3760 hc        1 LSS      0.035200
     50 H21        -3.5310    0.4750   -6.0290 h2        1 LSS      0.109700
     51 H22        -2.0270   -2.1300   -6.3540 h1        1 LSS      0.074700
     52 H23        -3.1450   -3.5340   -4.8760 h1        1 LSS      0.059700
     53 H24        -4.6390   -1.7140   -3.1700 h1        1 LSS      0.124700
     54 H25        -2.6580   -3.2110   -2.5130 h1        1 LSS      0.051200
     55 H25A       -1.5280   -2.0300   -3.3700 h1        1 LSS      0.051200
     56 H2          0.2660   -0.0040   -9.5480 h5        1 LSS      0.052100
@<TRIPOS>BOND
     1    1    3 2   
     2    1    6 1   
     3    1   22 1   
     4    2    5 ar  
     5    2   15 ar  
     6    4    6 1   
     7    4   14 1   
     8    4   25 2   
     9    4   31 2   
    10    5    8 ar  
    11    5   56 1   
    12    6   32 1   
    13    7   27 1   
    14    7   33 1   
    15    8   10 ar  
    16    9   28 1   
    17    9   34 1   
    18   10   13 ar  
    19   10   21 1   
    20   11   22 1   
    21   11   35 1   
    22   11   36 1   
    23   12   26 1   
    24   12   29 1   
    25   13   15 ar  
    26   13   18 1   
    27   14   30 1   
    28   15   16 1   
    29   16   37 1   
    30   16   38 1   
    31   17   20 1   
    32   17   23 1   
    33   17   24 1   
    34   17   39 1   
    35   18   19 2   
    36   19   21 1   
    37   19   40 1   
    38   20   22 1   
    39   20   41 1   
    40   20   42 1   
    41   21   26 1   
    42   22   43 1   
    43   23   44 1   
    44   23   45 1   
    45   23   46 1   
    46   24   47 1   
    47   24   48 1   
    48   24   49 1   
    49   26   27 1   
    50   26   50 1   
    51   27   28 1   
    52   27   51 1   
    53   28   29 1   
    54   28   52 1   
    55   29   30 1   
    56   29   53 1   
    57   30   54 1   
    58   30   55 1   
@<TRIPOS>SUBSTRUCTURE
     1 LSS         1 TEMP              0 ****  ****    0 ROOT
