@<TRIPOS>MOLECULE
LSS
   58    59     1     0     0
SMALL
bcc


@<TRIPOS>ATOM
      1 C1        112.8080   62.0620  181.3910 c         1 LSS      0.645100
      2 N1        -79.4150  -39.5540 -134.5750 nb        1 LSS     -0.722000
      3 O1        111.6340   62.4580  181.2360 o         1 LSS     -0.598100
      4 S1        -80.9280  -44.4320 -131.5120 s6        1 LSS      1.828000
      5 C2        -80.6450  -40.0680 -134.5590 ca        1 LSS      0.730900
      6 N2        113.5180   61.4340  180.4240 nt        1 LSS     -0.622000
      7 O2        -82.3620  -46.2990 -136.0140 oh        1 LSS     -0.570800
      8 N3        -81.0570  -41.3720 -134.8060 nb        1 LSS     -0.709000
      9 O3        -80.5680  -48.0210 -134.7970 oh        1 LSS     -0.557800
     10 C4        -80.0300  -42.1730 -135.0980 ca        1 LSS      0.478800
     11 N4        112.7130   63.3300  183.5240 nz        1 LSS     -0.830600
     12 O4        -81.4080  -44.9370 -133.0660 os        1 LSS     -0.602500
     13 C5        -78.6370  -41.7720 -135.1650 ca        1 LSS     -0.269200
     14 O5        -80.4910  -45.9810 -131.1300 os        1 LSS     -0.543500
     15 C6        -78.3390  -40.4000 -134.8790 ca        1 LSS      0.800200
     16 N6        -77.0730  -39.9270 -134.9060 nv        1 LSS     -0.901500
     17 C7        114.2130   61.0880  184.9060 c3        1 LSS     -0.079700
     18 N7        -77.8170  -42.8740 -135.4950 nc        1 LSS     -0.394100
     19 C8        -78.6080  -43.9140 -135.6360 cd        1 LSS      0.375700
     20 C9        113.6090   60.9800  183.5130 c3        1 LSS     -0.111400
     21 N9        -80.0370  -43.5990 -135.4090 na        1 LSS     -0.226000
     22 CA        113.5020   62.3060  182.7610 c3        1 LSS      0.035500
     23 C10       114.4060   59.6900  185.4650 c3        1 LSS     -0.102600
     24 C11       115.5290   61.8360  184.9070 c3        1 LSS     -0.102600
     25 O1A       -79.8280  -43.6810 -131.7670 o         1 LSS     -0.617300
     26 C21       -81.0840  -44.3800 -135.4510 c2        1 LSS      0.450200
     27 C22       -81.0450  -45.8620 -135.7570 c3        1 LSS      0.009800
     28 C23       -80.5620  -46.6490 -134.5060 c3        1 LSS      0.148100
     29 C24       -81.4430  -46.3280 -133.2850 c3        1 LSS      0.102100
     30 C25       -80.9120  -47.0070 -132.0020 c3        1 LSS      0.148400
     31 O2A       -82.0320  -44.0670 -130.8270 o         1 LSS     -0.617300
     32 HN2       114.4400   61.1070  180.5770 hn        1 LSS      0.346000
     33 HO2       -82.5200  -46.2480 -136.9680 ho        1 LSS      0.442000
     34 HO3       -81.4840  -48.2910 -134.9700 ho        1 LSS      0.436000
     35 HN4       113.0520   63.3800  184.4900 hn        1 LSS      0.471133
     36 HN4A      112.8010   64.2440  183.0700 hn        1 LSS      0.471133
     37 HN6       -76.3200  -40.5450 -135.1040 hn        1 LSS      0.474800
     38 HN6A      -76.8770  -38.9730 -134.6990 hn        1 LSS      0.474800
     39 H7        113.4890   61.6230  185.5860 hc        1 LSS      0.035700
     40 H8        -78.3170  -44.9440 -135.8880 h5        1 LSS      0.107800
     41 H9        114.2580   60.3030  182.8910 hc        1 LSS      0.092200
     42 H9A       112.5970   60.4970  183.5830 hc        1 LSS      0.092200
     43 HA        114.5350   62.7420  182.6030 hx        1 LSS      0.124700
     44 H10       113.4430   59.1250  185.4500 hc        1 LSS      0.052700
     45 H10A      114.7670   59.7480  186.5200 hc        1 LSS      0.052700
     46 H10B      115.1610   59.1270  184.8650 hc        1 LSS      0.052700
     47 H11       116.2360   61.3960  184.1620 hc        1 LSS      0.052700
     48 H11A      116.0050   61.7680  185.9170 hc        1 LSS      0.052700
     49 H11B      115.3830   62.9170  184.6670 hc        1 LSS      0.052700
     50 H21       -82.0980  -43.9490 -135.2360 h4        1 LSS      0.108800
     51 H22       -80.3560  -46.0870 -136.6200 h1        1 LSS      0.104700
     52 H23       -79.4830  -46.3950 -134.3020 h1        1 LSS      0.098700
     53 H24       -82.5100  -46.6230 -133.4970 h1        1 LSS      0.110700
     54 H25       -80.0210  -47.6590 -132.2070 h1        1 LSS      0.102200
     55 H25A      -81.7170  -47.5950 -131.4860 h1        1 LSS      0.102200
     56 H221      113.0830   61.2520  179.5470 hn        1 LSS      0.346000
     57 H43       111.7170   63.0620  183.5100 hn        1 LSS      0.471133
     58 H2        -81.4740  -39.3620 -134.3100 h5        1 LSS      0.094100
@<TRIPOS>BOND
     1    1    3 2   
     2    1    6 1   
     3    1   22 1   
     4    2    5 ar  
     5    2   15 ar  
     6    4   12 1   
     7    4   14 1   
     8    4   25 2   
     9    4   31 2   
    10    5    8 ar  
    11    5   58 1   
    12    6   32 1   
    13    6   56 1   
    14    7   27 1   
    15    7   33 1   
    16    8   10 ar  
    17    9   28 1   
    18    9   34 1   
    19   10   13 ar  
    20   10   21 1   
    21   11   22 1   
    22   11   35 1   
    23   11   36 1   
    24   11   57 1   
    25   12   29 1   
    26   13   15 ar  
    27   13   18 1   
    28   14   30 1   
    29   15   16 1   
    30   16   37 1   
    31   16   38 1   
    32   17   20 1   
    33   17   23 1   
    34   17   24 1   
    35   17   39 1   
    36   18   19 2   
    37   19   21 1   
    38   19   40 1   
    39   20   22 1   
    40   20   41 1   
    41   20   42 1   
    42   21   26 2   
    43   22   43 1   
    44   23   44 1   
    45   23   45 1   
    46   23   46 1   
    47   24   47 1   
    48   24   48 1   
    49   24   49 1   
    50   26   27 1   
    51   26   50 1   
    52   27   28 1   
    53   27   51 1   
    54   28   29 1   
    55   28   52 1   
    56   29   30 1   
    57   29   53 1   
    58   30   54 1   
    59   30   55 1   
@<TRIPOS>SUBSTRUCTURE
     1 LSS         1 TEMP              0 ****  ****    0 ROOT
