@<TRIPOS>MOLECULE
LSS
   58    59     1     0     0
SMALL
bcc


@<TRIPOS>ATOM
      1 C1          2.8530    0.6670    0.1880 c         1 LSS      0.644100
      2 N1         -1.4620   -1.1470  -10.7620 nb        1 LSS     -0.713000
      3 O1          3.1190    1.6610   -0.5240 o         1 LSS     -0.615100
      4 S1         -0.1780   -1.4120   -3.8530 s6        1 LSS      1.832000
      5 C2         -2.3930   -1.6680   -9.9660 ca        1 LSS      0.732900
      6 N2          1.9090   -0.2450   -0.1410 n         1 LSS     -0.621000
      7 O2         -5.0770   -0.2660   -4.9300 oh        1 LSS     -0.586800
      8 N3         -2.8090   -1.2470   -8.7070 nb        1 LSS     -0.724000
      9 O3         -4.5000   -2.9720   -5.2570 oh        1 LSS     -0.552800
     10 C4         -2.1500   -0.1630   -8.2940 ca        1 LSS      0.467800
     11 N4          4.6910    1.5380    1.6250 n4        1 LSS     -0.828600
     12 O4         -1.7220   -0.8470   -4.2540 os        1 LSS     -0.595500
     13 C5         -1.1090    0.5220   -9.0390 ca        1 LSS     -0.273200
     14 O5         -0.7650   -2.9120   -3.5140 os        1 LSS     -0.542500
     15 C6         -0.7660   -0.0080  -10.3260 ca        1 LSS      0.801200
     16 N6          0.1870    0.5560  -11.0990 nh        1 LSS     -0.892500
     17 C7          3.4790    0.2800    4.0440 c3        1 LSS     -0.079700
     18 N7         -0.6180    1.6280   -8.3100 nc        1 LSS     -0.393100
     19 C8         -1.2840    1.6710   -7.1800 cd        1 LSS      0.383700
     20 C9          2.7460    0.3860    2.7120 c3        1 LSS     -0.111400
     21 N9         -2.2930    0.5850   -7.0500 na        1 LSS     -0.222000
     22 CA          3.6660    0.4470    1.4940 c3        1 LSS      0.036500
     23 C10         2.4550    0.1440    5.1570 c3        1 LSS     -0.103100
     24 C11         4.4400   -0.8890    4.0760 c3        1 LSS     -0.103100
     25 O1A         0.5050   -1.3800   -5.0210 o         1 LSS     -0.642300
     26 C21        -3.1170    0.4050   -6.0550 c2        1 LSS      0.444200
     27 C22        -4.1590   -0.6810   -5.9220 c3        1 LSS      0.014800
     28 C23        -3.5070   -1.9900   -5.4020 c3        1 LSS      0.147100
     29 C24        -2.7820   -1.7610   -4.0630 c3        1 LSS      0.094100
     30 C25        -2.1680   -3.0790   -3.5340 c3        1 LSS      0.144400
     31 O2A         0.2250   -0.8310   -2.6900 o         1 LSS     -0.642300
     32 HN2         1.7100   -1.0220    0.4380 hn        1 LSS      0.350500
     33 HO2        -5.8690    0.0760   -5.3700 ho        1 LSS      0.448000
     34 HO3        -5.1680   -2.6410   -4.6350 ho        1 LSS      0.432000
     35 HN4         4.2370    2.3950    1.9620 hn        1 LSS      0.472133
     36 HN4A        5.4170    1.2520    2.2870 hn        1 LSS      0.472133
     37 HN6         0.6690    1.3650  -10.7790 hn        1 LSS      0.478800
     38 HN6A        0.4120    0.1800  -11.9950 hn        1 LSS      0.478800
     39 H7          4.0550    1.2310    4.2300 hc        1 LSS      0.035700
     40 H8         -1.1770    2.3990   -6.3620 h5        1 LSS      0.112800
     41 H9          2.0730    1.2860    2.7280 hc        1 LSS      0.088200
     42 H9A         2.0920   -0.5210    2.5960 hc        1 LSS      0.088200
     43 HA          4.2400   -0.5260    1.3990 hx        1 LSS      0.127700
     44 H10         1.8840   -0.8100    5.0530 hc        1 LSS      0.053533
     45 H10A        1.7350    0.9980    5.1360 hc        1 LSS      0.053533
     46 H10B        2.9700    0.1400    6.1490 hc        1 LSS      0.053533
     47 H11         4.8640   -1.0050    5.1050 hc        1 LSS      0.053533
     48 H11A        5.2900   -0.7370    3.3680 hc        1 LSS      0.053533
     49 H11B        3.9180   -1.8390    3.8090 hc        1 LSS      0.053533
     50 H21        -3.0610    1.1160   -5.1910 h4        1 LSS      0.085800
     51 H22        -4.6730   -0.9000   -6.9040 h1        1 LSS      0.138700
     52 H23        -2.8030   -2.3970   -6.1830 h1        1 LSS      0.118700
     53 H24        -3.4920   -1.3100   -3.3140 h1        1 LSS      0.111700
     54 H25        -2.3960   -3.9490   -4.2070 h1        1 LSS      0.108200
     55 H25A       -2.5020   -3.2970   -2.4860 h1        1 LSS      0.108200
     56 H221        1.3830   -0.1260   -0.9830 hn        1 LSS      0.350500
     57 H43         5.0970    1.7360    0.6980 hn        1 LSS      0.472133
     58 H2         -2.9250   -2.5720  -10.3500 h5        1 LSS      0.099100
@<TRIPOS>BOND
     1    1    3 2   
     2    1    6 1   
     3    1   22 1   
     4    2    5 ar  
     5    2   15 ar  
     6    4   12 1   
     7    4   14 1   
     8    4   25 2   
     9    4   31 2   
    10    5    8 ar  
    11    5   58 1   
    12    6   32 1   
    13    6   56 1   
    14    7   27 1   
    15    7   33 1   
    16    8   10 ar  
    17    9   28 1   
    18    9   34 1   
    19   10   13 ar  
    20   10   21 1   
    21   11   22 1   
    22   11   35 1   
    23   11   36 1   
    24   11   57 1   
    25   12   29 1   
    26   13   15 ar  
    27   13   18 1   
    28   14   30 1   
    29   15   16 1   
    30   16   37 1   
    31   16   38 1   
    32   17   20 1   
    33   17   23 1   
    34   17   24 1   
    35   17   39 1   
    36   18   19 2   
    37   19   21 1   
    38   19   40 1   
    39   20   22 1   
    40   20   41 1   
    41   20   42 1   
    42   21   26 2   
    43   22   43 1   
    44   23   44 1   
    45   23   45 1   
    46   23   46 1   
    47   24   47 1   
    48   24   48 1   
    49   24   49 1   
    50   26   27 1   
    51   26   50 1   
    52   27   28 1   
    53   27   51 1   
    54   28   29 1   
    55   28   52 1   
    56   29   30 1   
    57   29   53 1   
    58   30   54 1   
    59   30   55 1   
@<TRIPOS>SUBSTRUCTURE
     1 LSS         1 TEMP              0 ****  ****    0 ROOT
