@<TRIPOS>MOLECULE
LSS
   56    58     1     0     0
SMALL
bcc


@<TRIPOS>ATOM
      1 C1          2.6110   -0.7040   -0.3660 c         1 LSS      0.636100
      2 N1         -4.5850   -2.8380    0.5980 nb        1 LSS     -0.791000
      3 O1          2.1330   -0.3910   -1.4670 o         1 LSS     -0.559100
      4 S1          2.8550    1.9230    0.3310 s6        1 LSS      1.699100
      5 C2         -5.1180   -1.5880    0.6160 ca        1 LSS      0.688900
      6 N2          2.9190    0.3050    0.5560 n         1 LSS     -0.701300
      7 O2         -4.2740    3.3120    0.3430 oh        1 LSS     -0.589800
      8 N3         -4.5550   -0.3940    0.3150 nb        1 LSS     -0.756000
      9 O3         -2.4110    4.8640    1.1690 oh        1 LSS     -0.570800
     10 C4         -3.2470   -0.5140   -0.0640 ca        1 LSS      0.447800
     11 N4          2.0970   -3.1190   -0.7330 n3        1 LSS     -0.895800
     12 O4         -1.3750    2.5600   -0.9580 os        1 LSS     -0.380600
     13 C5         -2.5330   -1.7830   -0.1310 ca        1 LSS     -0.224200
     14 O5          1.2630    2.2270   -0.0960 os        1 LSS     -0.552500
     15 C6         -3.2650   -2.9640    0.2300 ca        1 LSS      0.756200
     16 N6         -2.6420   -4.1870    0.2440 nh        1 LSS     -0.950500
     17 C7          4.8120   -3.7290    0.5840 c3        1 LSS     -0.067700
     18 N7         -1.2150   -1.5680   -0.5650 nc        1 LSS     -0.575100
     19 C8         -1.1180   -0.2450   -0.7590 cd        1 LSS      0.427700
     20 C9          4.3820   -2.4130   -0.0470 c3        1 LSS     -0.072400
     21 N9         -2.3130    0.4550   -0.4610 na        1 LSS     -0.293000
     22 CA          2.8650   -2.1780    0.0410 c3        1 LSS      0.125500
     23 C10         6.2140   -4.0780    0.1230 c3        1 LSS     -0.092600
     24 C11         4.7660   -3.6610    2.0960 c3        1 LSS     -0.092600
     25 O1A         2.9950    2.5320    1.5760 o         1 LSS     -0.635300
     26 C21        -2.5750    1.8690   -0.6090 c3        1 LSS      0.217800
     27 C22        -3.1390    2.5490    0.6850 c3        1 LSS      0.080100
     28 C23        -2.0240    3.5140    1.1520 c3        1 LSS      0.128100
     29 C24        -0.8540    3.2700    0.1720 c3        1 LSS      0.091100
     30 C25         0.2570    2.4700    0.8570 c3        1 LSS      0.160400
     31 O2A         3.5800    2.3660   -0.7540 o         1 LSS     -0.635300
     32 HN2         3.2050   -0.0440    1.4470 hn        1 LSS      0.343500
     33 HO2        -5.0210    2.6990    0.3020 ho        1 LSS      0.433000
     34 HO3        -2.9030    5.0490    0.3570 ho        1 LSS      0.427000
     35 HN4         1.1170   -2.9180   -0.6690 hn        1 LSS      0.374800
     36 HN4A        2.3760   -3.1080   -1.6950 hn        1 LSS      0.374800
     37 HN6        -3.1740   -5.0110    0.3830 hn        1 LSS      0.444800
     38 HN6A       -1.7450   -4.2590   -0.1700 hn        1 LSS      0.444800
     39 H7          4.1140   -4.5450    0.2420 hc        1 LSS      0.073700
     40 H8         -0.2250    0.2980   -1.1210 h5        1 LSS      0.111800
     41 H9          4.9110   -1.5710    0.4710 hc        1 LSS      0.051700
     42 H9A         4.6980   -2.3960   -1.1250 hc        1 LSS      0.051700
     43 HA          2.5390   -2.2990    1.1190 h1        1 LSS      0.077700
     44 H10         6.9340   -3.2760    0.4130 hc        1 LSS      0.035533
     45 H10A        6.5440   -5.0370    0.5900 hc        1 LSS      0.035533
     46 H10B        6.2430   -4.1960   -0.9870 hc        1 LSS      0.035533
     47 H11         3.7270   -3.4640    2.4540 hc        1 LSS      0.035533
     48 H11A        5.1070   -4.6300    2.5330 hc        1 LSS      0.035533
     49 H11B        5.4340   -2.8500    2.4770 hc        1 LSS      0.035533
     50 H21        -3.2780    2.0200   -1.4840 h2        1 LSS      0.108700
     51 H22        -3.3820    1.8080    1.4910 h1        1 LSS      0.083700
     52 H23        -1.7250    3.2930    2.2130 h1        1 LSS      0.092700
     53 H24        -0.4440    4.2250   -0.2540 h1        1 LSS      0.112700
     54 H25        -0.1370    1.4790    1.2140 h1        1 LSS      0.053200
     55 H25A        0.6690    3.0610    1.7200 h1        1 LSS      0.053200
     56 H2         -6.1860   -1.5470    0.9240 h5        1 LSS      0.052100
@<TRIPOS>BOND
     1    1    3 2   
     2    1    6 1   
     3    1   22 1   
     4    2    5 ar  
     5    2   15 ar  
     6    4    6 1   
     7    4   14 1   
     8    4   25 2   
     9    4   31 2   
    10    5    8 ar  
    11    5   56 1   
    12    6   32 1   
    13    7   27 1   
    14    7   33 1   
    15    8   10 ar  
    16    9   28 1   
    17    9   34 1   
    18   10   13 ar  
    19   10   21 1   
    20   11   22 1   
    21   11   35 1   
    22   11   36 1   
    23   12   26 1   
    24   12   29 1   
    25   13   15 ar  
    26   13   18 1   
    27   14   30 1   
    28   15   16 1   
    29   16   37 1   
    30   16   38 1   
    31   17   20 1   
    32   17   23 1   
    33   17   24 1   
    34   17   39 1   
    35   18   19 2   
    36   19   21 1   
    37   19   40 1   
    38   20   22 1   
    39   20   41 1   
    40   20   42 1   
    41   21   26 1   
    42   22   43 1   
    43   23   44 1   
    44   23   45 1   
    45   23   46 1   
    46   24   47 1   
    47   24   48 1   
    48   24   49 1   
    49   26   27 1   
    50   26   50 1   
    51   27   28 1   
    52   27   51 1   
    53   28   29 1   
    54   28   52 1   
    55   29   30 1   
    56   29   53 1   
    57   30   54 1   
    58   30   55 1   
@<TRIPOS>SUBSTRUCTURE
     1 LSS         1 TEMP              0 ****  ****    0 ROOT
