@<TRIPOS>MOLECULE
LSW
   71    73     1     0     0
SMALL
bcc


@<TRIPOS>ATOM
      1 C           1.3470    3.1640   -0.0850 c         1 LSW      0.909600
      2 N           3.1680    1.7400   -1.0170 n4        1 LSW     -0.763000
      3 O           2.1340    4.1460   -0.2530 o         1 LSW     -0.808800
      4 CA          1.9530    1.7300   -0.1170 c3        1 LSW      0.006500
      5 CB          2.3010    1.3030    1.3030 c3        1 LSW     -0.105400
      6 NAA         0.0720    5.6250   -1.4400 n4        1 LSW     -0.861600
      7 OAC         0.7810    0.2910   -4.1330 o         1 LSW     -0.771800
      8 OAD         5.0310    0.4410   -2.7530 o         1 LSW     -0.451100
      9 OAF         1.1930    1.7060   -5.8460 o         1 LSW     -0.771800
     10 CAG         3.0610   -1.3790    5.5000 ca        1 LSW     -0.113000
     11 CAH         1.7960   -1.1250    4.9680 ca        1 LSW     -0.120000
     12 CAI         4.1940   -1.2360    4.6990 ca        1 LSW     -0.120000
     13 CAJ         1.5630   -5.2840   -3.3980 ca        1 LSW     -0.107000
     14 CAK         0.8670   -4.0610   -3.4340 ca        1 LSW     -0.138000
     15 CAL         1.6630   -0.7290    3.6390 ca        1 LSW     -0.122500
     16 CAM         4.0640   -0.8390    3.3680 ca        1 LSW     -0.122500
     17 CAN         2.6850   -5.5070   -4.1810 ca        1 LSW     -0.130000
     18 CAO         1.2780   -3.0180   -4.2500 ca        1 LSW     -0.134000
     19 CAP         4.1620   -3.1370   -6.5240 cc        1 LSW     -0.067100
     20 CAQ         0.4870    5.7660   -2.8600 c3        1 LSW      0.113800
     21 CAR         1.7790    5.0270   -3.1890 c3        1 LSW     -0.098400
     22 CAS         1.5780    3.5290   -3.2750 c3        1 LSW     -0.106400
     23 CAT         2.6480   -0.1700    1.4090 c3        1 LSW     -0.036100
     24 CAU         2.9070    2.7910   -3.3040 c3        1 LSW     -0.081400
     25 CAW         2.7320   -1.0120   -6.4180 c3        1 LSW     -0.005200
     26 NAX         3.3310   -0.5230   -4.0080 n4        1 LSW     -0.644800
     27 CBB         1.4580    0.7490   -5.1000 c         1 LSW      0.915600
     28 CBC         3.8400    0.4830   -3.0550 c         1 LSW      0.524100
     29 CBD         2.7980   -0.5820    2.8320 ca        1 LSW     -0.107300
     30 CBE         3.1150   -2.3670   -6.0060 cd        1 LSW     -0.228400
     31 CBF         3.1130   -4.4620   -5.0170 ca        1 LSW     -0.051200
     32 CBG         2.4150   -3.1980   -5.0450 ca        1 LSW     -0.123800
     33 CBI         2.8480    1.4970   -2.4640 c3        1 LSW      0.041500
     34 CBJ         2.8700    0.0580   -5.3250 c3        1 LSW     -0.032500
     35 OXT         0.1020    3.2760    0.0230 o         1 LSW     -0.808800
     36 NXZ         4.1870   -4.3860   -5.9120 na        1 LSW     -0.178400
     37 HN          3.8480    1.0530   -0.6770 hn        1 LSW      0.463800
     38 HA          1.1860    1.0240   -0.5500 hx        1 LSW      0.118700
     39 HB          1.3850    1.5140    1.9260 hc        1 LSW      0.097200
     40 HBA         3.1300    1.9340    1.7190 hc        1 LSW      0.097200
     41 HNAA       -0.3970    4.7140   -1.2770 hn        1 LSW      0.474133
     42 HNAB       -0.5590    6.3780   -1.1730 hn        1 LSW      0.474133
     43 HAG         3.1640   -1.6920    6.5500 ha        1 LSW      0.145000
     44 HAH         0.9010   -1.2400    5.5980 ha        1 LSW      0.143000
     45 HAI         5.1920   -1.4370    5.1150 ha        1 LSW      0.143000
     46 HAJ         1.1950   -6.0880   -2.7400 ha        1 LSW      0.146000
     47 HAK        -0.0350   -3.9440   -2.8140 ha        1 LSW      0.144000
     48 HAL         0.6640   -0.5330    3.2210 ha        1 LSW      0.129000
     49 HAM         4.9620   -0.7320    2.7420 ha        1 LSW      0.129000
     50 HAN         3.2130   -6.4700   -4.1600 ha        1 LSW      0.147000
     51 HAO         0.7010   -2.0770   -4.3070 ha        1 LSW      0.171000
     52 HAP         4.8940   -2.8750   -7.2930 h4        1 LSW      0.179000
     53 HAQ         0.6340    6.8660   -3.0660 hx        1 LSW      0.098700
     54 HAQA       -0.3520    5.3850   -3.5110 hx        1 LSW      0.098700
     55 HAR         2.1420    5.4160   -4.1790 hc        1 LSW      0.082700
     56 HARA        2.5620    5.2670   -2.4180 hc        1 LSW      0.082700
     57 HAS         0.9580    3.1780   -2.4070 hc        1 LSW      0.089700
     58 HASA        1.0000    3.2600   -4.2090 hc        1 LSW      0.089700
     59 HAT         1.8360   -0.7820    0.9310 hc        1 LSW      0.037200
     60 HATA        3.6020   -0.3880    0.8560 hc        1 LSW      0.037200
     61 HAU         3.7480    3.4470   -2.9550 hc        1 LSW      0.086700
     62 HAUA        3.1260    2.5060   -4.3710 hc        1 LSW      0.086700
     63 HAW         1.6550   -1.0210   -6.7550 hc        1 LSW      0.090700
     64 HAWA        3.3520   -0.6850   -7.2970 hc        1 LSW      0.090700
     65 HNAX        4.0460   -1.2460   -4.1800 hn        1 LSW      0.486300
     66 HBI         1.7800    1.0770   -2.5480 hx        1 LSW      0.205700
     67 HBJ         3.6260    0.8280   -5.6420 hx        1 LSW      0.087700
     68 HNXZ        4.7520   -5.1490   -6.1840 hn        1 LSW      0.313700
     69 H2          3.5840    2.6900   -0.9190 hn        1 LSW      0.463800
     70 HAA3        0.9060    5.6210   -0.8140 hn        1 LSW      0.474133
     71 HAX2        2.4730   -0.9740   -3.6120 hn        1 LSW      0.486300
@<TRIPOS>BOND
     1    1    3 1   
     2    1    4 1   
     3    1   35 1   
     4    2    4 1   
     5    2   33 1   
     6    2   37 1   
     7    2   69 1   
     8    4    5 1   
     9    4   38 1   
    10    5   23 1   
    11    5   39 1   
    12    5   40 1   
    13    6   20 1   
    14    6   41 1   
    15    6   42 1   
    16    6   70 1   
    17    7   27 1   
    18    8   28 2   
    19    9   27 1   
    20   10   11 ar  
    21   10   12 ar  
    22   10   43 1   
    23   11   15 ar  
    24   11   44 1   
    25   12   16 ar  
    26   12   45 1   
    27   13   14 ar  
    28   13   17 ar  
    29   13   46 1   
    30   14   18 ar  
    31   14   47 1   
    32   15   29 ar  
    33   15   48 1   
    34   16   29 ar  
    35   16   49 1   
    36   17   31 ar  
    37   17   50 1   
    38   18   32 ar  
    39   18   51 1   
    40   19   30 2   
    41   19   36 1   
    42   19   52 1   
    43   20   21 1   
    44   20   53 1   
    45   20   54 1   
    46   21   22 1   
    47   21   55 1   
    48   21   56 1   
    49   22   24 1   
    50   22   57 1   
    51   22   58 1   
    52   23   29 1   
    53   23   59 1   
    54   23   60 1   
    55   24   33 1   
    56   24   61 1   
    57   24   62 1   
    58   25   30 1   
    59   25   34 1   
    60   25   63 1   
    61   25   64 1   
    62   26   28 1   
    63   26   34 1   
    64   26   65 1   
    65   26   71 1   
    66   27   34 1   
    67   28   33 1   
    68   30   32 1   
    69   31   32 ar  
    70   31   36 1   
    71   33   66 1   
    72   34   67 1   
    73   36   68 1   
@<TRIPOS>SUBSTRUCTURE
     1 LSW         1 TEMP              0 ****  ****    0 ROOT
