@<TRIPOS>MOLECULE
LSW
   71    73     1     0     0
SMALL
bcc


@<TRIPOS>ATOM
      1 C           0.5590    1.4610   -0.4180 c         1 LSW      0.936600
      2 N           3.0950    1.6110   -0.6230 n4        1 LSW     -0.746000
      3 O           0.6130    2.6290   -0.9150 o         1 LSW     -0.781800
      4 CA          1.9550    0.7710   -0.0990 c3        1 LSW     -0.038500
      5 CB          2.0710    0.5450    1.3990 c3        1 LSW     -0.104400
      6 NAA        -0.1490    3.6330   -3.4520 n4        1 LSW     -0.846600
      7 OAC         0.8680    1.1820   -4.1350 o         1 LSW     -0.803800
      8 OAD         4.9560    0.2350   -2.3960 o         1 LSW     -0.435100
      9 OAF         1.7730    2.7070   -5.4790 o         1 LSW     -0.803800
     10 CAG         3.1960   -1.2760    5.9670 ca        1 LSW     -0.114000
     11 CAH         2.1520   -1.7270    5.1580 ca        1 LSW     -0.120500
     12 CAI         4.2390   -0.5380    5.4080 ca        1 LSW     -0.120500
     13 CAJ         0.6970   -4.5860   -4.0450 ca        1 LSW     -0.106000
     14 CAK         0.2140   -3.2670   -3.9460 ca        1 LSW     -0.127000
     15 CAL         2.1500   -1.4400    3.7940 ca        1 LSW     -0.123000
     16 CAM         4.2390   -0.2480    4.0440 ca        1 LSW     -0.123000
     17 CAN         1.8230   -4.8960   -4.7900 ca        1 LSW     -0.125000
     18 CAO         0.8520   -2.2150   -4.5850 ca        1 LSW     -0.141000
     19 CAP         3.8490   -2.5340   -6.6880 cc        1 LSW     -0.057100
     20 CAQ         0.5180    4.8710   -2.9810 c3        1 LSW      0.117800
     21 CAR         2.0170    4.9250   -3.2660 c3        1 LSW     -0.110400
     22 CAS         2.8690    4.2900   -2.1800 c3        1 LSW     -0.103400
     23 CAT         3.1940   -0.4040    1.7700 c3        1 LSW     -0.036100
     24 CAU         3.6490    3.0640   -2.6250 c3        1 LSW     -0.100400
     25 CAW         2.7780   -0.2270   -6.3650 c3        1 LSW     -0.001200
     26 NAX         3.2020   -0.1640   -3.8640 n4        1 LSW     -0.652800
     27 CBB         1.7800    1.5850   -4.9220 c         1 LSW      0.894600
     28 CBC         3.8370    0.5860   -2.7570 c         1 LSW      0.524100
     29 CBD         3.1940   -0.6970    3.2300 ca        1 LSW     -0.104300
     30 CBE         2.9040   -1.6670   -6.1250 cd        1 LSW     -0.243400
     31 CBF         2.4790   -3.8410   -5.4460 ca        1 LSW     -0.052200
     32 CBG         2.0020   -2.4830   -5.3340 ca        1 LSW     -0.123800
     33 CBI         3.0570    1.7390   -2.1140 c3        1 LSW      0.043500
     34 CBJ         3.0120    0.6530   -5.1220 c3        1 LSW      0.011500
     35 OXT        -0.4460    0.7790   -0.1820 o         1 LSW     -0.781800
     36 NXZ         3.6180   -3.8360   -6.2630 na        1 LSW     -0.174400
     37 HN          2.9530    2.5570   -0.2320 hn        1 LSW      0.457300
     38 HA          1.9880   -0.2130   -0.6440 hx        1 LSW      0.080700
     39 HB          2.1820    1.5170    1.9470 hc        1 LSW      0.099200
     40 HBA         1.0820    0.1040    1.7220 hc        1 LSW      0.099200
     41 HNAA        0.1480    3.3920   -4.4140 hn        1 LSW      0.473800
     42 HNAB       -1.1610    3.7490   -3.4200 hn        1 LSW      0.473800
     43 HAG         3.1960   -1.5040    7.0430 ha        1 LSW      0.144000
     44 HAH         1.3290   -2.3110    5.5960 ha        1 LSW      0.142500
     45 HAI         5.0640   -0.1840    6.0430 ha        1 LSW      0.142500
     46 HAJ         0.1540   -5.3920   -3.5250 ha        1 LSW      0.150000
     47 HAK        -0.6990   -3.0760   -3.3600 ha        1 LSW      0.151000
     48 HAL         1.3270   -1.7990    3.1590 ha        1 LSW      0.129500
     49 HAM         5.0680    0.3310    3.6110 ha        1 LSW      0.129500
     50 HAN         2.1840   -5.9300   -4.8760 ha        1 LSW      0.150000
     51 HAO         0.4370   -1.1920   -4.5420 ha        1 LSW      0.162000
     52 HAP         4.6750   -2.3040   -7.3680 h4        1 LSW      0.181000
     53 HAQ         0.3260    4.9500   -1.8700 hx        1 LSW      0.100700
     54 HAQA        0.0210    5.7400   -3.5030 hx        1 LSW      0.100700
     55 HAR         2.2440    4.4830   -4.2760 hc        1 LSW      0.092700
     56 HARA        2.2820    6.0160   -3.3300 hc        1 LSW      0.092700
     57 HAS         3.6190    5.0550   -1.8360 hc        1 LSW      0.079700
     58 HASA        2.2110    4.0630   -1.2960 hc        1 LSW      0.079700
     59 HAT         4.1870    0.0320    1.4760 hc        1 LSW      0.035200
     60 HATA        3.0730   -1.3670    1.2040 hc        1 LSW      0.035200
     61 HAU         4.7160    3.1480   -2.2850 hc        1 LSW      0.085700
     62 HAUA        3.6550    3.0040   -3.7500 hc        1 LSW      0.085700
     63 HAW         3.5070    0.1040   -7.1540 hc        1 LSW      0.091200
     64 HAWA        1.7420   -0.0100   -6.7530 hc        1 LSW      0.091200
     65 HNAX        3.7570   -1.0060   -4.0900 hn        1 LSW      0.492300
     66 HBI         1.9480    1.7100   -2.4180 hx        1 LSW      0.206700
     67 HBJ         3.9400    1.2740   -5.2670 hx        1 LSW      0.097700
     68 HNXZ        4.0820   -4.6420   -6.5930 hn        1 LSW      0.316700
     69 H2          3.9960    1.2440   -0.3050 hn        1 LSW      0.457300
     70 HAA3        0.1010    2.8280   -2.8400 hn        1 LSW      0.473800
     71 HAX2        2.2410   -0.4620   -3.5780 hn        1 LSW      0.492300
@<TRIPOS>BOND
     1    1    3 1   
     2    1    4 1   
     3    1   35 1   
     4    2    4 1   
     5    2   33 1   
     6    2   37 1   
     7    2   69 1   
     8    4    5 1   
     9    4   38 1   
    10    5   23 1   
    11    5   39 1   
    12    5   40 1   
    13    6   20 1   
    14    6   41 1   
    15    6   42 1   
    16    6   70 1   
    17    7   27 1   
    18    8   28 2   
    19    9   27 1   
    20   10   11 ar  
    21   10   12 ar  
    22   10   43 1   
    23   11   15 ar  
    24   11   44 1   
    25   12   16 ar  
    26   12   45 1   
    27   13   14 ar  
    28   13   17 ar  
    29   13   46 1   
    30   14   18 ar  
    31   14   47 1   
    32   15   29 ar  
    33   15   48 1   
    34   16   29 ar  
    35   16   49 1   
    36   17   31 ar  
    37   17   50 1   
    38   18   32 ar  
    39   18   51 1   
    40   19   30 2   
    41   19   36 1   
    42   19   52 1   
    43   20   21 1   
    44   20   53 1   
    45   20   54 1   
    46   21   22 1   
    47   21   55 1   
    48   21   56 1   
    49   22   24 1   
    50   22   57 1   
    51   22   58 1   
    52   23   29 1   
    53   23   59 1   
    54   23   60 1   
    55   24   33 1   
    56   24   61 1   
    57   24   62 1   
    58   25   30 1   
    59   25   34 1   
    60   25   63 1   
    61   25   64 1   
    62   26   28 1   
    63   26   34 1   
    64   26   65 1   
    65   26   71 1   
    66   27   34 1   
    67   28   33 1   
    68   30   32 1   
    69   31   32 ar  
    70   31   36 1   
    71   33   66 1   
    72   34   67 1   
    73   36   68 1   
@<TRIPOS>SUBSTRUCTURE
     1 LSW         1 TEMP              0 ****  ****    0 ROOT
