@<TRIPOS>MOLECULE
LSW
   68    70     1     0     0
SMALL
bcc


@<TRIPOS>ATOM
      1 C          -2.0850    2.6760   -1.7760 c         1 LSW      0.927600
      2 N          -1.6280    1.5720    0.4260 n3        1 LSW     -0.789200
      3 O          -3.1660    2.8780   -2.3960 o         1 LSW     -0.846800
      4 CA         -1.9140    1.3300   -0.9880 c3        1 LSW      0.050500
      5 CB         -3.1500    0.4470   -1.1830 c3        1 LSW     -0.068400
      6 NAA        -0.7990    7.8600    2.6800 n3        1 LSW     -0.907800
      7 OAC         3.9600    1.9630    2.6610 o         1 LSW     -0.838800
      8 OAD         0.1120   -0.3750    1.4260 o         1 LSW     -0.699100
      9 OAF         4.4370   -0.0300    3.5550 o         1 LSW     -0.838800
     10 CAG        -6.3400   -3.4950   -1.0160 ca        1 LSW     -0.159000
     11 CAH        -5.4080   -3.5750   -2.0500 ca        1 LSW     -0.137500
     12 CAI        -6.1310   -2.6030    0.0350 ca        1 LSW     -0.137500
     13 CAJ         4.7610   -4.0990   -3.3740 ca        1 LSW     -0.138000
     14 CAK         5.6880   -3.2170   -2.7990 ca        1 LSW     -0.180000
     15 CAL        -4.2700   -2.7690   -2.0320 ca        1 LSW     -0.131000
     16 CAM        -4.9950   -1.7970    0.0550 ca        1 LSW     -0.131000
     17 CAN         3.4540   -4.1840   -2.9110 ca        1 LSW     -0.156000
     18 CAO         5.3320   -2.3860   -1.7430 ca        1 LSW     -0.081000
     19 CAP         2.0240   -2.2300   -0.1830 cc        1 LSW     -0.100100
     20 CAQ        -1.2370    6.6460    2.0270 c3        1 LSW      0.135800
     21 CAR        -0.3920    5.4010    2.2900 c3        1 LSW     -0.113400
     22 CAS        -0.9090    4.2220    1.4950 c3        1 LSW     -0.085400
     23 CAT        -2.8320   -1.0190   -0.9420 c3        1 LSW     -0.062100
     24 CAU        -0.1420    2.9610    1.8360 c3        1 LSW     -0.062400
     25 CAW         3.9100   -0.7000    0.6700 c3        1 LSW     -0.012200
     26 NAX         2.0040    0.8730    1.0170 n         1 LSW     -0.508900
     27 CBB         3.8510    0.7070    2.7150 c         1 LSW      0.904600
     28 CBC         0.6420    0.7190    1.0990 c         1 LSW      0.615100
     29 CBD        -4.0510   -1.8720   -0.9780 ca        1 LSW     -0.036300
     30 CBE         3.3210   -1.7280   -0.1970 cd        1 LSW     -0.109400
     31 CBF         3.0800   -3.3530   -1.8470 ca        1 LSW     -0.059200
     32 CBG         4.0310   -2.4330   -1.2520 ca        1 LSW     -0.081800
     33 CBI        -0.2470    1.9310    0.6980 c3        1 LSW      0.103500
     34 CBJ         2.9430   -0.0260    1.6580 c3        1 LSW     -0.047300
     35 OXT        -1.1010    3.4690   -1.7940 o         1 LSW     -0.846800
     36 NXZ         1.8780   -3.2540   -1.1380 na        1 LSW     -0.197400
     37 HN         -1.8780    0.7640    0.9710 hn        1 LSW      0.347800
     38 HA         -1.0430    0.8030   -1.4880 h1        1 LSW      0.010700
     39 HB         -3.9790    0.7780   -0.5060 hc        1 LSW      0.058700
     40 HBA        -3.5100    0.5940   -2.2360 hc        1 LSW      0.058700
     41 HNAA       -0.7150    7.7060    3.6680 hn        1 LSW      0.328800
     42 HNAB        0.1050    8.1260    2.3370 hn        1 LSW      0.328800
     43 HAG        -7.2360   -4.1300   -1.0310 ha        1 LSW      0.109000
     44 HAH        -5.5700   -4.2730   -2.8830 ha        1 LSW      0.113000
     45 HAI        -6.8650   -2.5330    0.8500 ha        1 LSW      0.113000
     46 HAJ         5.0770   -4.7360   -4.2130 ha        1 LSW      0.104000
     47 HAK         6.7120   -3.1840   -3.1970 ha        1 LSW      0.108000
     48 HAL        -3.5410   -2.8300   -2.8530 ha        1 LSW      0.136000
     49 HAM        -4.8310   -1.0870    0.8810 ha        1 LSW      0.136000
     50 HAN         2.7360   -4.8760   -3.3670 ha        1 LSW      0.114000
     51 HAO         6.0600   -1.6950   -1.2940 ha        1 LSW      0.134000
     52 HAP         1.1810   -1.9380    0.4610 h4        1 LSW      0.218000
     53 HAQ        -2.2940    6.4430    2.3600 h1        1 LSW      0.055200
     54 HAQA       -1.2650    6.8360    0.9160 h1        1 LSW      0.055200
     55 HAR         0.6770    5.5990    2.0100 hc        1 LSW      0.028700
     56 HARA       -0.4070    5.1570    3.3850 hc        1 LSW      0.028700
     57 HAS        -1.9990    4.0690    1.7100 hc        1 LSW      0.074700
     58 HASA       -0.8270    4.4260    0.3890 hc        1 LSW      0.074700
     59 HAT        -2.0990   -1.3660   -1.7200 hc        1 LSW      0.053200
     60 HATA       -2.3300   -1.1430    0.0570 hc        1 LSW      0.053200
     61 HAU         0.9420    3.2080    1.9910 hc        1 LSW      0.037700
     62 HAUA       -0.5270    2.5230    2.7920 hc        1 LSW      0.037700
     63 HAW         4.7180   -1.1750    1.2980 hc        1 LSW      0.057700
     64 HAWA        4.4010    0.0820    0.0300 hc        1 LSW      0.057700
     65 HNAX        2.3510    1.8090    0.9420 hn        1 LSW      0.319500
     66 HBI         0.1790    2.4140   -0.2390 h1        1 LSW      0.122700
     67 HBJ         2.3680   -0.8280    2.2020 h1        1 LSW      0.068700
     68 HNXZ        1.0070   -3.5300   -1.5060 hn        1 LSW      0.280700
@<TRIPOS>BOND
     1    1    3 1   
     2    1    4 1   
     3    1   35 1   
     4    2    4 1   
     5    2   33 1   
     6    2   37 1   
     7    4    5 1   
     8    4   38 1   
     9    5   23 1   
    10    5   39 1   
    11    5   40 1   
    12    6   20 1   
    13    6   41 1   
    14    6   42 1   
    15    7   27 1   
    16    8   28 2   
    17    9   27 1   
    18   10   11 ar  
    19   10   12 ar  
    20   10   43 1   
    21   11   15 ar  
    22   11   44 1   
    23   12   16 ar  
    24   12   45 1   
    25   13   14 ar  
    26   13   17 ar  
    27   13   46 1   
    28   14   18 ar  
    29   14   47 1   
    30   15   29 ar  
    31   15   48 1   
    32   16   29 ar  
    33   16   49 1   
    34   17   31 ar  
    35   17   50 1   
    36   18   32 ar  
    37   18   51 1   
    38   19   30 2   
    39   19   36 1   
    40   19   52 1   
    41   20   21 1   
    42   20   53 1   
    43   20   54 1   
    44   21   22 1   
    45   21   55 1   
    46   21   56 1   
    47   22   24 1   
    48   22   57 1   
    49   22   58 1   
    50   23   29 1   
    51   23   59 1   
    52   23   60 1   
    53   24   33 1   
    54   24   61 1   
    55   24   62 1   
    56   25   30 1   
    57   25   34 1   
    58   25   63 1   
    59   25   64 1   
    60   26   28 1   
    61   26   34 1   
    62   26   65 1   
    63   27   34 1   
    64   28   33 1   
    65   30   32 1   
    66   31   32 ar  
    67   31   36 1   
    68   33   66 1   
    69   34   67 1   
    70   36   68 1   
@<TRIPOS>SUBSTRUCTURE
     1 LSW         1 TEMP              0 ****  ****    0 ROOT
