@<TRIPOS>MOLECULE
LSW
   71    73     1     0     0
SMALL
bcc


@<TRIPOS>ATOM
      1 C           0.5590    2.0850   -0.1300 c         1 LSW      0.936600
      2 N           3.0070    1.5300   -0.5700 ny        1 LSW     -0.746000
      3 O           0.8660    3.1640   -0.7260 o         1 LSW     -0.781300
      4 CA          1.7470    1.0580    0.1130 c3        1 LSW     -0.038500
      5 CB          1.9560    0.8790    1.6080 c3        1 LSW     -0.104400
      6 NAA         0.1150    4.2040   -3.2490 nz        1 LSW     -0.846600
      7 OAC         0.4060    1.5460   -3.8380 o         1 LSW     -0.802300
      8 OAD         4.2360   -0.3920   -2.3780 o         1 LSW     -0.431100
      9 OAF         1.4860    2.7110   -5.3980 o         1 LSW     -0.802300
     10 CAG         3.0270   -0.9670    6.1790 ca        1 LSW     -0.114000
     11 CAH         1.8230   -1.1550    5.4990 ca        1 LSW     -0.120000
     12 CAI         4.1640   -0.5650    5.4790 ca        1 LSW     -0.120000
     13 CAJ         2.2530   -5.5360   -4.6770 ca        1 LSW     -0.107000
     14 CAK         1.3080   -4.6190   -4.1770 ca        1 LSW     -0.125000
     15 CAL         1.7550   -0.9410    4.1230 ca        1 LSW     -0.123000
     16 CAM         4.0990   -0.3490    4.1030 ca        1 LSW     -0.123000
     17 CAN         3.1710   -5.1760   -5.6510 ca        1 LSW     -0.118000
     18 CAO         1.2650   -3.3100   -4.6300 ca        1 LSW     -0.143000
     19 CAP         3.4680   -1.8930   -7.2070 cc        1 LSW     -0.051100
     20 CAQ         1.1350    5.2350   -2.9360 c3        1 LSW      0.118800
     21 CAR         2.5540    4.8650   -3.3610 c3        1 LSW     -0.110400
     22 CAS         3.3260    4.0910   -2.3060 c3        1 LSW     -0.103400
     23 CAT         2.8210   -0.3200    1.9460 c3        1 LSW     -0.036100
     24 CAU         3.7130    2.6790   -2.7160 c3        1 LSW     -0.099400
     25 CAW         1.6870   -0.4040   -6.1180 c3        1 LSW     -0.009200
     26 NAX         2.3130   -0.3530   -3.6840 ny        1 LSW     -0.657800
     27 CBB         1.2900    1.6620   -4.7420 c         1 LSW      0.895600
     28 CBC         3.2260    0.2370   -2.6780 c         1 LSW      0.524100
     29 CBD         2.8940   -0.5340    3.4180 ca        1 LSW     -0.104300
     30 CBE         2.4300   -1.6530   -6.2990 cd        1 LSW     -0.232400
     31 CBF         3.1360   -3.8530   -6.1230 ca        1 LSW     -0.045200
     32 CBG         2.1850   -2.9000   -5.6000 ca        1 LSW     -0.118800
     33 CBI         2.8490    1.5890   -2.0580 c3        1 LSW      0.042500
     34 CBJ         2.2350    0.4480   -4.9670 c3        1 LSW      0.010500
     35 OXT        -0.5580    1.7200    0.2570 o         1 LSW     -0.781300
     36 NXZ         3.9110   -3.2050   -7.0920 na        1 LSW     -0.172400
     37 HN          3.1630    2.4970   -0.2420 hn        1 LSW      0.457300
     38 HA          1.4590    0.0770   -0.3580 hx        1 LSW      0.079700
     39 HB          2.3790    1.8090    2.0700 hc        1 LSW      0.099700
     40 HBA         0.9260    0.7390    2.0490 hc        1 LSW      0.099700
     41 HNAA        0.2100    3.3900   -2.6050 hn        1 LSW      0.473467
     42 HNAB       -0.8200    4.5910   -3.1300 hn        1 LSW      0.473467
     43 HAG         3.0790   -1.1370    7.2650 ha        1 LSW      0.144000
     44 HAH         0.9240   -1.4740    6.0480 ha        1 LSW      0.142500
     45 HAI         5.1160   -0.4180    6.0120 ha        1 LSW      0.142500
     46 HAJ         2.2500   -6.5680   -4.2920 ha        1 LSW      0.150000
     47 HAK         0.5830   -4.9630   -3.4230 ha        1 LSW      0.145000
     48 HAL         0.8040   -1.0930    3.5900 ha        1 LSW      0.129500
     49 HAM         5.0020   -0.0360    3.5580 ha        1 LSW      0.129500
     50 HAN         3.8940   -5.9020   -6.0500 ha        1 LSW      0.151000
     51 HAO         0.4890   -2.6180   -4.2720 ha        1 LSW      0.125000
     52 HAP         3.9190   -1.2100   -7.9330 h4        1 LSW      0.181000
     53 HAQ         1.0920    5.4160   -1.8210 hx        1 LSW      0.100700
     54 HAQA        0.8320    6.1800   -3.4740 hx        1 LSW      0.100700
     55 HAR         2.5430    4.3200   -4.3450 hc        1 LSW      0.091700
     56 HARA        3.0870    5.8390   -3.5440 hc        1 LSW      0.091700
     57 HAS         2.7320    4.0950   -1.3510 hc        1 LSW      0.080200
     58 HASA        4.2800    4.6490   -2.0950 hc        1 LSW      0.080200
     59 HAT         2.3900   -1.2400    1.4640 hc        1 LSW      0.035200
     60 HATA        3.8570   -0.1840    1.5360 hc        1 LSW      0.035200
     61 HAU         3.5940    2.5610   -3.8300 hc        1 LSW      0.084700
     62 HAUA        4.7940    2.4950   -2.4710 hc        1 LSW      0.084700
     63 HAW         0.5990   -0.6240   -5.9350 hc        1 LSW      0.097200
     64 HAWA        1.7500    0.2430   -7.0370 hc        1 LSW      0.097200
     65 HNAX        2.6070   -1.3230   -3.9050 hn        1 LSW      0.490800
     66 HBI         1.7470    1.8460   -2.2620 hx        1 LSW      0.206700
     67 HBJ         3.2760    0.7990   -5.2150 hx        1 LSW      0.100700
     68 HNXZ        4.5830   -3.6430   -7.6680 hn        1 LSW      0.316700
     69 H2          3.8070    0.9490   -0.3050 hn        1 LSW      0.457300
     70 HAA3        0.2290    3.8470   -4.2150 hn        1 LSW      0.473467
     71 HAX2        1.3460   -0.3580   -3.2980 hn        1 LSW      0.490800
@<TRIPOS>BOND
     1    1    3 1   
     2    1    4 1   
     3    1   35 1   
     4    2    4 1   
     5    2   33 1   
     6    2   37 1   
     7    2   69 1   
     8    4    5 1   
     9    4   38 1   
    10    5   23 1   
    11    5   39 1   
    12    5   40 1   
    13    6   20 1   
    14    6   41 1   
    15    6   42 1   
    16    6   70 1   
    17    7   27 1   
    18    8   28 2   
    19    9   27 1   
    20   10   11 ar  
    21   10   12 ar  
    22   10   43 1   
    23   11   15 ar  
    24   11   44 1   
    25   12   16 ar  
    26   12   45 1   
    27   13   14 ar  
    28   13   17 ar  
    29   13   46 1   
    30   14   18 ar  
    31   14   47 1   
    32   15   29 ar  
    33   15   48 1   
    34   16   29 ar  
    35   16   49 1   
    36   17   31 ar  
    37   17   50 1   
    38   18   32 ar  
    39   18   51 1   
    40   19   30 2   
    41   19   36 1   
    42   19   52 1   
    43   20   21 1   
    44   20   53 1   
    45   20   54 1   
    46   21   22 1   
    47   21   55 1   
    48   21   56 1   
    49   22   24 1   
    50   22   57 1   
    51   22   58 1   
    52   23   29 1   
    53   23   59 1   
    54   23   60 1   
    55   24   33 1   
    56   24   61 1   
    57   24   62 1   
    58   25   30 1   
    59   25   34 1   
    60   25   63 1   
    61   25   64 1   
    62   26   28 1   
    63   26   34 1   
    64   26   65 1   
    65   26   71 1   
    66   27   34 1   
    67   28   33 1   
    68   30   32 1   
    69   31   32 ar  
    70   31   36 1   
    71   33   66 1   
    72   34   67 1   
    73   36   68 1   
@<TRIPOS>SUBSTRUCTURE
     1 LSW         1 TEMP              0 ****  ****    0 ROOT
