@<TRIPOS>MOLECULE
LSX
   37    36     1     0     0
SMALL
bcc


@<TRIPOS>ATOM
      1 C2          0.2970   -0.4500    0.0470 ca        1 LSX     -0.096500
      2 C3          1.6850   -0.2930    0.2030 ca        1 LSX     -0.039300
      3 C4          2.1640    0.1390    1.4530 ca        1 LSX     -0.096500
      4 C6         -0.0840    0.2440    2.3210 ca        1 LSX      0.088100
      5 C7          2.5880   -0.6320   -0.9200 c3        1 LSX     -0.251600
      6 C14         4.1850   -3.7630   -0.7310 c1        1 LSX      0.514600
      7 C17         6.3390   -1.9950   -4.2590 c3        1 LSX      0.083100
      8 O15         4.2710   -4.8660   -0.2690 o         1 LSX     -0.447500
      9 N16         5.1800   -2.3750   -5.0640 n3        1 LSX     -0.553700
     10 O18         4.5470   -1.2940   -5.5460 oh        1 LSX     -0.463300
     11 C12         3.8570   -1.3300   -0.4720 c3        1 LSX      0.031800
     12 P8          3.0180    0.7610   -1.8620 p5        1 LSX      1.337600
     13 O11         4.0690    1.5590   -1.1900 o         1 LSX     -0.850000
     14 O10         3.9240    0.0330   -3.0470 oh        1 LSX     -0.812400
     15 C5          1.2980    0.4110    2.5050 ca        1 LSX     -0.178500
     16 C1         -0.5870   -0.1820    1.0890 ca        1 LSX     -0.178500
     17 O19        -0.8670    0.5070    3.4380 os        1 LSX     -0.341900
     18 C20        -2.2600    0.6250    3.1920 c3        1 LSX      0.119700
     19 H1         -0.1030   -0.7680   -0.9290 ha        1 LSX      0.144000
     20 H2          3.2450    0.2960    1.5970 ha        1 LSX      0.144000
     21 H3          2.0290   -1.3110   -1.6220 hc        1 LSX      0.086700
     22 H5          4.7840    0.4340   -3.1110 ho        1 LSX      0.425000
     23 H6          4.2680   -2.4370   -2.3450 ha        1 LSX      0.205000
     24 H7          7.0970   -1.3810   -4.8110 h1        1 LSX      0.040700
     25 H8          5.9730   -1.3970   -3.3820 h1        1 LSX      0.040700
     26 H9          6.8240   -2.9360   -3.8930 h1        1 LSX      0.040700
     27 H10         3.9410   -1.0010   -4.8300 ho        1 LSX      0.470000
     28 H11         3.8110   -1.5870    0.6220 hc        1 LSX      0.051700
     29 H12         4.7250   -0.6230   -0.6120 hc        1 LSX      0.051700
     30 H14         1.6780    0.7560    3.4760 ha        1 LSX      0.127500
     31 H15        -1.6660   -0.3040    0.9290 ha        1 LSX      0.127500
     32 H16        -2.6760    0.9780    4.1700 h1        1 LSX      0.033367
     33 H17        -2.6950   -0.3690    2.9220 h1        1 LSX      0.033367
     34 H18        -2.4660    1.3690    2.3850 h1        1 LSX      0.033367
     35 O9          1.8110    1.3060   -2.5110 o         1 LSX     -0.850000
     36 C13         4.1310   -2.5650   -1.2540 c2        1 LSX     -0.404300
     37 H161        5.5270   -2.8680   -5.8890 hn        1 LSX      0.334800
@<TRIPOS>BOND
     1    1    2 ar  
     2    1   16 ar  
     3    1   19 1   
     4    2    3 ar  
     5    2    5 1   
     6    3   15 ar  
     7    3   20 1   
     8    4   15 ar  
     9    4   16 ar  
    10    4   17 1   
    11    5   11 1   
    12    5   12 1   
    13    5   21 1   
    14    6    8 2   
    15    6   36 2   
    16    7    9 1   
    17    7   24 1   
    18    7   25 1   
    19    7   26 1   
    20    9   10 1   
    21    9   37 1   
    22   10   27 1   
    23   11   28 1   
    24   11   29 1   
    25   11   36 1   
    26   12   13 1   
    27   12   14 1   
    28   12   35 1   
    29   14   22 1   
    30   15   30 1   
    31   16   31 1   
    32   17   18 1   
    33   18   32 1   
    34   18   33 1   
    35   18   34 1   
    36   23   36 1   
@<TRIPOS>SUBSTRUCTURE
     1 LSX         1 TEMP              0 ****  ****    0 ROOT
