@<TRIPOS>MOLECULE
LT1
   21    21     1     0     0
SMALL
bcc


@<TRIPOS>ATOM
      1 C1         -0.0010   -0.0690    0.0090 c3        1 LT1      0.037000
      2 C2          1.5090   -0.0900   -0.0090 c3        1 LT1     -0.089400
      3 C3          2.0530    0.1290    1.3920 c3        1 LT1     -0.037100
      4 C4          3.5400    0.0810    1.4140 ca        1 LT1     -0.081300
      5 C5          4.2060   -1.1440    1.2800 ca        1 LT1     -0.126000
      6 C6          5.5980   -1.1940    1.3100 ca        1 LT1     -0.127500
      7 C7          6.3380   -0.0220    1.4730 ca        1 LT1     -0.130000
      8 C8          5.6800    1.2000    1.6070 ca        1 LT1     -0.127500
      9 C9          4.2870    1.2530    1.5780 ca        1 LT1     -0.126000
     10 CL1        -0.6690   -0.3240   -1.5950 cl        1 LT1     -0.196400
     11 H1         -0.3860    0.9180    0.3610 h1        1 LT1      0.063200
     12 H1A        -0.4080   -0.8830    0.6560 h1        1 LT1      0.063200
     13 H2          1.8770   -1.0730   -0.4050 hc        1 LT1      0.061200
     14 H2A         1.8960    0.7100   -0.6940 hc        1 LT1      0.061200
     15 H3          1.6930    1.1190    1.7800 hc        1 LT1      0.048700
     16 H3A         1.6460   -0.6640    2.0770 hc        1 LT1      0.048700
     17 H5          3.6240   -2.0680    1.1520 ha        1 LT1      0.131000
     18 H6          6.1140   -2.1600    1.2040 ha        1 LT1      0.132000
     19 H7          7.4360   -0.0630    1.4960 ha        1 LT1      0.132000
     20 H8          6.2600    2.1260    1.7360 ha        1 LT1      0.132000
     21 H9          3.7730    2.2200    1.6840 ha        1 LT1      0.131000
@<TRIPOS>BOND
     1    1    2 1   
     2    1   10 1   
     3    1   11 1   
     4    1   12 1   
     5    2    3 1   
     6    2   13 1   
     7    2   14 1   
     8    3    4 1   
     9    3   15 1   
    10    3   16 1   
    11    4    5 ar  
    12    4    9 ar  
    13    5    6 ar  
    14    5   17 1   
    15    6    7 ar  
    16    6   18 1   
    17    7    8 ar  
    18    7   19 1   
    19    8    9 ar  
    20    8   20 1   
    21    9   21 1   
@<TRIPOS>SUBSTRUCTURE
     1 LT1         1 TEMP              0 ****  ****    0 ROOT
