@<TRIPOS>MOLECULE
LT1
   21    19     1     0     0
SMALL
bcc


@<TRIPOS>ATOM
      1 C1         -3.1330   -0.0010   -0.9170 c3        1 LT1     -0.115000
      2 C2         -1.6200   -0.0010   -0.9170 c3        1 LT1     -0.168000
      3 C3         -1.1160   -0.0010    0.5100 c3        1 LT1     -0.123000
      4 C4          0.3970   -0.0010    0.5100 c2        1 LT1     -0.074000
      5 C5          1.0900   -1.2000    0.5740 c2        1 LT1     -0.125000
      6 C6          2.4760   -1.2000    0.5740 c1        1 LT1     -0.128000
      7 C7          3.1690   -0.0020    0.5100 c1        1 LT1     -0.128500
      8 C8          2.4760    1.1970    0.4460 c1        1 LT1     -0.128500
      9 C9          1.0900    1.1980    0.4460 c1        1 LT1     -0.127000
     10 CL1        -3.7150    0.0560   -2.5600 cl        1 LT1     -0.123000
     11 H1         -3.4590   -0.8130   -0.4850 h1        1 LT1      0.102500
     12 H1A        -3.4590    0.7800   -0.4290 h1        1 LT1      0.102500
     13 H2         -1.2950   -0.7980   -1.3770 hc        1 LT1      0.100500
     14 H2A        -1.2950    0.7960   -1.3770 hc        1 LT1      0.100500
     15 H3         -1.4410   -0.7980    0.9700 hc        1 LT1      0.088000
     16 H3A        -1.4410    0.7960    0.9700 hc        1 LT1      0.088000
     17 H5          0.6010   -2.0440    0.6190 ha        1 LT1      0.131000
     18 H6          2.9630   -2.0440    0.6190 ha        1 LT1      0.132000
     19 H7          4.1450   -0.0020    0.5100 ha        1 LT1      0.132000
     20 H8          2.9650    2.0410    0.4010 ha        1 LT1      0.132000
     21 H9          0.6030    2.0420    0.4010 ha        1 LT1      0.131000
@<TRIPOS>BOND
     1    1    2 1   
     2    1   10 1   
     3    1   11 1   
     4    1   12 1   
     5    2    3 1   
     6    2   13 1   
     7    2   14 1   
     8    3    4 1   
     9    3   15 1   
    10    3   16 1   
    11    4    5 1   
    12    4    9 1   
    13    5    6 1   
    14    5   17 1   
    15    6   18 1   
    16    7    8 1   
    17    7   19 1   
    18    8   20 1   
    19    9   21 1   
@<TRIPOS>SUBSTRUCTURE
     1 LT1         1 TEMP              0 ****  ****    0 ROOT
