@<TRIPOS>MOLECULE
LT1
   21    21     1     0     0
SMALL
bcc


@<TRIPOS>ATOM
      1 C1         -0.0020   -0.1050    0.0180 c3        1 LT1      0.037000
      2 C2          1.5080   -0.1160   -0.0030 c3        1 LT1     -0.089400
      3 C3          2.0530    0.1290    1.3930 c3        1 LT1     -0.037100
      4 C4          3.5410    0.0920    1.4110 ca        1 LT1     -0.081300
      5 C5          4.2150   -1.1310    1.2990 ca        1 LT1     -0.126000
      6 C6          5.6070   -1.1710    1.3260 ca        1 LT1     -0.127500
      7 C7          6.3390    0.0080    1.4650 ca        1 LT1     -0.130000
      8 C8          5.6740    1.2280    1.5780 ca        1 LT1     -0.127500
      9 C9          4.2800    1.2710    1.5510 ca        1 LT1     -0.126000
     10 Cl1        -0.6730   -0.3910   -1.5790 cl        1 LT1     -0.196400
     11 H1         -0.3940    0.8840    0.3550 h1        1 LT1      0.063200
     12 H1A        -0.4020   -0.9110    0.6800 h1        1 LT1      0.063200
     13 H2          1.8810   -1.1040   -0.3840 hc        1 LT1      0.061200
     14 H2A         1.8870    0.6750   -0.7020 hc        1 LT1      0.061200
     15 H3          1.6880    1.1240    1.7650 hc        1 LT1      0.048700
     16 H3A         1.6540   -0.6550    2.0920 hc        1 LT1      0.048700
     17 H5          3.6380   -2.0610    1.1890 ha        1 LT1      0.131000
     18 H6          6.1290   -2.1350    1.2370 ha        1 LT1      0.132000
     19 H7          7.4380   -0.0250    1.4860 ha        1 LT1      0.132000
     20 H8          6.2480    2.1600    1.6880 ha        1 LT1      0.132000
     21 H9          3.7600    2.2370    1.6410 ha        1 LT1      0.131000
@<TRIPOS>BOND
     1    1    2 1   
     2    1   10 1   
     3    1   11 1   
     4    1   12 1   
     5    2    3 1   
     6    2   13 1   
     7    2   14 1   
     8    3    4 1   
     9    3   15 1   
    10    3   16 1   
    11    4    5 ar  
    12    4    9 ar  
    13    5    6 ar  
    14    5   17 1   
    15    6    7 ar  
    16    6   18 1   
    17    7    8 ar  
    18    7   19 1   
    19    8    9 ar  
    20    8   20 1   
    21    9   21 1   
@<TRIPOS>SUBSTRUCTURE
     1 LT1         1 TEMP              0 ****  ****    0 ROOT
