@<TRIPOS>MOLECULE
LT1
   21    21     1     0     0
SMALL
bcc


@<TRIPOS>ATOM
      1 C1         -2.6000    0.0620   -0.7090 c3        1 LT1      0.037000
      2 C2         -1.2400    0.0890   -0.0540 c3        1 LT1     -0.089400
      3 C3         -0.1550   -0.1390   -1.0920 c3        1 LT1     -0.037100
      4 C4          1.2020   -0.0850   -0.4830 ca        1 LT1     -0.081300
      5 C5          1.7490    1.1430   -0.0920 ca        1 LT1     -0.126000
      6 C6          3.0230    1.1990    0.4690 ca        1 LT1     -0.127500
      7 C7          3.7630    0.0290    0.6450 ca        1 LT1     -0.130000
      8 C8          3.2240   -1.1970    0.2570 ca        1 LT1     -0.127500
      9 C9          1.9490   -1.2550   -0.3050 ca        1 LT1     -0.126000
     10 CL1        -3.8840    0.3280    0.4580 cl        1 LT1     -0.196400
     11 H1         -2.6950    0.8690   -1.4750 h1        1 LT1      0.063200
     12 H1A        -2.8010   -0.9290   -1.1820 h1        1 LT1      0.063200
     13 H2         -1.0740    1.0780    0.4510 hc        1 LT1      0.061200
     14 H2A        -1.1790   -0.7030    0.7370 hc        1 LT1      0.061200
     15 H3         -0.3160   -1.1340   -1.5870 hc        1 LT1      0.048700
     16 H3A        -0.2330    0.6460   -1.8920 hc        1 LT1      0.048700
     17 H5          1.1670    2.0670   -0.2310 ha        1 LT1      0.131000
     18 H6          3.4460    2.1670    0.7740 ha        1 LT1      0.132000
     19 H7          4.7680    0.0740    1.0880 ha        1 LT1      0.132000
     20 H8          3.8040   -2.1210    0.3940 ha        1 LT1      0.132000
     21 H9          1.5290   -2.2250   -0.6100 ha        1 LT1      0.131000
@<TRIPOS>BOND
     1    1    2 1   
     2    1   10 1   
     3    1   11 1   
     4    1   12 1   
     5    2    3 1   
     6    2   13 1   
     7    2   14 1   
     8    3    4 1   
     9    3   15 1   
    10    3   16 1   
    11    4    5 ar  
    12    4    9 ar  
    13    5    6 ar  
    14    5   17 1   
    15    6    7 ar  
    16    6   18 1   
    17    7    8 ar  
    18    7   19 1   
    19    8    9 ar  
    20    8   20 1   
    21    9   21 1   
@<TRIPOS>SUBSTRUCTURE
     1 LT1         1 TEMP              0 ****  ****    0 ROOT
