@<TRIPOS>MOLECULE
LT2
   19    20     1     0     0
SMALL
bcc


@<TRIPOS>ATOM
      1 CAF         0.0070    0.0730   -0.0700 c3        1 LT2      0.174800
      2 NAG         1.4650    0.1710   -0.0670 nh        1 LT2     -0.716000
      3 CAH         1.9440    0.0530    1.2460 cc        1 LT2      0.174000
      4 CAD         3.2300    0.0090    1.6740 cd        1 LT2     -0.309200
      5 CAJ         3.5400   -0.0190    3.1020 c         1 LT2      0.487300
      6 OAA         4.6990   -0.0660    3.5250 o         1 LT2     -0.475100
      7 CAK         2.3800    0.0090    4.0850 c         1 LT2      0.460300
      8 OAB         2.5790    0.0270    5.3020 o         1 LT2     -0.456100
      9 CAE         1.0110    0.0150    3.5290 cd        1 LT2     -0.192200
     10 CAI         0.8160    0.0420    2.2080 cc        1 LT2     -0.096200
     11 CAL        -0.4690    0.0580    1.4170 c3        1 LT2      0.163300
     12 OAC        -1.2500   -1.1080    1.5860 oh        1 LT2     -0.582800
     13 HAF        -0.4010    0.9800   -0.5920 h1        1 LT2      0.071700
     14 HAFA       -0.3590   -0.8510   -0.5950 h1        1 LT2      0.071700
     15 HNAG        1.9450   -0.3530   -0.7650 hn        1 LT2      0.419800
     16 HAD         4.0890   -0.0010    0.9870 ha        1 LT2      0.165000
     17 HAE         0.1870   -0.0020    4.2590 ha        1 LT2      0.158000
     18 HAL        -1.0790    0.9690    1.6580 h1        1 LT2      0.068700
     19 HOAC       -1.4430   -1.1870    2.5290 ho        1 LT2      0.413000
@<TRIPOS>BOND
     1    1    2 1   
     2    1   11 1   
     3    1   13 1   
     4    1   14 1   
     5    2    3 1   
     6    2   15 1   
     7    3    4 2   
     8    3   10 1   
     9    4    5 1   
    10    4   16 1   
    11    5    6 2   
    12    5    7 1   
    13    7    8 2   
    14    7    9 1   
    15    9   10 2   
    16    9   17 1   
    17   10   11 1   
    18   11   12 1   
    19   11   18 1   
    20   12   19 1   
@<TRIPOS>SUBSTRUCTURE
     1 LT2         1 TEMP              0 ****  ****    0 ROOT
