@<TRIPOS>MOLECULE
LT2
   19    20     1     0     0
SMALL
bcc


@<TRIPOS>ATOM
      1 CAF         0.0190    0.0410   -0.0770 c3        1 LT2      0.174800
      2 NAG         1.4760    0.1530   -0.0700 nh        1 LT2     -0.716000
      3 CAH         1.9510    0.0570    1.2470 cc        1 LT2      0.174000
      4 CAD         3.2360    0.0310    1.6810 cd        1 LT2     -0.309200
      5 CAJ         3.5400    0.0250    3.1100 c         1 LT2      0.487300
      6 OAA         4.6980   -0.0030    3.5390 o         1 LT2     -0.475100
      7 CAK         2.3760    0.0540    4.0880 c         1 LT2      0.460300
      8 OAB         2.5700    0.0880    5.3060 o         1 LT2     -0.456100
      9 CAE         1.0100    0.0400    3.5270 cd        1 LT2     -0.192200
     10 CAI         0.8200    0.0470    2.2040 cc        1 LT2     -0.096200
     11 CAL        -0.4620    0.0400    1.4090 c3        1 LT2      0.163300
     12 OAC        -1.2330   -1.1300    1.5900 oh        1 LT2     -0.582800
     13 HAF        -0.3350   -0.8940   -0.5900 h1        1 LT2      0.071700
     14 HAFA       -0.3950    0.9360   -0.6120 h1        1 LT2      0.071700
     15 HNAG        1.9640   -0.3760   -0.7580 hn        1 LT2      0.419800
     16 HAD         4.0970    0.0210    0.9970 ha        1 LT2      0.165000
     17 HAE         0.1820    0.0240    4.2540 ha        1 LT2      0.158000
     18 HAL        -1.0830    0.9490    1.6350 h1        1 LT2      0.068700
     19 HOAC       -1.4290   -1.1980    2.5340 ho        1 LT2      0.413000
@<TRIPOS>BOND
     1    1    2 1   
     2    1   11 1   
     3    1   13 1   
     4    1   14 1   
     5    2    3 1   
     6    2   15 1   
     7    3    4 2   
     8    3   10 1   
     9    4    5 1   
    10    4   16 1   
    11    5    6 2   
    12    5    7 1   
    13    7    8 2   
    14    7    9 1   
    15    9   10 2   
    16    9   17 1   
    17   10   11 1   
    18   11   12 1   
    19   11   18 1   
    20   12   19 1   
@<TRIPOS>SUBSTRUCTURE
     1 LT2         1 TEMP              0 ****  ****    0 ROOT
