@<TRIPOS>MOLECULE
LT2
   19    19     1     0     0
SMALL
bcc


@<TRIPOS>ATOM
      1 CAF        -1.2320   -0.8280   -1.5970 c3        1 LT2     -0.057000
      2 NAG         0.2310   -0.8280   -1.5970 n3        1 LT2     -0.277000
      3 CAH         0.6590   -0.8280   -0.2460 c2        1 LT2      0.099000
      4 CAD         2.1220   -0.5430    0.0880 c1        1 LT2     -0.298000
      5 CAJ         2.4690    0.6030    1.0200 c1        1 LT2      0.230000
      6 OAA         3.6280    0.9360    1.1680 o         1 LT2     -0.238000
      7 CAK         1.3540    1.4220    1.6560 c2        1 LT2      0.202000
      8 OAB         1.6200    2.4340    2.2730 o         1 LT2     -0.217000
      9 CAE        -0.0940    1.0460    1.4020 c2        1 LT2     -0.173000
     10 CAI        -0.4160   -0.1810    0.5590 c2        1 LT2     -0.093000
     11 CAL        -1.6910   -0.2280   -0.2640 c3        1 LT2      0.051000
     12 OAC        -2.7540   -0.9510    0.3590 oh        1 LT2     -0.304000
     13 HAF        -1.5540   -0.2690   -2.3300 h1        1 LT2      0.110000
     14 HAFA       -1.5540   -1.7470   -1.6650 h1        1 LT2      0.110000
     15 HNAG        0.7670   -0.7390   -2.3300 hn        1 LT2      0.220000
     16 HAD         2.8200   -1.1590   -0.2080 ha        1 LT2      0.165000
     17 HAE        -0.8110    1.6430    1.6900 ha        1 LT2      0.158000
     18 HAL        -2.0890    0.6560   -0.3770 h1        1 LT2      0.103000
     19 HOAC       -3.4780   -0.4390    0.3980 ho        1 LT2      0.212000
@<TRIPOS>BOND
     1    1    2 1   
     2    1   11 1   
     3    1   13 1   
     4    1   14 1   
     5    2    3 1   
     6    2   15 1   
     7    3    4 1   
     8    3   10 1   
     9    4   16 1   
    10    5    6 1   
    11    5    7 1   
    12    7    8 1   
    13    7    9 1   
    14    9   10 1   
    15    9   17 1   
    16   10   11 1   
    17   11   12 1   
    18   11   18 1   
    19   12   19 1   
@<TRIPOS>SUBSTRUCTURE
     1 LT2         1 TEMP              0 ****  ****    0 ROOT
