@<TRIPOS>MOLECULE
LT2
   19    20     1     0     0
SMALL
bcc


@<TRIPOS>ATOM
      1 CAF         2.7490   -0.8170    0.2400 c3        1 LT2      0.137800
      2 NAG         1.6250   -1.7490    0.2170 nh        1 LT2     -0.711000
      3 CAH         0.4250   -1.0300    0.0920 cc        1 LT2      0.170000
      4 CAD        -0.8330   -1.5120   -0.0660 cd        1 LT2     -0.308200
      5 CAJ        -1.9800   -0.6060   -0.0870 c         1 LT2      0.485300
      6 OAA        -3.1380   -1.0130   -0.2250 o         1 LT2     -0.477100
      7 CAK        -1.7170    0.8840    0.0650 c         1 LT2      0.458300
      8 OAB        -2.6480    1.6930    0.0820 o         1 LT2     -0.456100
      9 CAE        -0.3120    1.3230    0.1920 cd        1 LT2     -0.172200
     10 CAI         0.6770    0.4250    0.2170 cc        1 LT2     -0.061200
     11 CAL         2.1630    0.6290    0.3580 c3        1 LT2      0.165300
     12 OAC         2.6220    1.4590   -0.6900 oh        1 LT2     -0.577800
     13 HAF         3.3790   -1.0590    1.1370 h1        1 LT2      0.060700
     14 HAFA        3.3820   -0.8940   -0.6850 h1        1 LT2      0.060700
     15 HNAG        1.7270   -2.5470   -0.3690 hn        1 LT2      0.417800
     16 HAD        -1.0530   -2.5830   -0.1790 ha        1 LT2      0.164000
     17 HAE        -0.1360    2.4090    0.2560 ha        1 LT2      0.168000
     18 HAL         2.4140    1.0770    1.3570 h1        1 LT2      0.066700
     19 HOAC        3.5540    1.6390   -0.5120 ho        1 LT2      0.410000
@<TRIPOS>BOND
     1    1    2 1   
     2    1   11 1   
     3    1   13 1   
     4    1   14 1   
     5    2    3 1   
     6    2   15 1   
     7    3    4 2   
     8    3   10 1   
     9    4    5 1   
    10    4   16 1   
    11    5    6 2   
    12    5    7 1   
    13    7    8 2   
    14    7    9 1   
    15    9   10 2   
    16    9   17 1   
    17   10   11 1   
    18   11   12 1   
    19   11   18 1   
    20   12   19 1   
@<TRIPOS>SUBSTRUCTURE
     1 LT2         1 TEMP              0 ****  ****    0 ROOT
