@<TRIPOS>MOLECULE
LT3
   29    31     1     0     0
SMALL
bcc


@<TRIPOS>ATOM
      1 C1         -0.0100    0.1130   -0.0210 c3        1 LT3     -0.012400
      2 N1         -1.6580   -0.9160    1.6960 n4        1 LT3     -0.822600
      3 C3          0.0770    1.4680    2.0060 c3        1 LT3     -0.103400
      4 C5          3.2760   -0.0250    1.6350 ca        1 LT3     -0.127300
      5 C6          4.2060   -0.0280    0.5780 ca        1 LT3     -0.067000
      6 C9          1.5010    0.0610   -0.0360 ca        1 LT3     -0.122300
      7 C2         -0.3890    1.5030    0.5380 c3        1 LT3     -0.105400
      8 C4          0.6850    0.0590    2.1850 c3        1 LT3     -0.019400
      9 C12        -0.2490   -0.8080    1.2460 c3        1 LT3      0.065500
     10 C10         1.9310    0.0260    1.3260 ca        1 LT3     -0.068300
     11 C7          3.7800    0.0120   -0.7450 ca        1 LT3     -0.110000
     12 C8          2.4130    0.0550   -1.0710 ca        1 LT3     -0.060000
     13 C11         3.7570   -0.0680    3.0830 c3        1 LT3      0.690200
     14 F1          3.1020   -0.9980    3.8570 f         1 LT3     -0.226967
     15 F3          5.0850   -0.3670    3.2370 f         1 LT3     -0.226967
     16 F2          3.5820    1.1130    3.7620 f         1 LT3     -0.226967
     17 H1         -0.5210   -0.1880   -0.9540 hc        1 LT3      0.102700
     18 HN1        -1.6990   -1.4350    2.5790 hn        1 LT3      0.461133
     19 HN1A       -2.2120   -1.4070    0.9880 hn        1 LT3      0.461133
     20 H3         -0.7680    1.6380    2.7160 hc        1 LT3      0.078200
     21 H3A         0.8470    2.2530    2.2080 hc        1 LT3      0.078200
     22 H6          5.2850   -0.0650    0.8120 ha        1 LT3      0.176000
     23 H2         -1.4860    1.6910    0.4540 hc        1 LT3      0.074700
     24 H2A         0.1340    2.3090   -0.0330 hc        1 LT3      0.074700
     25 H4          0.8080   -0.2900    3.2290 hc        1 LT3      0.115700
     26 H12         0.1440   -1.8510    1.0970 hx        1 LT3      0.130700
     27 H7          4.5270    0.0100   -1.5570 ha        1 LT3      0.167000
     28 H8          2.0930    0.0840   -2.1240 ha        1 LT3      0.160000
     29 H13        -2.0560    0.0200    1.8410 hn        1 LT3      0.461133
@<TRIPOS>BOND
     1    1    6 1   
     2    1    7 1   
     3    1    9 1   
     4    1   17 1   
     5    2    9 1   
     6    2   18 1   
     7    2   19 1   
     8    2   29 1   
     9    3    7 1   
    10    3    8 1   
    11    3   20 1   
    12    3   21 1   
    13    4    5 ar  
    14    4   10 ar  
    15    4   13 1   
    16    5   11 ar  
    17    5   22 1   
    18    6   10 ar  
    19    6   12 ar  
    20    7   23 1   
    21    7   24 1   
    22    8    9 1   
    23    8   10 1   
    24    8   25 1   
    25    9   26 1   
    26   11   12 ar  
    27   11   27 1   
    28   12   28 1   
    29   13   14 1   
    30   13   15 1   
    31   13   16 1   
@<TRIPOS>SUBSTRUCTURE
     1 LT3         1 TEMP              0 ****  ****    0 ROOT
