@<TRIPOS>MOLECULE
LT3
   28    30     1     0     0
SMALL
bcc


@<TRIPOS>ATOM
      1 C1          2.4900    0.7980    0.0770 c3        1 LT3     -0.021400
      2 N1          3.3940   -1.3060    1.2050 n3        1 LT3     -0.901800
      3 C3          1.7350   -1.0770   -1.2840 c3        1 LT3     -0.081400
      4 C5         -1.1720    0.4340    0.0830 ca        1 LT3     -0.152300
      5 C6         -1.6630    1.7540    0.0680 ca        1 LT3     -0.091000
      6 C9          1.0860    1.3550    0.0710 ca        1 LT3     -0.096300
      7 C2          2.6880    0.1330   -1.3040 c3        1 LT3     -0.084400
      8 C4          1.0560   -1.0070    0.1020 c3        1 LT3     -0.082400
      9 C12         2.2560   -0.4700    1.0010 c3        1 LT3      0.173500
     10 C10         0.1940    0.2330    0.0830 ca        1 LT3     -0.032300
     11 C7         -0.7920    2.8350    0.0550 ca        1 LT3     -0.135000
     12 C8          0.6010    2.6440    0.0570 ca        1 LT3     -0.085000
     13 C11        -2.1490   -0.7340    0.0880 c3        1 LT3      0.691200
     14 F1         -1.8890   -1.6980    1.0330 f         1 LT3     -0.239300
     15 F3         -3.4580   -0.3900    0.3240 f         1 LT3     -0.239300
     16 F2         -2.2010   -1.4350   -1.0940 f         1 LT3     -0.239300
     17 H1          3.2930    1.4880    0.3930 hc        1 LT3      0.089700
     18 HN1         3.1530   -2.1050    1.7570 hn        1 LT3      0.357800
     19 HN1A        3.8010   -1.6060    0.3410 hn        1 LT3      0.357800
     20 H3          0.9810   -1.0180   -2.1050 hc        1 LT3      0.052700
     21 H3A         2.2930   -2.0370   -1.3940 hc        1 LT3      0.052700
     22 H6         -2.7520    1.9210    0.0690 ha        1 LT3      0.151000
     23 H2          2.4330    0.8380   -2.1290 hc        1 LT3      0.052700
     24 H2A         3.7500   -0.1860   -1.4360 hc        1 LT3      0.052700
     25 H4          0.5590   -1.9360    0.4370 hc        1 LT3      0.088700
     26 H12         1.8720   -0.1580    2.0100 h1        1 LT3      0.077700
     27 H7         -1.1960    3.8580    0.0460 ha        1 LT3      0.141000
     28 H8          1.2790    3.5100    0.0500 ha        1 LT3      0.143000
@<TRIPOS>BOND
     1    1    6 1   
     2    1    7 1   
     3    1    9 1   
     4    1   17 1   
     5    2    9 1   
     6    2   18 1   
     7    2   19 1   
     8    3    7 1   
     9    3    8 1   
    10    3   20 1   
    11    3   21 1   
    12    4    5 ar  
    13    4   10 ar  
    14    4   13 1   
    15    5   11 ar  
    16    5   22 1   
    17    6   10 ar  
    18    6   12 ar  
    19    7   23 1   
    20    7   24 1   
    21    8    9 1   
    22    8   10 1   
    23    8   25 1   
    24    9   26 1   
    25   11   12 ar  
    26   11   27 1   
    27   12   28 1   
    28   13   14 1   
    29   13   15 1   
    30   13   16 1   
@<TRIPOS>SUBSTRUCTURE
     1 LT3         1 TEMP              0 ****  ****    0 ROOT
