@<TRIPOS>MOLECULE
LT3
   29    31     1     0     0
SMALL
bcc


@<TRIPOS>ATOM
      1 C1         -0.0090    0.1040   -0.0220 c3        1 LT3     -0.012400
      2 N1         -1.6430   -0.9630    1.6850 nz        1 LT3     -0.822600
      3 C3          0.0560    1.4440    2.0150 c3        1 LT3     -0.103400
      4 C5          3.2770    0.0020    1.6350 ca        1 LT3     -0.127300
      5 C6          4.2090    0.0210    0.5800 ca        1 LT3     -0.067000
      6 C9          1.5030    0.0750   -0.0360 ca        1 LT3     -0.122300
      7 C2         -0.4090    1.4840    0.5470 c3        1 LT3     -0.105400
      8 C4          0.6860    0.0430    2.1830 c3        1 LT3     -0.019400
      9 C12        -0.2350   -0.8310    1.2370 c3        1 LT3      0.065500
     10 C10         1.9330    0.0360    1.3260 ca        1 LT3     -0.068300
     11 C7          3.7840    0.0650   -0.7430 ca        1 LT3     -0.110000
     12 C8          2.4170    0.0900   -1.0700 ca        1 LT3     -0.060000
     13 C11         3.7580   -0.0450    3.0840 c3        1 LT3      0.690200
     14 F1          3.1160   -0.9910    3.8500 f         1 LT3     -0.226967
     15 F3          5.0900   -0.3260    3.2370 f         1 LT3     -0.226967
     16 F2          3.5650    1.1280    3.7720 f         1 LT3     -0.226967
     17 H1         -0.5140   -0.1970   -0.9590 hc        1 LT3      0.102700
     18 HN1        -2.1880   -1.4570    0.9720 hn        1 LT3      0.461133
     19 HN1A       -1.6760   -1.4900    2.5640 hn        1 LT3      0.461133
     20 H3          0.8150    2.2390    2.2240 hc        1 LT3      0.078200
     21 H3A        -0.7910    1.5960    2.7260 hc        1 LT3      0.078200
     22 H6          5.2880   -0.0020    0.8150 ha        1 LT3      0.176000
     23 H2          0.1030    2.3020   -0.0170 hc        1 LT3      0.074700
     24 H2A        -1.5090    1.6560    0.4630 hc        1 LT3      0.074700
     25 H4          0.8120   -0.3130    3.2250 hc        1 LT3      0.115700
     26 H12         0.1730   -1.8660    1.0800 hx        1 LT3      0.130700
     27 H7          4.5310    0.0800   -1.5540 ha        1 LT3      0.167000
     28 H8          2.0970    0.1230   -2.1230 ha        1 LT3      0.160000
     29 H13        -2.0550   -0.0350    1.8370 hn        1 LT3      0.461133
@<TRIPOS>BOND
     1    1    6 1   
     2    1    7 1   
     3    1    9 1   
     4    1   17 1   
     5    2    9 1   
     6    2   18 1   
     7    2   19 1   
     8    2   29 1   
     9    3    7 1   
    10    3    8 1   
    11    3   20 1   
    12    3   21 1   
    13    4    5 ar  
    14    4   10 ar  
    15    4   13 1   
    16    5   11 ar  
    17    5   22 1   
    18    6   10 ar  
    19    6   12 ar  
    20    7   23 1   
    21    7   24 1   
    22    8    9 1   
    23    8   10 1   
    24    8   25 1   
    25    9   26 1   
    26   11   12 ar  
    27   11   27 1   
    28   12   28 1   
    29   13   14 1   
    30   13   15 1   
    31   13   16 1   
@<TRIPOS>SUBSTRUCTURE
     1 LT3         1 TEMP              0 ****  ****    0 ROOT
