@<TRIPOS>MOLECULE
LT3
   29    31     1     0     0
SMALL
bcc


@<TRIPOS>ATOM
      1 C1         -0.0100    0.1060   -0.0210 c3        1 LT3     -0.012400
      2 N1         -1.6470   -0.9490    1.6910 n4        1 LT3     -0.822600
      3 C3          0.0630    1.4510    2.0130 c3        1 LT3     -0.103400
      4 C5          3.2770   -0.0050    1.6340 ca        1 LT3     -0.127300
      5 C6          4.2080    0.0060    0.5770 ca        1 LT3     -0.067000
      6 C9          1.5010    0.0700   -0.0370 ca        1 LT3     -0.122300
      7 C2         -0.4040    1.4890    0.5460 c3        1 LT3     -0.105400
      8 C4          0.6860    0.0480    2.1840 c3        1 LT3     -0.019400
      9 C12        -0.2390   -0.8250    1.2410 c3        1 LT3      0.065500
     10 C10         1.9320    0.0330    1.3250 ca        1 LT3     -0.068300
     11 C7          3.7810    0.0490   -0.7460 ca        1 LT3     -0.110000
     12 C8          2.4140    0.0780   -1.0710 ca        1 LT3     -0.060000
     13 C11         3.7600   -0.0510    3.0820 c3        1 LT3      0.690200
     14 F1          3.1140   -0.9910    3.8520 f         1 LT3     -0.226967
     15 F3          5.0900   -0.3370    3.2340 f         1 LT3     -0.226967
     16 F2          3.5730    1.1260    3.7660 f         1 LT3     -0.226967
     17 H1         -0.5180   -0.1960   -0.9560 hc        1 LT3      0.102700
     18 HN1        -2.1950   -1.4430    0.9800 hn        1 LT3      0.461133
     19 HN1A       -1.6820   -1.4730    2.5720 hn        1 LT3      0.461133
     20 H3         -0.7830    1.6090    2.7240 hc        1 LT3      0.078200
     21 H3A         0.8250    2.2440    2.2180 hc        1 LT3      0.078200
     22 H6          5.2870   -0.0210    0.8110 ha        1 LT3      0.176000
     23 H2         -1.5030    1.6660    0.4620 hc        1 LT3      0.074700
     24 H2A         0.1110    2.3040   -0.0220 hc        1 LT3      0.074700
     25 H4          0.8130   -0.3050    3.2270 hc        1 LT3      0.115700
     26 H12         0.1650   -1.8620    1.0870 hx        1 LT3      0.130700
     27 H7          4.5280    0.0580   -1.5580 ha        1 LT3      0.167000
     28 H8          2.0930    0.1100   -2.1240 ha        1 LT3      0.160000
     29 H13        -2.0550   -0.0190    1.8410 hn        1 LT3      0.461133
@<TRIPOS>BOND
     1    1    6 1   
     2    1    7 1   
     3    1    9 1   
     4    1   17 1   
     5    2    9 1   
     6    2   18 1   
     7    2   19 1   
     8    2   29 1   
     9    3    7 1   
    10    3    8 1   
    11    3   20 1   
    12    3   21 1   
    13    4    5 ar  
    14    4   10 ar  
    15    4   13 1   
    16    5   11 ar  
    17    5   22 1   
    18    6   10 ar  
    19    6   12 ar  
    20    7   23 1   
    21    7   24 1   
    22    8    9 1   
    23    8   10 1   
    24    8   25 1   
    25    9   26 1   
    26   11   12 ar  
    27   11   27 1   
    28   12   28 1   
    29   13   14 1   
    30   13   15 1   
    31   13   16 1   
@<TRIPOS>SUBSTRUCTURE
     1 LT3         1 TEMP              0 ****  ****    0 ROOT
