@<TRIPOS>MOLECULE
LT4
   24    24     1     0     0
SMALL
bcc


@<TRIPOS>ATOM
      1 OAC        -0.0670   -0.1660    0.2080 oh        1 LT4     -0.479100
      2 CAJ         1.2980   -0.1040    0.1270 ca        1 LT4      0.127100
      3 CAG         2.0100   -0.0980    1.3310 ca        1 LT4     -0.118000
      4 CAI         1.9990   -0.0400   -1.1030 ca        1 LT4      0.086100
      5 OAB         1.2210   -0.0510   -2.2330 oh        1 LT4     -0.496100
      6 CAE         3.3950    0.0300   -1.1160 ca        1 LT4     -0.166000
      7 CAF         4.0930    0.0420    0.0900 ca        1 LT4     -0.115000
      8 CAK         3.4070   -0.0210    1.3060 ca        1 LT4     -0.182300
      9 CAL         4.1540   -0.0210    2.5990 c3        1 LT4      0.197400
     10 OAD         5.3850   -0.7310    2.5590 oh        1 LT4     -0.642800
     11 CAH         4.5220    1.4400    2.9570 c3        1 LT4      0.090800
     12 NAA         5.4160    1.5160    4.1480 nz        1 LT4     -0.832600
     13 HOAC       -0.4290   -0.2070   -0.6930 ho        1 LT4      0.455000
     14 HAG         1.4520   -0.1650    2.2770 ha        1 LT4      0.159000
     15 HOAB        1.8020   -0.0530   -3.0100 ho        1 LT4      0.448000
     16 HAE         3.9380    0.0730   -2.0720 ha        1 LT4      0.157000
     17 HAF         5.1930    0.0950    0.0800 ha        1 LT4      0.141000
     18 HAL         3.5230   -0.4690    3.4220 h1        1 LT4      0.072700
     19 HOAD        5.2950   -1.4630    1.9330 ho        1 LT4      0.462000
     20 HAH         3.5790    2.0190    3.1690 hx        1 LT4      0.119700
     21 HAHA        5.0660    1.9070    2.0860 hx        1 LT4      0.119700
     22 HNAA        5.7220    2.4800    4.3050 hn        1 LT4      0.465133
     23 HNAB        6.2370    0.9150    3.9830 hn        1 LT4      0.465133
     24 HAA3        4.9280    1.1730    4.9800 hn        1 LT4      0.465133
@<TRIPOS>BOND
     1    1    2 1   
     2    1   13 1   
     3    2    3 ar  
     4    2    4 ar  
     5    3    8 ar  
     6    3   14 1   
     7    4    5 1   
     8    4    6 ar  
     9    5   15 1   
    10    6    7 ar  
    11    6   16 1   
    12    7    8 ar  
    13    7   17 1   
    14    8    9 1   
    15    9   10 1   
    16    9   11 1   
    17    9   18 1   
    18   10   19 1   
    19   11   12 1   
    20   11   20 1   
    21   11   21 1   
    22   12   22 1   
    23   12   23 1   
    24   12   24 1   
@<TRIPOS>SUBSTRUCTURE
     1 LT4         1 TEMP              0 ****  ****    0 ROOT
