@<TRIPOS>MOLECULE
LT4
   24    24     1     0     0
SMALL
bcc


@<TRIPOS>ATOM
      1 OAC        -0.0610   -0.1680    0.1900 oh        1 LT4     -0.479100
      2 CAJ         1.3040   -0.1030    0.1150 ca        1 LT4      0.127100
      3 CAG         2.0100   -0.1000    1.3230 ca        1 LT4     -0.118000
      4 CAI         2.0110   -0.0340   -1.1120 ca        1 LT4      0.086100
      5 OAB         1.2380   -0.0420   -2.2450 oh        1 LT4     -0.496100
      6 CAE         3.4060    0.0390   -1.1170 ca        1 LT4     -0.166000
      7 CAF         4.0990    0.0480    0.0920 ca        1 LT4     -0.115000
      8 CAK         3.4070   -0.0210    1.3040 ca        1 LT4     -0.182300
      9 CAL         4.1490   -0.0250    2.6010 c3        1 LT4      0.197400
     10 OAD         5.3810   -0.7320    2.5640 oh        1 LT4     -0.642800
     11 CAH         4.5130    1.4350    2.9660 c3        1 LT4      0.090800
     12 NAA         5.4020    1.5080    4.1610 n4        1 LT4     -0.832600
     13 HOAC       -0.4190   -0.2060   -0.7130 ho        1 LT4      0.455000
     14 HAG         1.4480   -0.1720    2.2660 ha        1 LT4      0.159000
     15 HOAB        1.8220   -0.0390   -3.0190 ho        1 LT4      0.448000
     16 HAE         3.9540    0.0870   -2.0710 ha        1 LT4      0.157000
     17 HAF         5.1990    0.1020    0.0870 ha        1 LT4      0.141000
     18 HAL         3.5140   -0.4770    3.4200 h1        1 LT4      0.072700
     19 HOAD        5.2950   -1.4620    1.9350 ho        1 LT4      0.462000
     20 HAH         5.0590    1.9070    2.0990 hx        1 LT4      0.119700
     21 HAHA        3.5680    2.0120    3.1760 hx        1 LT4      0.119700
     22 HNAA        6.2240    0.9090    3.9980 hn        1 LT4      0.465133
     23 HNAB        5.7050    2.4720    4.3230 hn        1 LT4      0.465133
     24 HAA3        4.9100    1.1610    4.9900 hn        1 LT4      0.465133
@<TRIPOS>BOND
     1    1    2 1   
     2    1   13 1   
     3    2    3 ar  
     4    2    4 ar  
     5    3    8 ar  
     6    3   14 1   
     7    4    5 1   
     8    4    6 ar  
     9    5   15 1   
    10    6    7 ar  
    11    6   16 1   
    12    7    8 ar  
    13    7   17 1   
    14    8    9 1   
    15    9   10 1   
    16    9   11 1   
    17    9   18 1   
    18   10   19 1   
    19   11   12 1   
    20   11   20 1   
    21   11   21 1   
    22   12   22 1   
    23   12   23 1   
    24   12   24 1   
@<TRIPOS>SUBSTRUCTURE
     1 LT4         1 TEMP              0 ****  ****    0 ROOT
