@<TRIPOS>MOLECULE
LT5
   25    25     1     0     0
SMALL
bcc


@<TRIPOS>ATOM
      1 FAC         0.0900    0.1290    0.4630 f         1 LT5     -0.223633
      2 CAN         1.3630   -0.0150   -0.0250 c3        1 LT5      0.689200
      3 FAD         2.1150   -0.3860    1.0630 f         1 LT5     -0.223633
      4 FAE         1.3150   -1.1400   -0.8100 f         1 LT5     -0.223633
      5 CAL         1.9010    1.2180   -0.7510 ca        1 LT5     -0.160300
      6 CAI         3.2820    1.4090   -0.8330 ca        1 LT5     -0.059000
      7 CAH         1.0200    2.1290   -1.3370 ca        1 LT5     -0.043000
      8 CAF         1.5290    3.2430   -2.0090 ca        1 LT5     -0.119000
      9 CAG         2.9040    3.4450   -2.0900 ca        1 LT5     -0.090000
     10 CAK         3.7850    2.5290   -1.5000 ca        1 LT5     -0.186300
     11 CAM         5.2640    2.7300   -1.5880 c3        1 LT5      0.192400
     12 OAB         5.6910    3.3290   -2.8030 oh        1 LT5     -0.637800
     13 CAJ         5.7030    3.7030   -0.4670 c3        1 LT5      0.093800
     14 NAA         7.1370    4.0900   -0.5880 nz        1 LT5     -0.832600
     15 HAI         3.9600    0.6710   -0.3720 ha        1 LT5      0.156000
     16 HAH        -0.0700    1.9670   -1.2660 ha        1 LT5      0.177000
     17 HAF         0.8370    3.9620   -2.4770 ha        1 LT5      0.166000
     18 HAG         3.3030    4.3220   -2.6240 ha        1 LT5      0.147000
     19 HAM         5.8030    1.7430   -1.4720 h1        1 LT5      0.072700
     20 HOAB        5.1550    2.9690   -3.5240 ho        1 LT5      0.463000
     21 HAJ         5.0850    4.6450   -0.5330 hx        1 LT5      0.121200
     22 HAJA        5.5380    3.2140    0.5350 hx        1 LT5      0.121200
     23 HNAA        7.3740    4.8050    0.1050 hn        1 LT5      0.467467
     24 HNAB        7.7390    3.2720   -0.4520 hn        1 LT5      0.467467
     25 HAA3        7.3030    4.4590   -1.5360 hn        1 LT5      0.467467
@<TRIPOS>BOND
     1    1    2 1   
     2    2    3 1   
     3    2    4 1   
     4    2    5 1   
     5    5    6 ar  
     6    5    7 ar  
     7    6   10 ar  
     8    6   15 1   
     9    7    8 ar  
    10    7   16 1   
    11    8    9 ar  
    12    8   17 1   
    13    9   10 ar  
    14    9   18 1   
    15   10   11 1   
    16   11   12 1   
    17   11   13 1   
    18   11   19 1   
    19   12   20 1   
    20   13   14 1   
    21   13   21 1   
    22   13   22 1   
    23   14   23 1   
    24   14   24 1   
    25   14   25 1   
@<TRIPOS>SUBSTRUCTURE
     1 LT5         1 TEMP              0 ****  ****    0 ROOT
