@<TRIPOS>MOLECULE
LT5
   25    25     1     0     0
SMALL
bcc


@<TRIPOS>ATOM
      1 FAC         0.0910    0.1430    0.4840 f         1 LT5     -0.223633
      2 CAN         1.3570   -0.0070   -0.0200 c3        1 LT5      0.689200
      3 FAD         2.1180   -0.3920    1.0570 f         1 LT5     -0.223633
      4 FAE         1.2910   -1.1250   -0.8120 f         1 LT5     -0.223633
      5 CAL         1.8970    1.2280   -0.7430 ca        1 LT5     -0.160300
      6 CAI         3.2780    1.4100   -0.8350 ca        1 LT5     -0.059000
      7 CAH         1.0160    2.1480   -1.3140 ca        1 LT5     -0.043000
      8 CAF         1.5250    3.2640   -1.9830 ca        1 LT5     -0.119000
      9 CAG         2.9010    3.4570   -2.0750 ca        1 LT5     -0.090000
     10 CAK         3.7820    2.5320   -1.4990 ca        1 LT5     -0.186300
     11 CAM         5.2610    2.7240   -1.6000 c3        1 LT5      0.192400
     12 OAB         5.6800    3.3290   -2.8150 oh        1 LT5     -0.637800
     13 CAJ         5.7160    3.6870   -0.4770 c3        1 LT5      0.093800
     14 NAA         7.1510    4.0650   -0.6090 n4        1 LT5     -0.832600
     15 HAI         3.9550    0.6650   -0.3860 ha        1 LT5      0.156000
     16 HAH        -0.0740    1.9920   -1.2340 ha        1 LT5      0.177000
     17 HAF         0.8330    3.9900   -2.4400 ha        1 LT5      0.166000
     18 HAG         3.3010    4.3350   -2.6080 ha        1 LT5      0.147000
     19 HAM         5.7940    1.7330   -1.4960 h1        1 LT5      0.072700
     20 HOAB        5.1360    2.9760   -3.5340 ho        1 LT5      0.463000
     21 HAJ         5.1030    4.6330   -0.5320 hx        1 LT5      0.121200
     22 HAJA        5.5570    3.1930    0.5230 hx        1 LT5      0.121200
     23 HNAA        7.3990    4.7740    0.0870 hn        1 LT5      0.467467
     24 HNAB        7.3100    4.4400   -1.5560 hn        1 LT5      0.467467
     25 HAA3        7.7490    3.2430   -0.4840 hn        1 LT5      0.467467
@<TRIPOS>BOND
     1    1    2 1   
     2    2    3 1   
     3    2    4 1   
     4    2    5 1   
     5    5    6 ar  
     6    5    7 ar  
     7    6   10 ar  
     8    6   15 1   
     9    7    8 ar  
    10    7   16 1   
    11    8    9 ar  
    12    8   17 1   
    13    9   10 ar  
    14    9   18 1   
    15   10   11 1   
    16   11   12 1   
    17   11   13 1   
    18   11   19 1   
    19   12   20 1   
    20   13   14 1   
    21   13   21 1   
    22   13   22 1   
    23   14   23 1   
    24   14   24 1   
    25   14   25 1   
@<TRIPOS>SUBSTRUCTURE
     1 LT5         1 TEMP              0 ****  ****    0 ROOT
