@<TRIPOS>MOLECULE
LT5
   24    24     1     0     0
SMALL
bcc


@<TRIPOS>ATOM
      1 FAC        -3.6460    0.3730   -0.4860 f         1 LT5     -0.235633
      2 CAN        -2.5790   -0.4420   -0.1960 c3        1 LT5      0.687200
      3 FAD        -2.9950   -1.1600    0.9000 f         1 LT5     -0.235633
      4 FAE        -2.5720   -1.3630   -1.2150 f         1 LT5     -0.235633
      5 CAL        -1.2590    0.2920    0.0060 ca        1 LT5     -0.166300
      6 CAI        -0.0590   -0.3440   -0.3170 ca        1 LT5     -0.064000
      7 CAH        -1.2620    1.5880    0.5250 ca        1 LT5     -0.077000
      8 CAF        -0.0510    2.2490    0.7250 ca        1 LT5     -0.131000
      9 CAG         1.1510    1.6170    0.4090 ca        1 LT5     -0.098000
     10 CAK         1.1560    0.3190   -0.1140 ca        1 LT5     -0.118300
     11 CAM         2.4430   -0.3730   -0.4590 c3        1 LT5      0.175400
     12 OAB         3.2350    0.3750   -1.3650 oh        1 LT5     -0.587800
     13 CAJ         3.2370   -0.6710    0.8330 c3        1 LT5      0.134800
     14 NAA         4.3940   -1.4940    0.5950 n3        1 LT5     -0.915800
     15 HAI        -0.0740   -1.3640   -0.7370 ha        1 LT5      0.157000
     16 HAH        -2.2170    2.0820    0.7680 ha        1 LT5      0.154000
     17 HAF        -0.0460    3.2710    1.1330 ha        1 LT5      0.144000
     18 HAG         2.1030    2.1450    0.5770 ha        1 LT5      0.133000
     19 HAM         2.2360   -1.3320   -1.0200 h1        1 LT5      0.101700
     20 HOAB        3.3850    1.2460   -0.9780 ho        1 LT5      0.396000
     21 HAJ         3.4930    0.3220    1.3110 h1        1 LT5      0.031700
     22 HAJA        2.5630   -1.2250    1.5460 h1        1 LT5      0.031700
     23 HNAA        4.8690   -1.2130   -0.2410 hn        1 LT5      0.358300
     24 HNAB        5.0230   -1.4490    1.3710 hn        1 LT5      0.358300
@<TRIPOS>BOND
     1    1    2 1   
     2    2    3 1   
     3    2    4 1   
     4    2    5 1   
     5    5    6 ar  
     6    5    7 ar  
     7    6   10 ar  
     8    6   15 1   
     9    7    8 ar  
    10    7   16 1   
    11    8    9 ar  
    12    8   17 1   
    13    9   10 ar  
    14    9   18 1   
    15   10   11 1   
    16   11   12 1   
    17   11   13 1   
    18   11   19 1   
    19   12   20 1   
    20   13   14 1   
    21   13   21 1   
    22   13   22 1   
    23   14   23 1   
    24   14   24 1   
@<TRIPOS>SUBSTRUCTURE
     1 LT5         1 TEMP              0 ****  ****    0 ROOT
