@<TRIPOS>MOLECULE
LT5
   24    22     1     0     0
SMALL
bcc


@<TRIPOS>ATOM
      1 FAC        -3.5650   -2.7100    0.8040 f         1 LT5     -0.165333
      2 CAN        -2.2100   -2.5050    1.1000 c3        1 LT5      0.466000
      3 FAD        -2.0580   -2.4060    2.3530 f         1 LT5     -0.165333
      4 FAE        -1.5180   -3.5090    0.6610 f         1 LT5     -0.165333
      5 CAL        -1.7280   -1.2060    0.4250 c2        1 LT5     -0.161000
      6 CAI        -0.3820   -0.9330    0.3440 c1        1 LT5     -0.074000
      7 CAH        -2.6660   -0.3260   -0.1540 c2        1 LT5     -0.078000
      8 CAF        -2.2420    0.7940   -0.7920 c1        1 LT5     -0.133000
      9 CAG        -0.8780    1.0740   -0.8760 c1        1 LT5     -0.089000
     10 CAK         0.0500    0.1970   -0.3000 c1        1 LT5     -0.122000
     11 CAM         1.5610    0.4450   -0.4810 c3        1 LT5      0.018000
     12 OAB         1.8050    0.8980   -1.7770 oh        1 LT5     -0.328000
     13 CAJ         2.0120    1.4790    0.5040 c3        1 LT5     -0.069000
     14 NAA         3.4260    1.6250    0.4400 n3        1 LT5     -0.330000
     15 HAI         0.3030   -1.5810    0.7720 ha        1 LT5      0.152000
     16 HAH        -3.6070   -0.5210   -0.0950 ha        1 LT5      0.153000
     17 HAF        -2.8780    1.3890   -1.1840 ha        1 LT5      0.145000
     18 HAG        -0.5870    1.8370   -1.3110 ha        1 LT5      0.153000
     19 HAM         2.0540   -0.3940   -0.3270 h1        1 LT5      0.081000
     20 HOAB        2.2550    0.2520   -2.2490 ho        1 LT5      0.207000
     21 HAJ         1.7500    1.1880    1.4380 h1        1 LT5      0.103000
     22 HAJA        1.5840    2.3360    0.2950 h1        1 LT5      0.103000
     23 HNAA        3.6960    1.6540   -0.4450 hn        1 LT5      0.149000
     24 HNAB        3.8210    0.9230    0.8550 hn        1 LT5      0.149000
@<TRIPOS>BOND
     1    1    2 1   
     2    2    3 1   
     3    2    4 1   
     4    2    5 1   
     5    5    6 1   
     6    5    7 1   
     7    6   15 1   
     8    7    8 1   
     9    7   16 1   
    10    8   17 1   
    11    9   10 1   
    12    9   18 1   
    13   10   11 1   
    14   11   12 1   
    15   11   13 1   
    16   11   19 1   
    17   12   20 1   
    18   13   14 1   
    19   13   21 1   
    20   13   22 1   
    21   14   23 1   
    22   14   24 1   
@<TRIPOS>SUBSTRUCTURE
     1 LT5         1 TEMP              0 ****  ****    0 ROOT
