@<TRIPOS>MOLECULE
LT5
   25    25     1     0     0
SMALL
bcc


@<TRIPOS>ATOM
      1 FAC         0.0930    0.1220    0.4600 f         1 LT5     -0.223633
      2 CAN         1.3670   -0.0180   -0.0270 c3        1 LT5      0.689200
      3 FAD         2.1180   -0.3880    1.0630 f         1 LT5     -0.223633
      4 FAE         1.3230   -1.1430   -0.8110 f         1 LT5     -0.223633
      5 CAL         1.9030    1.2160   -0.7510 ca        1 LT5     -0.160300
      6 CAI         3.2830    1.4080   -0.8340 ca        1 LT5     -0.059000
      7 CAH         1.0200    2.1270   -1.3350 ca        1 LT5     -0.043000
      8 CAF         1.5270    3.2430   -2.0050 ca        1 LT5     -0.119000
      9 CAG         2.9020    3.4460   -2.0870 ca        1 LT5     -0.090000
     10 CAK         3.7850    2.5300   -1.5000 ca        1 LT5     -0.186300
     11 CAM         5.2630    2.7320   -1.5890 c3        1 LT5      0.192400
     12 OAB         5.6880    3.3340   -2.8040 oh        1 LT5     -0.637800
     13 CAJ         5.7020    3.7030   -0.4670 c3        1 LT5      0.093800
     14 NAA         7.1360    4.0910   -0.5890 n4        1 LT5     -0.832600
     15 HAI         3.9620    0.6700   -0.3750 ha        1 LT5      0.156000
     16 HAH        -0.0690    1.9640   -1.2620 ha        1 LT5      0.177000
     17 HAF         0.8340    3.9620   -2.4710 ha        1 LT5      0.166000
     18 HAG         3.3000    4.3240   -2.6210 ha        1 LT5      0.147000
     19 HAM         5.8030    1.7460   -1.4760 h1        1 LT5      0.072700
     20 HOAB        5.1520    2.9750   -3.5250 ho        1 LT5      0.463000
     21 HAJ         5.5400    3.2120    0.5340 hx        1 LT5      0.121200
     22 HAJA        5.0840    4.6450   -0.5310 hx        1 LT5      0.121200
     23 HNAA        7.3000    4.4630   -1.5360 hn        1 LT5      0.467467
     24 HNAB        7.3730    4.8050    0.1050 hn        1 LT5      0.467467
     25 HAA3        7.7390    3.2730   -0.4550 hn        1 LT5      0.467467
@<TRIPOS>BOND
     1    1    2 1   
     2    2    3 1   
     3    2    4 1   
     4    2    5 1   
     5    5    6 ar  
     6    5    7 ar  
     7    6   10 ar  
     8    6   15 1   
     9    7    8 ar  
    10    7   16 1   
    11    8    9 ar  
    12    8   17 1   
    13    9   10 ar  
    14    9   18 1   
    15   10   11 1   
    16   11   12 1   
    17   11   13 1   
    18   11   19 1   
    19   12   20 1   
    20   13   14 1   
    21   13   21 1   
    22   13   22 1   
    23   14   23 1   
    24   14   24 1   
    25   14   25 1   
@<TRIPOS>SUBSTRUCTURE
     1 LT5         1 TEMP              0 ****  ****    0 ROOT
