@<TRIPOS>MOLECULE
LT6
   61    56     1     0     0
SMALL
bcc


@<TRIPOS>ATOM
      1 C1         -1.5790   -3.3770    1.1100 c3        1 LT6     -0.196000
      2 N1          2.3110    0.3140    2.4230 n4        1 LT6     -0.107000
      3 O1         11.2020   -3.7640    0.8120 oh        1 LT6     -0.193000
      4 C2         -0.9460   -2.0440    0.7890 c3        1 LT6     -0.175000
      5 N2         12.2900    1.0290    3.1090 n2        1 LT6     -0.269000
      6 O2          9.0600    0.5360    3.5450 o         1 LT6     -0.290000
      7 C3         -0.2960   -1.4600    2.0100 c3        1 LT6     -0.196000
      8 C4          1.4050    0.0800    1.3060 c1        1 LT6     -0.023000
      9 O4          3.0020   -1.9090    2.3390 o         1 LT6     -0.184000
     10 C5          3.3420    1.2860    1.9310 c3        1 LT6     -0.162000
     11 C6         17.0230    3.2820    4.0060 c2        1 LT6     -0.206000
     12 C7         17.2370    1.8920    3.9420 c2        1 LT6      0.198000
     13 C8         16.4030    0.8730    3.4680 c2        1 LT6     -0.289000
     14 C9         15.1420    1.0230    2.9490 c2        1 LT6      0.139000
     15 C10        14.9540    4.6840    3.2230 c2        1 LT6     -0.155000
     16 C11        15.9500    3.9530    3.5940 c1        1 LT6      0.034000
     17 C12        14.3540   -0.1190    2.4630 c3        1 LT6     -0.181000
     18 C13        12.8600    0.0030    2.6060 c2        1 LT6     -0.078000
     19 C14        11.2070   -2.6910    1.5570 c1        1 LT6     -0.095000
     20 C15         8.1750    0.6450    4.3980 c2        1 LT6      0.146000
     21 C16         7.1550   -0.3770    4.6600 c1        1 LT6     -0.044000
     22 C17         5.0220   -1.2530    4.4180 c2        1 LT6     -0.009000
     23 C18         5.3870   -2.5060    4.7030 c2        1 LT6     -0.120000
     24 C19         3.2270    0.4090    7.8760 c1        1 LT6      0.435000
     25 C20         3.6660   -0.0710    6.7160 c2        1 LT6     -0.562000
     26 C21         3.0470   -0.1570    5.4180 c2        1 LT6      0.312000
     27 C22         3.6670   -0.7140    4.3270 c2        1 LT6     -0.248000
     28 C23         3.0200   -0.8930    3.0220 c2        1 LT6      0.276000
     29 H1         -1.0310   -1.2300    2.8190 hc        1 LT6      0.101667
     30 H1A        -2.3620   -3.2650    1.8990 hc        1 LT6      0.101667
     31 H1B        -2.0610   -3.7950    0.1920 hc        1 LT6      0.101667
     32 HO1        12.0770   -3.8730    0.3910 ho        1 LT6      0.254000
     33 H2         -0.8130   -4.1050    1.4690 hc        1 LT6      0.101667
     34 H2A        -1.7300   -1.3390    0.4010 hc        1 LT6      0.104000
     35 HN2         8.2030    1.4370    5.1860 h4        1 LT6      0.124000
     36 H3         -0.1840   -2.1750   -0.0250 hc        1 LT6      0.104000
     37 H3A         1.7540   -0.7330    0.6270 hx        1 LT6      0.108000
     38 H4          0.1190   -0.3570    1.7300 hc        1 LT6      0.101667
     39 H4A         0.5280   -2.1000    2.4000 hc        1 LT6      0.101667
     40 H5          3.8850    0.8380    1.0560 hx        1 LT6      0.150000
     41 H5A         2.8290    2.2340    1.6120 hx        1 LT6      0.150000
     42 H5B         4.0660    1.4920    2.7640 hx        1 LT6      0.150000
     43 H8         16.8200   -0.1550    3.5350 ha        1 LT6      0.177000
     44 H10        14.1020    4.9150    3.8910 ha        1 LT6      0.207500
     45 H11        14.6780    2.0260    2.8650 ha        1 LT6      0.164000
     46 H12        14.5810   -0.2410    1.3590 hc        1 LT6      0.154000
     47 H12A       14.8830    5.1310    2.2120 ha        1 LT6      0.207500
     48 H13        14.6720   -1.0770    2.9660 hc        1 LT6      0.154000
     49 H14        10.1970   -2.5850    2.0310 ha        1 LT6      0.044000
     50 H14A       12.3430   -0.9170    2.2230 h4        1 LT6      0.173000
     51 H16         8.4340   -1.7250    3.0860 ha        1 LT6      0.007000
     52 H16A        7.8370   -2.0420    3.1550 ha        1 LT6      0.007000
     53 H18         6.4490   -2.8020    4.7500 ha        1 LT6      0.169000
     54 H19         4.6470   -3.2930    4.9100 ha        1 LT6      0.169000
     55 H20         4.7010   -0.5020    6.7730 ha        1 LT6      0.240000
     56 O3          5.9830   -0.2460    4.0790 os        1 LT6     -0.118000
     57 H6         17.8500    3.8810    4.4540 ha        1 LT6      0.196000
     58 H111        1.7720    0.7770    3.1710 hn        1 LT6      0.267000
     59 H22        11.2910    0.9960    3.1620 hn        1 LT6      0.186000
     60 F1          1.7870    0.3260    5.3080 f         1 LT6     -0.094000
     61 H7         18.2250    1.5560    4.3360 ha        1 LT6      0.178000
@<TRIPOS>BOND
     1    1    4 1   
     2    1   30 1   
     3    1   31 1   
     4    1   33 1   
     5    2    8 1   
     6    2   10 1   
     7    2   28 1   
     8    2   58 1   
     9    3   19 1   
    10    3   32 1   
    11    4    7 1   
    12    4   34 1   
    13    4   36 1   
    14    5   18 1   
    15    5   59 1   
    16    6   20 1   
    17    7   29 1   
    18    7   38 1   
    19    7   39 1   
    20    8   37 1   
    21    9   28 1   
    22   10   40 1   
    23   10   41 1   
    24   10   42 1   
    25   11   12 1   
    26   11   16 1   
    27   11   57 1   
    28   12   13 1   
    29   12   61 1   
    30   13   14 1   
    31   13   43 1   
    32   14   17 1   
    33   14   45 1   
    34   15   16 1   
    35   15   44 1   
    36   15   47 1   
    37   17   18 1   
    38   17   46 1   
    39   17   48 1   
    40   18   50 1   
    41   19   49 1   
    42   20   21 1   
    43   20   35 1   
    44   21   56 1   
    45   22   23 1   
    46   22   27 1   
    47   22   56 1   
    48   23   53 1   
    49   23   54 1   
    50   24   25 1   
    51   25   26 1   
    52   25   55 1   
    53   26   27 1   
    54   26   60 1   
    55   27   28 1   
    56   51   52 1   
@<TRIPOS>SUBSTRUCTURE
     1 LT6         1 TEMP              0 ****  ****    0 ROOT
