@<TRIPOS>MOLECULE
LT6
   59    56     1     0     0
SMALL
bcc


@<TRIPOS>ATOM
      1 C1         -3.3770    5.7420   -6.0170 c3        1 LT6     -0.211000
      2 F1          1.3530    4.2700   -1.9210 f         1 LT6     -0.094000
      3 N1         -1.2050    3.5230   -2.2020 n         1 LT6     -0.310000
      4 O1          2.0990   -3.8880   -0.6450 oh        1 LT6     -0.330000
      5 C2         -2.2840    4.7340   -5.6520 c3        1 LT6     -0.157000
      6 N2          0.1120   -3.0270    1.3630 n         1 LT6     -0.363000
      7 O2          1.8370   -1.7170    0.5960 o         1 LT6     -0.378000
      8 C3         -2.4610    4.2960   -4.1770 c3        1 LT6     -0.182000
      9 O3         -0.2190    0.3660    0.4860 os        1 LT6     -0.211000
     10 C4         -1.1180    3.7190   -3.6450 c3        1 LT6     -0.029000
     11 O4         -1.2610    1.2510   -1.8000 o         1 LT6     -0.400000
     12 C5         -1.8050    4.5330   -1.3690 c3        1 LT6     -0.080000
     13 C6          0.9270   -4.6660    6.4450 c1        1 LT6     -0.128250
     14 C7          1.1290   -3.6380    5.5540 c1        1 LT6     -0.128250
     15 C8          0.9330   -3.8520    4.1850 c1        1 LT6     -0.128250
     16 C9          0.5350   -5.1020    3.7230 c1        1 LT6     -0.074000
     17 C10         0.3310   -6.1410    4.6250 c1        1 LT6     -0.131000
     18 C11         0.5250   -5.9310    5.9820 c1        1 LT6     -0.128250
     19 C12         0.1920   -5.2940    2.2360 c3        1 LT6     -0.137000
     20 C13         0.9140   -4.2250    1.4080 c3        1 LT6     -0.004000
     21 C14         1.1330   -4.7280    0.0220 c3        1 LT6     -0.026000
     22 C15         0.7340   -1.7570    1.1000 c2        1 LT6      0.270000
     23 C16         0.0610   -0.4550    1.5860 c3        1 LT6     -0.046000
     24 C17         0.8090    1.3770    0.2240 c2        1 LT6      0.123000
     25 C18         2.0200    1.3190    0.8860 c2        1 LT6     -0.193000
     26 C19         3.0290    2.2500    0.5880 c1        1 LT6     -0.060000
     27 C20         2.8130    3.2190   -0.3610 c1        1 LT6     -0.188000
     28 C21         1.5860    3.2810   -1.0340 c2        1 LT6      0.143000
     29 C22         0.5880    2.3630   -0.7420 c2        1 LT6     -0.181000
     30 C23        -0.6910    2.3160   -1.6100 c2        1 LT6      0.380000
     31 H1         -4.2660    5.3550   -5.8110 hc        1 LT6      0.074333
     32 H1A        -3.3250    5.9470   -6.9620 hc        1 LT6      0.074333
     33 H1B        -3.2530    6.5490   -5.5050 hc        1 LT6      0.074333
     34 HO1         2.5010   -4.3460   -1.2710 ho        1 LT6      0.217000
     35 H2         -2.3550    3.9530   -6.2320 hc        1 LT6      0.080500
     36 H2A        -1.3800    5.1600   -5.7700 hc        1 LT6      0.080500
     37 HN2        -0.7790   -3.0870    1.3880 hn        1 LT6      0.256000
     38 H3         -3.1630    3.6010   -4.1230 hc        1 LT6      0.088500
     39 H3A        -2.7220    5.0660   -3.6370 hc        1 LT6      0.088500
     40 H4         -0.4030    4.3340   -3.8420 h1        1 LT6      0.103000
     41 H4A        -0.9390    2.8620   -4.0780 h1        1 LT6      0.103000
     42 H5         -2.7760    4.4860   -1.4490 h1        1 LT6      0.085333
     43 H5A        -1.4970    5.4150   -1.6530 h1        1 LT6      0.085333
     44 H5B        -1.5450    4.3820   -0.4330 h1        1 LT6      0.085333
     45 H6          1.0700   -4.5100    7.4460 ha        1 LT6      0.134000
     46 H7          1.4200   -2.7220    5.8910 ha        1 LT6      0.134000
     47 H8          1.0790   -3.1080    3.5400 ha        1 LT6      0.134000
     48 H10         0.0380   -7.0620    4.2860 ha        1 LT6      0.128000
     49 H11         0.3780   -6.6790    6.6320 ha        1 LT6      0.134000
     50 H12        -0.7930   -5.2050    2.1080 hc        1 LT6      0.097500
     51 H12A        0.4830   -6.1910    1.9430 hc        1 LT6      0.097500
     52 H13         1.7550   -4.0280    1.8090 h1        1 LT6      0.123000
     53 H14         1.4720   -5.6580    0.0580 h1        1 LT6      0.095500
     54 H14A        0.2830   -4.7070   -0.4720 h1        1 LT6      0.095500
     55 H16         0.6630    0.0150    2.1990 h1        1 LT6      0.128000
     56 H16A       -0.7730   -0.6730    2.0510 h1        1 LT6      0.128000
     57 H18         2.1740    0.6320    1.5590 ha        1 LT6      0.155000
     58 H19         3.8960    2.2080    1.0610 ha        1 LT6      0.148000
     59 H20         3.5210    3.8710   -0.5690 ha        1 LT6      0.158000
@<TRIPOS>BOND
     1    1    5 1   
     2    1   31 1   
     3    1   32 1   
     4    1   33 1   
     5    2   28 1   
     6    3   10 1   
     7    3   12 1   
     8    3   30 1   
     9    4   21 1   
    10    4   34 1   
    11    5    8 1   
    12    5   35 1   
    13    5   36 1   
    14    6   20 1   
    15    6   22 1   
    16    6   37 1   
    17    7   22 1   
    18    8   10 1   
    19    8   38 1   
    20    8   39 1   
    21    9   23 1   
    22    9   24 1   
    23   10   40 1   
    24   10   41 1   
    25   11   30 1   
    26   12   42 1   
    27   12   43 1   
    28   12   44 1   
    29   13   18 1   
    30   13   45 1   
    31   14   15 1   
    32   14   46 1   
    33   15   47 1   
    34   16   17 1   
    35   16   19 1   
    36   17   48 1   
    37   18   49 1   
    38   19   20 1   
    39   19   50 1   
    40   19   51 1   
    41   20   21 1   
    42   20   52 1   
    43   21   53 1   
    44   21   54 1   
    45   22   23 1   
    46   23   55 1   
    47   23   56 1   
    48   24   25 1   
    49   24   29 1   
    50   25   26 1   
    51   25   57 1   
    52   26   58 1   
    53   27   28 1   
    54   27   59 1   
    55   28   29 1   
    56   29   30 1   
@<TRIPOS>SUBSTRUCTURE
     1 LT6         1 TEMP              0 ****  ****    0 ROOT
