@<TRIPOS>MOLECULE
LT6
   61    57     1     0     0
SMALL
bcc


@<TRIPOS>ATOM
      1 C1         -3.2510   -0.8260   -0.0210 c3        1 LT6     -0.279000
      2 N1          2.5130   -0.2910    2.6290 nx        1 LT6      0.077000
      3 O1         12.6430   -2.0310    2.8610 oh        1 LT6     -0.289000
      4 C2         -0.2320   -2.4310    1.1850 c2        1 LT6      0.070000
      5 N2         11.7400    0.1380    2.7050 n7        1 LT6     -0.203000
      6 O2          9.1650    0.9330    3.8520 o         1 LT6     -0.374000
      7 C3          0.5240   -1.9540    2.3020 c3        1 LT6     -0.224000
      8 C4          1.5300   -0.9700    1.6270 c3        1 LT6     -0.215000
      9 O4          3.7650   -2.2700    2.5100 o         1 LT6     -0.197000
     10 C5          3.2160    0.6980    1.9630 c2        1 LT6     -0.474000
     11 C6         17.4330    0.9510    3.2770 c2        1 LT6     -0.158000
     12 C7         16.2490    0.3310    3.8040 c2        1 LT6      0.051000
     13 C8         14.9500    0.6750    3.6240 c2        1 LT6     -0.281000
     14 C9         14.4870    1.8220    2.9080 c2        1 LT6      0.066000
     15 C10        17.6750    2.6080    1.2800 c2        1 LT6     -0.161000
     16 C11        17.5070    1.7950    2.2740 c1        1 LT6     -0.090000
     17 C12        13.2000    2.1450    2.6300 c2        1 LT6     -0.324000
     18 C13        11.9990    1.4110    2.8970 c2        1 LT6      0.193000
     19 C14        12.6130   -0.8670    2.0800 c3        1 LT6      0.055000
     20 C15         8.1690    1.0100    4.5880 c2        1 LT6      0.183000
     21 C16         7.3130   -0.1190    4.9290 c1        1 LT6     -0.046000
     22 C17         5.3600   -1.3640    4.7910 c2        1 LT6      0.007000
     23 C18         5.9020   -2.4820    5.2800 c2        1 LT6     -0.124000
     24 C19         4.0450   -0.2840    8.0550 c1        1 LT6      0.023000
     25 C20         3.6480   -0.4500    6.9350 c1        1 LT6     -0.267000
     26 C21         3.1580   -0.6430    5.6280 c2        1 LT6      0.347000
     27 C22         3.9420   -1.0680    4.5870 c2        1 LT6     -0.200000
     28 C23         3.4520   -1.3230    3.2210 c2        1 LT6      0.327000
     29 H1         -3.4550   -1.9070    0.1390 hc        1 LT6      0.070500
     30 H1A        -2.9500   -0.3520    0.9380 hc        1 LT6      0.070500
     31 H1B        -4.1760   -0.3340   -0.3950 hc        1 LT6      0.070500
     32 HO1        13.3500   -1.9560    3.5190 ho        1 LT6      0.227000
     33 H2         -2.4430   -0.7010   -0.7760 hc        1 LT6      0.070500
     34 H2A        -1.1430   -1.9070    0.8420 ha        1 LT6      0.173000
     35 HN2         7.9930    1.9040    5.2370 h4        1 LT6      0.133000
     36 H3          0.1010   -3.3070    0.6060 ha        1 LT6      0.173000
     37 H3A         2.1650   -1.5160    0.8770 hx        1 LT6      0.142000
     38 H4          1.1090   -2.7610    2.8240 hc        1 LT6      0.150000
     39 H4A        -0.0910   -1.3930    3.0570 hc        1 LT6      0.150000
     40 H5          0.9750   -0.1320    1.1260 hx        1 LT6      0.142000
     41 H5A         2.7910    1.7050    1.9100 hx        1 LT6      0.174500
     42 H5B         4.0810    0.4180    1.3550 hx        1 LT6      0.174500
     43 H8         14.1810    0.0630    4.1300 ha        1 LT6      0.117000
     44 H10        17.6530    3.7040    1.4010 ha        1 LT6      0.166500
     45 H11        15.2680    2.5570    2.6110 ha        1 LT6      0.166000
     46 H12        12.9930    3.1480    2.2010 ha        1 LT6      0.184000
     47 H12A       17.8660    2.2530    0.2530 ha        1 LT6      0.166500
     48 H13        13.6360   -0.4310    1.8990 h2        1 LT6      0.147000
     49 H14        12.1220   -1.1770    1.1070 h2        1 LT6      0.147000
     50 H14A       11.1320    2.0220    3.2740 h4        1 LT6      0.201000
     51 H16         8.9120   -1.4030    3.5380 ha        1 LT6      0.006000
     52 H16A        8.4930   -1.8430    3.8420 ha        1 LT6      0.006000
     53 H18         6.9930   -2.5910    5.3980 ha        1 LT6      0.166000
     54 H19         5.2870   -3.3370    5.5940 ha        1 LT6      0.166000
     55 H20         4.3980   -0.1370    9.0520 ha        1 LT6      0.262000
     56 O3          6.1710   -0.2790    4.3160 os        1 LT6     -0.086000
     57 H6         18.3790    0.6540    3.7800 ha        1 LT6      0.176000
     58 H111        1.9170    0.1020    3.3660 hn        1 LT6      0.245000
     59 H22        10.8320   -0.2160    2.9860 hn        1 LT6      0.287000
     60 F1          1.8340   -0.4150    5.4470 f         1 LT6     -0.086000
     61 H7         16.4600   -0.5480    4.4510 ha        1 LT6      0.150000
@<TRIPOS>BOND
     1    1   29 1   
     2    1   30 1   
     3    1   31 1   
     4    1   33 1   
     5    2    8 1   
     6    2   10 1   
     7    2   28 1   
     8    2   58 1   
     9    3   19 1   
    10    3   32 1   
    11    4    7 1   
    12    4   34 1   
    13    4   36 1   
    14    5   18 1   
    15    5   19 1   
    16    5   59 1   
    17    6   20 1   
    18    7    8 1   
    19    7   38 1   
    20    7   39 1   
    21    8   37 1   
    22    8   40 1   
    23    9   28 1   
    24   10   41 1   
    25   10   42 1   
    26   11   12 1   
    27   11   16 1   
    28   11   57 1   
    29   12   13 1   
    30   12   61 1   
    31   13   14 1   
    32   13   43 1   
    33   14   17 1   
    34   14   45 1   
    35   15   16 1   
    36   15   44 1   
    37   15   47 1   
    38   17   18 1   
    39   17   46 1   
    40   18   50 1   
    41   19   48 1   
    42   19   49 1   
    43   20   21 1   
    44   20   35 1   
    45   21   56 1   
    46   22   23 1   
    47   22   27 1   
    48   22   56 1   
    49   23   53 1   
    50   23   54 1   
    51   24   25 1   
    52   24   55 1   
    53   25   26 1   
    54   26   27 1   
    55   26   60 1   
    56   27   28 1   
    57   51   52 1   
@<TRIPOS>SUBSTRUCTURE
     1 LT6         1 TEMP              0 ****  ****    0 ROOT
