@<TRIPOS>MOLECULE
LT6
   59    60     1     0     0
SMALL
bcc


@<TRIPOS>ATOM
      1 C1          5.3340   -4.2780   -1.7380 c3        1 LT6     -0.092100
      2 N1          2.6710   -0.3350   -0.2200 n         1 LT6     -0.469800
      3 O1         -1.6150   -1.6730   -2.3610 oh        1 LT6     -0.604800
      4 C2          4.0260   -3.5310   -1.7840 c3        1 LT6     -0.078400
      5 N2         -1.8760   -0.2620    0.1550 n         1 LT6     -0.534900
      6 O2         -1.1360   -0.7270    2.2900 o         1 LT6     -0.612100
      7 C3          4.0800   -2.2740   -0.9410 c3        1 LT6     -0.100400
      8 C4          2.7370   -1.5430   -1.0090 c3        1 LT6      0.095000
      9 O4          2.7750    1.0130   -2.0760 o         1 LT6     -0.588100
     10 C5          2.5310   -0.4670    1.2010 c3        1 LT6      0.082300
     11 C6         -6.6210    0.2700    2.1290 ca        1 LT6     -0.132000
     12 C7         -6.3710    0.8690    0.8950 ca        1 LT6     -0.128500
     13 C8         -5.4690    0.2890    0.0040 ca        1 LT6     -0.124000
     14 C9         -4.8070   -0.8980    0.3410 ca        1 LT6     -0.076300
     15 C10        -5.0640   -1.4960    1.5810 ca        1 LT6     -0.124000
     16 C11        -5.9650   -0.9130    2.4700 ca        1 LT6     -0.128500
     17 C12        -3.8650   -1.5300   -0.6190 c3        1 LT6     -0.044100
     18 C13        -2.4150   -1.5760   -0.1020 c3        1 LT6      0.103700
     19 C14        -1.5660   -2.3680   -1.1270 c3        1 LT6      0.105400
     20 C15        -1.2270    0.0540    1.3230 c         1 LT6      0.657100
     21 C16        -0.6530    1.4700    1.4440 c3        1 LT6      0.049400
     22 C17         1.3380    2.4700    0.6270 ca        1 LT6      0.163100
     23 C18         1.2100    3.6330    1.3950 ca        1 LT6     -0.204000
     24 C19         2.3160    4.4650    1.5620 ca        1 LT6     -0.065000
     25 C20         3.5370    4.1520    0.9760 ca        1 LT6     -0.193000
     26 C21         3.6630    2.9800    0.2040 ca        1 LT6      0.188900
     27 C22         2.5610    2.1170    0.0280 ca        1 LT6     -0.183600
     28 C23         2.6750    0.9050   -0.8390 c         1 LT6      0.693700
     29 H1          5.5810   -4.5790   -0.6910 hc        1 LT6      0.034367
     30 H1A         5.2760   -5.1990   -2.3660 hc        1 LT6      0.034367
     31 H1B         6.1660   -3.6390   -2.1230 hc        1 LT6      0.034367
     32 HO1        -0.9230   -2.0430   -2.9200 ho        1 LT6      0.408000
     33 H2          3.7850   -3.2590   -2.8460 hc        1 LT6      0.038200
     34 H2A         3.2000   -4.1960   -1.4160 hc        1 LT6      0.038200
     35 HN2        -1.7670    0.3350   -0.6340 hn        1 LT6      0.332500
     36 H3          4.3240   -2.5420    0.1200 hc        1 LT6      0.049700
     37 H3A         4.8980   -1.6040   -1.3140 hc        1 LT6      0.049700
     38 H4          1.9250   -2.2420   -0.6510 h1        1 LT6      0.055200
     39 H4A         2.5260   -1.2830   -2.0870 h1        1 LT6      0.055200
     40 H5          1.4590   -0.2960    1.5080 h1        1 LT6      0.043033
     41 H5A         2.8380   -1.4980    1.5210 h1        1 LT6      0.043033
     42 H5B         3.1780    0.2820    1.7320 h1        1 LT6      0.043033
     43 H7         -6.8880    1.8010    0.6210 ha        1 LT6      0.131000
     44 H8         -5.2770    0.7650   -0.9690 ha        1 LT6      0.131500
     45 H10        -4.5470   -2.4270    1.8550 ha        1 LT6      0.131500
     46 H11        -6.1580   -1.3870    3.4440 ha        1 LT6      0.131000
     47 H12        -4.1860   -2.5910   -0.8060 hc        1 LT6      0.063700
     48 H12A       -3.8860   -0.9950   -1.6060 hc        1 LT6      0.063700
     49 H13        -2.3950   -2.1580    0.8690 h1        1 LT6      0.089700
     50 H14        -2.0060   -3.3930   -1.2540 h1        1 LT6      0.034200
     51 H14A       -0.5070   -2.4620   -0.7680 h1        1 LT6      0.034200
     52 H16        -0.1390    1.5640    2.4360 h1        1 LT6      0.075200
     53 H16A       -1.4650    2.2370    1.3500 h1        1 LT6      0.075200
     54 H18         0.2440    3.8900    1.8530 ha        1 LT6      0.148000
     55 H19         2.2200    5.3840    2.1610 ha        1 LT6      0.145000
     56 H20         4.4100    4.8080    1.1030 ha        1 LT6      0.157000
     57 F1          4.8580    2.6830   -0.3530 f         1 LT6     -0.120900
     58 O3          0.2630    1.6410    0.3550 os        1 LT6     -0.329900
     59 H6         -7.3320    0.7280    2.8300 ha        1 LT6      0.130000
@<TRIPOS>BOND
     1    1    4 1   
     2    1   29 1   
     3    1   30 1   
     4    1   31 1   
     5    2    8 1   
     6    2   10 1   
     7    2   28 1   
     8    3   19 1   
     9    3   32 1   
    10    4    7 1   
    11    4   33 1   
    12    4   34 1   
    13    5   18 1   
    14    5   20 1   
    15    5   35 1   
    16    6   20 2   
    17    7    8 1   
    18    7   36 1   
    19    7   37 1   
    20    8   38 1   
    21    8   39 1   
    22    9   28 2   
    23   10   40 1   
    24   10   41 1   
    25   10   42 1   
    26   11   12 ar  
    27   11   16 ar  
    28   11   59 1   
    29   12   13 ar  
    30   12   43 1   
    31   13   14 ar  
    32   13   44 1   
    33   14   15 ar  
    34   14   17 1   
    35   15   16 ar  
    36   15   45 1   
    37   16   46 1   
    38   17   18 1   
    39   17   47 1   
    40   17   48 1   
    41   18   19 1   
    42   18   49 1   
    43   19   50 1   
    44   19   51 1   
    45   20   21 1   
    46   21   52 1   
    47   21   53 1   
    48   21   58 1   
    49   22   23 ar  
    50   22   27 ar  
    51   22   58 1   
    52   23   24 ar  
    53   23   54 1   
    54   24   25 ar  
    55   24   55 1   
    56   25   26 ar  
    57   25   56 1   
    58   26   27 ar  
    59   26   57 1   
    60   27   28 1   
@<TRIPOS>SUBSTRUCTURE
     1 LT6         1 TEMP              0 ****  ****    0 ROOT
