@<TRIPOS>MOLECULE
LT6
   61    56     1     0     0
SMALL
bcc


@<TRIPOS>ATOM
      1 C1         -0.2340   -3.3860    2.0060 c3        1 LT6     -0.159000
      2 N1          2.2170    0.3260    2.3350 n4        1 LT6     -0.114000
      3 O1         11.0140   -3.5480    0.4440 oh        1 LT6     -0.193000
      4 C2         -0.9570   -2.3850    1.1430 c3        1 LT6     -0.196000
      5 N2         12.2630    1.0210    3.0650 n2        1 LT6     -0.269000
      6 O2          9.0240    0.5740    3.4510 o         1 LT6     -0.290000
      7 C3         -1.0260   -1.0260    1.7700 c3        1 LT6     -0.159000
      8 C4          1.2310    0.0390    1.2980 c1        1 LT6      0.022000
      9 O4          2.9190   -1.8940    2.3060 o         1 LT6     -0.182000
     10 C5          3.2240    1.2510    1.7210 c3        1 LT6     -0.165000
     11 C6         17.0480    3.0750    4.1390 c2        1 LT6     -0.206000
     12 C7         17.2260    1.6880    3.9750 c2        1 LT6      0.198000
     13 C8         16.3690    0.7270    3.4290 c2        1 LT6     -0.289000
     14 C9         15.1150    0.9460    2.9190 c2        1 LT6      0.139000
     15 C10        15.0150    4.5800    3.4610 c2        1 LT6     -0.155000
     16 C11        15.9920    3.8000    3.7770 c1        1 LT6      0.034000
     17 C12        14.2990   -0.1380    2.3520 c3        1 LT6     -0.181000
     18 C13        12.8080    0.0150    2.4970 c2        1 LT6     -0.079000
     19 C14        11.0770   -2.5610    1.2960 c1        1 LT6     -0.094000
     20 C15         8.1240    0.7170    4.2830 c2        1 LT6      0.146000
     21 C16         7.0990   -0.2950    4.5680 c1        1 LT6     -0.044000
     22 C17         4.9710   -1.1810    4.3260 c2        1 LT6     -0.009000
     23 C18         5.3310   -2.4320    4.6250 c2        1 LT6     -0.120000
     24 C19         3.2620    0.6110    7.7580 c1        1 LT6      0.432000
     25 C20         3.6730    0.0890    6.6060 c2        1 LT6     -0.561000
     26 C21         3.0250   -0.0360    5.3250 c2        1 LT6      0.312000
     27 C22         3.6190   -0.6340    4.2410 c2        1 LT6     -0.247000
     28 C23         2.9450   -0.8560    2.9560 c2        1 LT6      0.276000
     29 H1         -1.4980   -1.0340    2.7810 hc        1 LT6      0.084500
     30 H1A        -0.7200   -3.4740    3.0080 hc        1 LT6      0.084500
     31 H1B        -0.2500   -4.3930    1.5210 hc        1 LT6      0.084500
     32 HO1        11.8630   -3.6200   -0.0360 ho        1 LT6      0.254000
     33 H2          0.8340   -3.0870    2.1520 hc        1 LT6      0.084500
     34 H2A        -0.4610   -2.3200    0.1370 hc        1 LT6      0.118000
     35 HN2         8.1390    1.5400    5.0380 h4        1 LT6      0.123000
     36 H3         -2.0120   -2.7360    0.9630 hc        1 LT6      0.118000
     37 H3A         1.5180   -0.8350    0.6630 hx        1 LT6      0.094000
     38 H4          0.0690   -0.6220    1.9790 hc        1 LT6      0.084500
     39 H4A        -1.5070   -0.2690    1.1080 hc        1 LT6      0.084500
     40 H5          2.6990    2.1770    1.3600 hx        1 LT6      0.150000
     41 H5A         3.7200    0.7350    0.8560 hx        1 LT6      0.150000
     42 H5B         3.9900    1.5140    2.4980 hx        1 LT6      0.150000
     43 H8         16.7590   -0.3140    3.4250 ha        1 LT6      0.177000
     44 H10        14.1690    4.7840    4.1460 ha        1 LT6      0.207500
     45 H11        14.6780    1.9650    2.9020 ha        1 LT6      0.164000
     46 H12        14.5290   -0.1900    1.2430 hc        1 LT6      0.154000
     47 H12A       14.9550    5.1000    2.4850 ha        1 LT6      0.207500
     48 H13        14.5880   -1.1360    2.7890 hc        1 LT6      0.154000
     49 H14        10.0970   -2.4960    1.8360 ha        1 LT6      0.044000
     50 H14A       12.2680   -0.8640    2.0540 h4        1 LT6      0.173000
     51 H16         7.8080   -1.9880    3.1000 ha        1 LT6      0.007000
     52 H16A        8.4320   -1.7180    3.1000 ha        1 LT6      0.007000
     53 H18         6.3920   -2.7330    4.6670 ha        1 LT6      0.168500
     54 H19         4.5880   -3.2110    4.8470 ha        1 LT6      0.168500
     55 H20         4.7070   -0.3470    6.6550 ha        1 LT6      0.240000
     56 O3          5.9370   -0.1860    3.9650 os        1 LT6     -0.117000
     57 H6         17.8900    3.6190    4.6280 ha        1 LT6      0.196000
     58 H111        1.7290    0.8400    3.0850 hn        1 LT6      0.269000
     59 H22        11.2630    1.0110    3.1120 hn        1 LT6      0.186000
     60 F1          1.7660    0.4530    5.2260 f         1 LT6     -0.093000
     61 H7         18.2050    1.2990    4.3460 ha        1 LT6      0.178000
@<TRIPOS>BOND
     1    1    4 1   
     2    1   30 1   
     3    1   31 1   
     4    1   33 1   
     5    2    8 1   
     6    2   10 1   
     7    2   28 1   
     8    2   58 1   
     9    3   19 1   
    10    3   32 1   
    11    4    7 1   
    12    4   34 1   
    13    4   36 1   
    14    5   18 1   
    15    5   59 1   
    16    6   20 1   
    17    7   29 1   
    18    7   38 1   
    19    7   39 1   
    20    8   37 1   
    21    9   28 1   
    22   10   40 1   
    23   10   41 1   
    24   10   42 1   
    25   11   12 1   
    26   11   16 1   
    27   11   57 1   
    28   12   13 1   
    29   12   61 1   
    30   13   14 1   
    31   13   43 1   
    32   14   17 1   
    33   14   45 1   
    34   15   16 1   
    35   15   44 1   
    36   15   47 1   
    37   17   18 1   
    38   17   46 1   
    39   17   48 1   
    40   18   50 1   
    41   19   49 1   
    42   20   21 1   
    43   20   35 1   
    44   21   56 1   
    45   22   23 1   
    46   22   27 1   
    47   22   56 1   
    48   23   53 1   
    49   23   54 1   
    50   24   25 1   
    51   25   26 1   
    52   25   55 1   
    53   26   27 1   
    54   26   60 1   
    55   27   28 1   
    56   51   52 1   
@<TRIPOS>SUBSTRUCTURE
     1 LT6         1 TEMP              0 ****  ****    0 ROOT
