@<TRIPOS>MOLECULE
LTA
   37    36     1     0     0
SMALL
bcc


@<TRIPOS>ATOM
      1 N          -1.9640    0.6710   -0.8300 n3        1 LTA     -0.907800
      2 CA         -0.7510   -0.1220   -0.8180 c3        1 LTA      0.131500
      3 CB          0.2110    0.1190   -1.9910 c3        1 LTA     -0.118400
      4 CG         -0.4580   -0.0750   -3.3330 c3        1 LTA     -0.080400
      5 CD          0.5630   -0.0880   -4.4500 c3        1 LTA     -0.082400
      6 CE         -0.1350   -0.2280   -5.8020 c3        1 LTA      0.159800
      7 NZ          0.7820   -0.3270   -6.9120 n3        1 LTA     -0.916800
      8 C           0.0500    0.0770    0.4970 c3        1 LTA      0.150100
      9 O           0.4760    1.4170    0.6490 oh        1 LTA     -0.592800
     10 C2         -0.7660   -0.4020    1.6960 c3        1 LTA     -0.156400
     11 C1          0.1230   -0.7380    2.8530 c         1 LTA      0.635100
     12 O1          1.1250   -1.4560    2.8700 o         1 LTA     -0.545000
     13 O2         -0.2910   -0.1670    4.0230 os        1 LTA     -0.441900
     14 C9          0.5020   -0.4460    5.1910 c3        1 LTA      0.138400
     15 C10        -0.1490    0.2980    6.3320 c3        1 LTA     -0.100100
     16 H          -2.5270    0.4230   -1.6210 hn        1 LTA      0.349800
     17 H2         -1.7420    1.6470   -0.8900 hn        1 LTA      0.349800
     18 HA         -1.0690   -1.2070   -0.8500 h1        1 LTA      0.062700
     19 HB2         0.6350    1.1560   -1.9160 hc        1 LTA      0.058200
     20 HB3         1.0700   -0.5970   -1.8940 hc        1 LTA      0.058200
     21 HG2        -1.0300   -1.0410   -3.3350 hc        1 LTA      0.036700
     22 HG3        -1.1980    0.7490   -3.5170 hc        1 LTA      0.036700
     23 HD2         1.1620    0.8600   -4.4230 hc        1 LTA      0.050200
     24 HD3         1.2780   -0.9400   -4.3000 hc        1 LTA      0.050200
     25 HE2        -0.7530   -1.1720   -5.7960 h1        1 LTA      0.022700
     26 HE3        -0.8570    0.6360   -5.9120 h1        1 LTA      0.022700
     27 HZ1         0.2840   -0.2880   -7.7790 hn        1 LTA      0.349300
     28 HZ2         1.4600    0.4080   -6.8880 hn        1 LTA      0.349300
     29 HC          1.0130   -0.5090    0.4240 h1        1 LTA      0.098700
     30 HO         -0.2910    1.9500    0.8940 ho        1 LTA      0.404000
     31 H21        -1.3290   -1.3340    1.4240 hc        1 LTA      0.090200
     32 H22        -1.5140    0.3780    1.9970 hc        1 LTA      0.090200
     33 H91         1.5500   -0.0960    5.0050 h1        1 LTA      0.052200
     34 H92         0.5100   -1.5540    5.3620 h1        1 LTA      0.052200
     35 H101        0.4320    0.1110    7.2660 hc        1 LTA      0.047700
     36 H102       -0.1670    1.3940    6.1250 hc        1 LTA      0.047700
     37 H103       -1.2000   -0.0500    6.4780 hc        1 LTA      0.047700
@<TRIPOS>BOND
     1    1    2 1   
     2    1   16 1   
     3    1   17 1   
     4    2    3 1   
     5    2    8 1   
     6    2   18 1   
     7    3    4 1   
     8    3   19 1   
     9    3   20 1   
    10    4    5 1   
    11    4   21 1   
    12    4   22 1   
    13    5    6 1   
    14    5   23 1   
    15    5   24 1   
    16    6    7 1   
    17    6   25 1   
    18    6   26 1   
    19    7   27 1   
    20    7   28 1   
    21    8    9 1   
    22    8   10 1   
    23    8   29 1   
    24    9   30 1   
    25   10   11 1   
    26   10   31 1   
    27   10   32 1   
    28   11   12 2   
    29   11   13 1   
    30   13   14 1   
    31   14   15 1   
    32   14   33 1   
    33   14   34 1   
    34   15   35 1   
    35   15   36 1   
    36   15   37 1   
@<TRIPOS>SUBSTRUCTURE
     1 LTA         1 TEMP              0 ****  ****    0 ROOT
