@<TRIPOS>MOLECULE
LTB
   55    54     1     0     0
SMALL
bcc


@<TRIPOS>ATOM
      1 O1         -0.7230   -0.3410   -0.0810 o         1 LTB     -0.857800
      2 C1         -0.2120   -1.2950    0.5840 c         1 LTB      0.912600
      3 O2         -0.6410   -2.4820    0.5270 o         1 LTB     -0.857800
      4 C2          0.9650   -0.9780    1.5170 c3        1 LTB     -0.194400
      5 C3          2.2770   -1.0220    0.7650 c3        1 LTB     -0.063400
      6 C4          3.3640   -0.2350    1.4760 c3        1 LTB     -0.106400
      7 C5          4.3620    0.4120    0.5090 c3        1 LTB      0.166300
      8 O3          5.6570   -0.1710    0.6430 oh        1 LTB     -0.608800
      9 C6          4.4590    1.8960    0.6820 c2        1 LTB     -0.203200
     10 C7          3.4660    2.7790    0.5060 ce        1 LTB     -0.120000
     11 C8          2.1080    2.4350    0.1550 ce        1 LTB     -0.148000
     12 C9          1.1190    3.3290   -0.0320 cf        1 LTB     -0.117000
     13 C10        -0.2200    2.8890   -0.3680 cf        1 LTB     -0.134000
     14 C11        -1.2470    3.7290   -0.5490 c2        1 LTB     -0.216200
     15 C12        -2.6180    3.2840   -0.9460 c3        1 LTB      0.177300
     16 C20        -3.4600   -5.7100    0.6740 c3        1 LTB     -0.090100
     17 O12        -3.5340    4.3720   -0.8340 oh        1 LTB     -0.617800
     18 C19        -4.2160   -4.6280   -0.0540 c3        1 LTB     -0.068400
     19 C18        -3.8140   -3.2540    0.4350 c3        1 LTB     -0.109400
     20 C17        -4.5790   -2.1650   -0.2860 c3        1 LTB     -0.057400
     21 C16        -4.0420   -0.7980    0.0910 c3        1 LTB     -0.081200
     22 C15        -4.8040    0.2940   -0.5550 c2        1 LTB     -0.151200
     23 C13        -3.0940    2.0660   -0.1570 c3        1 LTB     -0.095200
     24 H21C        0.7980    0.0430    1.9470 hc        1 LTB      0.027200
     25 H22C        0.9800   -1.7150    2.3580 hc        1 LTB      0.027200
     26 H31C        2.6050   -2.0870    0.6410 hc        1 LTB      0.044700
     27 H32C        2.1100   -0.6180   -0.2700 hc        1 LTB      0.044700
     28 H41C        2.8990    0.5690    2.1060 hc        1 LTB      0.040700
     29 H42C        3.9190   -0.9170    2.1720 hc        1 LTB      0.040700
     30 H5          4.0870    0.1770   -0.5620 h1        1 LTB      0.089700
     31 H3          5.9120   -0.0910    1.5690 ho        1 LTB      0.388000
     32 H6          5.4680    2.2530    0.9480 ha        1 LTB      0.113000
     33 H7          3.6730    3.8570    0.6380 ha        1 LTB      0.107000
     34 H8          1.8810    1.3550    0.0550 ha        1 LTB      0.165000
     35 H9          1.2910    4.4130    0.0640 ha        1 LTB      0.102000
     36 H10        -0.3540    1.7840   -0.4550 ha        1 LTB      0.204000
     37 H11        -1.1310    4.8210   -0.4520 ha        1 LTB      0.109000
     38 H12        -2.6260    3.0490   -2.0510 h1        1 LTB      0.077700
     39 HA         -3.6860    4.5140    0.1070 ho        1 LTB      0.390000
     40 H131       -2.3090    1.2540   -0.2130 hc        1 LTB      0.086200
     41 H132       -3.1980    2.3460    0.9260 hc        1 LTB      0.086200
     42 H14        -5.0250    2.3180   -1.1530 ha        1 LTB      0.108000
     43 H15        -5.7880    0.0090   -0.9660 ha        1 LTB      0.096000
     44 H161       -4.0990   -0.6710    1.2070 hc        1 LTB      0.087700
     45 H162       -2.9410   -0.7450   -0.1760 hc        1 LTB      0.087700
     46 H171       -4.4820   -2.3080   -1.3940 hc        1 LTB      0.015700
     47 H172       -5.6710   -2.2350   -0.0380 hc        1 LTB      0.015700
     48 H201       -2.3590   -5.5540    0.5610 hc        1 LTB      0.028033
     49 H202       -3.7030   -5.6940    1.7640 hc        1 LTB      0.028033
     50 H203       -3.7240   -6.7160    0.2680 hc        1 LTB      0.028033
     51 H181       -4.0060   -3.1780    1.5370 hc        1 LTB      0.078200
     52 H182       -2.7050   -3.0970    0.2840 hc        1 LTB      0.078200
     53 H191       -4.0120   -4.7050   -1.1540 hc        1 LTB      0.019700
     54 H192       -5.3200   -4.7770    0.0870 hc        1 LTB      0.019700
     55 C14        -4.3910    1.5620   -0.6610 c2        1 LTB     -0.193200
@<TRIPOS>BOND
     1    1    2 1   
     2    2    3 1   
     3    2    4 1   
     4    4    5 1   
     5    4   24 1   
     6    4   25 1   
     7    5    6 1   
     8    5   26 1   
     9    5   27 1   
    10    6    7 1   
    11    6   28 1   
    12    6   29 1   
    13    7    8 1   
    14    7    9 1   
    15    7   30 1   
    16    8   31 1   
    17    9   10 2   
    18    9   32 1   
    19   10   11 1   
    20   10   33 1   
    21   11   12 2   
    22   11   34 1   
    23   12   13 1   
    24   12   35 1   
    25   13   14 2   
    26   13   36 1   
    27   14   15 1   
    28   14   37 1   
    29   15   17 1   
    30   15   23 1   
    31   15   38 1   
    32   16   18 1   
    33   16   48 1   
    34   16   49 1   
    35   16   50 1   
    36   17   39 1   
    37   18   19 1   
    38   18   53 1   
    39   18   54 1   
    40   19   20 1   
    41   19   51 1   
    42   19   52 1   
    43   20   21 1   
    44   20   46 1   
    45   20   47 1   
    46   21   22 1   
    47   21   44 1   
    48   21   45 1   
    49   22   43 1   
    50   22   55 2   
    51   23   40 1   
    52   23   41 1   
    53   23   55 1   
    54   42   55 1   
@<TRIPOS>SUBSTRUCTURE
     1 LTB         1 TEMP              0 ****  ****    0 ROOT
