@<TRIPOS>MOLECULE
LTB
   55    49     1     0     0
SMALL
bcc


@<TRIPOS>ATOM
      1 O1          5.6700    0.6330    8.4160 o         1 LTB     -0.586000
      2 C1          4.8850    1.6150    8.4850 c1        1 LTB      0.330000
      3 O2          5.3440    2.7830    8.5400 os        1 LTB     -0.601000
      4 C2          3.3940    1.3850    8.5680 c3        1 LTB     -0.216000
      5 C3          2.7930    1.4590    7.1790 c3        1 LTB     -0.151000
      6 C4          1.3960    0.8870    7.2030 c3        1 LTB     -0.181000
      7 C5          0.7920    0.9740    5.8200 c3        1 LTB      0.054000
      8 O3         -0.4530    1.6300    5.8900 oh        1 LTB     -0.349000
      9 C6          0.5960   -0.4220    5.2660 c2        1 LTB     -0.148000
     10 C7          0.0900   -0.5910    4.0220 c1        1 LTB     -0.130000
     11 C8         -0.2810    0.6160    3.1830 c1        1 LTB     -0.135000
     12 C9         -0.4560    0.4850    1.8430 c1        1 LTB     -0.135000
     13 C10        -0.2790   -0.8740    1.1830 c1        1 LTB     -0.135000
     14 C11        -0.7050   -1.0700   -0.0960 c1        1 LTB     -0.135000
     15 C12        -1.3540    0.0640   -0.8620 c2        1 LTB      0.056000
     16 C20        -1.2150   -0.4120  -10.1030 c3        1 LTB     -0.208000
     17 O12        -2.7320    0.0750   -0.6030 oh        1 LTB     -0.344000
     18 C19        -0.7390   -1.1640   -8.8800 c3        1 LTB     -0.148000
     19 C18        -1.3200   -0.5270   -7.6380 c3        1 LTB     -0.186000
     20 C17        -1.0870   -1.4330   -6.4500 c3        1 LTB     -0.135000
     21 C16        -1.3180   -0.6560   -5.1690 c3        1 LTB     -0.170000
     22 C15        -2.0780   -1.5200   -4.1840 c2        1 LTB     -0.138000
     23 C14        -1.9860   -1.2730   -2.8520 c1        1 LTB     -0.198000
     24 C13        -1.1200   -0.1320   -2.3490 c2        1 LTB     -0.176000
     25 H21C        3.2200    0.5020    8.9520 hc        1 LTB      0.064500
     26 H22C        2.9890    2.0720    9.1350 hc        1 LTB      0.064500
     27 H31C        2.7590    2.3920    6.8880 hc        1 LTB      0.090500
     28 H32C        3.3470    0.9420    6.5560 hc        1 LTB      0.090500
     29 H41C        0.8460    1.3970    7.8310 hc        1 LTB      0.076000
     30 H42C        1.4310   -0.0490    7.4850 hc        1 LTB      0.076000
     31 H5          1.3900    1.4750    5.2350 h1        1 LTB      0.080000
     32 H3         -0.3720    2.3710    6.3790 ho        1 LTB      0.195000
     33 H6          0.8350   -1.2000    5.8060 ha        1 LTB      0.126000
     34 H7         -0.0360   -1.4900    3.6650 ha        1 LTB      0.114000
     35 H8         -0.3950    1.4900    3.6070 ha        1 LTB      0.121250
     36 H9         -0.6950    1.2630    1.3020 ha        1 LTB      0.121250
     37 H10         0.1380   -1.6050    1.6760 ha        1 LTB      0.121250
     38 H11        -0.5910   -1.9440   -0.5190 ha        1 LTB      0.121250
     39 H12        -0.9620    0.9140   -0.5800 h4        1 LTB      0.112000
     40 HA         -3.0160    0.9150   -0.5440 ho        1 LTB      0.195000
     41 H131       -0.1770   -0.3440   -2.5060 ha        1 LTB      0.138500
     42 H132       -1.3530    0.6910   -2.8280 ha        1 LTB      0.138500
     43 H14        -2.4750   -1.8290   -2.2190 ha        1 LTB      0.094000
     44 H15        -2.6360   -2.2540   -4.5080 ha        1 LTB      0.098000
     45 H161       -0.4580   -0.4020   -4.7830 hc        1 LTB      0.131000
     46 H162       -1.8380    0.1510   -5.3660 hc        1 LTB      0.131000
     47 H171       -1.7070   -2.1890   -6.4900 hc        1 LTB      0.055000
     48 H172       -0.1670   -1.7640   -6.4690 hc        1 LTB      0.055000
     49 H201       -2.1500   -0.6450  -10.2870 hc        1 LTB      0.066333
     50 H202       -0.6580   -0.6560  -10.8750 hc        1 LTB      0.066333
     51 H203       -1.1440    0.5520   -9.9420 hc        1 LTB      0.066333
     52 H181       -2.2810   -0.3910   -7.7600 hc        1 LTB      0.116500
     53 H182       -0.8870    0.3340   -7.4810 hc        1 LTB      0.116500
     54 H191       -1.0320   -2.0970   -8.9360 hc        1 LTB      0.059500
     55 H192        0.2360   -1.1310   -8.8370 hc        1 LTB      0.059500
@<TRIPOS>BOND
     1    1    2 1   
     2    2    4 1   
     3    4    5 1   
     4    4   25 1   
     5    4   26 1   
     6    5    6 1   
     7    5   27 1   
     8    5   28 1   
     9    6    7 1   
    10    6   29 1   
    11    6   30 1   
    12    7    8 1   
    13    7    9 1   
    14    7   31 1   
    15    8   32 1   
    16    9   10 1   
    17    9   33 1   
    18   10   34 1   
    19   11   12 1   
    20   11   35 1   
    21   12   36 1   
    22   13   14 1   
    23   13   37 1   
    24   14   38 1   
    25   15   17 1   
    26   15   24 1   
    27   15   39 1   
    28   16   18 1   
    29   16   49 1   
    30   16   50 1   
    31   16   51 1   
    32   17   40 1   
    33   18   19 1   
    34   18   54 1   
    35   18   55 1   
    36   19   20 1   
    37   19   52 1   
    38   19   53 1   
    39   20   21 1   
    40   20   47 1   
    41   20   48 1   
    42   21   22 1   
    43   21   45 1   
    44   21   46 1   
    45   22   23 1   
    46   22   44 1   
    47   23   43 1   
    48   24   41 1   
    49   24   42 1   
@<TRIPOS>SUBSTRUCTURE
     1 LTB         1 TEMP              0 ****  ****    0 ROOT
