@<TRIPOS>MOLECULE
LTF
   42    43     1     0     0
SMALL
bcc


@<TRIPOS>ATOM
      1 CAO        -5.1170    3.4210    0.1430 c3        1 LTF     -0.092100
      2 CAN        -4.1160    2.3540    0.5040 c3        1 LTF     -0.077400
      3 CAK        -3.3090    1.9250   -0.7090 c3        1 LTF     -0.028100
      4 CAJ        -2.3070    0.8800   -0.3610 ca        1 LTF     -0.086300
      5 CAI        -0.9830    1.2390   -0.1010 ca        1 LTF     -0.084000
      6 CAM        -2.6840   -0.4760   -0.2880 ca        1 LTF      0.131100
      7 OAV        -4.0230   -0.7340   -0.4870 os        1 LTF     -0.324900
      8 CAP        -4.3620   -1.9930   -1.0670 c3        1 LTF      0.122700
      9 CAL        -1.7170   -1.4550    0.0460 ca        1 LTF      0.058100
     10 OAU        -2.1640   -2.7640    0.1020 os        1 LTF     -0.334900
     11 CAQ        -1.1940   -3.7480    0.4440 c3        1 LTF      0.112700
     12 CAH        -0.3940   -1.0830    0.2950 ca        1 LTF     -0.132000
     13 CAG        -0.0300    0.2680    0.2210 ca        1 LTF     -0.137900
     14 CAF         1.3520    0.6610    0.4820 ce        1 LTF      0.671200
     15 N           2.3950   -0.0860    0.7580 n2        1 LTF     -0.663900
     16 OAR         1.6040    2.0450    0.4400 os        1 LTF     -0.447400
     17 CB          3.0110    2.2350    0.7250 c3        1 LTF      0.099400
     18 CA          3.5510    0.7920    0.9540 c3        1 LTF      0.012500
     19 C           4.7220    0.4750    0.0250 c         1 LTF      0.606100
     20 O           5.3470    1.3690   -0.5670 o         1 LTF     -0.566100
     21 NAB         5.1870   -0.8700    0.0200 n         1 LTF     -0.345400
     22 OAS         5.9540   -1.1940   -1.0240 oh        1 LTF     -0.435100
     23 H1         -5.8290    3.0480   -0.6320 hc        1 LTF      0.033033
     24 H2         -5.7020    3.7200    1.0460 hc        1 LTF      0.033033
     25 H3         -4.6020    4.3260   -0.2600 hc        1 LTF      0.033033
     26 H4         -3.4240    2.7360    1.2990 hc        1 LTF      0.047700
     27 H5         -4.6470    1.4570    0.9210 hc        1 LTF      0.047700
     28 H6         -4.0080    1.5200   -1.4900 hc        1 LTF      0.053700
     29 H7         -2.7890    2.8180   -1.1480 hc        1 LTF      0.053700
     30 H8         -0.6850    2.2990   -0.1560 ha        1 LTF      0.160000
     31 H9         -5.3870   -1.8200   -1.4840 h1        1 LTF      0.048700
     32 H10        -3.6440   -2.2780   -1.8710 h1        1 LTF      0.048700
     33 H11        -4.3850   -2.7750   -0.2690 h1        1 LTF      0.048700
     34 H12        -0.7770   -3.5550    1.4620 h1        1 LTF      0.047700
     35 H13        -1.7820   -4.7020    0.4330 h1        1 LTF      0.047700
     36 H14        -0.3780   -3.7800   -0.3180 h1        1 LTF      0.047700
     37 H15         0.3620   -1.8400    0.5540 ha        1 LTF      0.160000
     38 H19         3.4690    2.7430   -0.1580 h1        1 LTF      0.085700
     39 H20         3.0770    2.8660    1.6430 h1        1 LTF      0.085700
     40 H21         3.9240    0.6710    2.0120 h1        1 LTF      0.103700
     41 H22         4.4430   -1.5580    0.0810 hn        1 LTF      0.320500
     42 H23         6.8070   -0.7360   -0.8830 ho        1 LTF      0.433000
@<TRIPOS>BOND
     1    1    2 1   
     2    1   23 1   
     3    1   24 1   
     4    1   25 1   
     5    2    3 1   
     6    2   26 1   
     7    2   27 1   
     8    3    4 1   
     9    3   28 1   
    10    3   29 1   
    11    4    5 ar  
    12    4    6 ar  
    13    5   13 ar  
    14    5   30 1   
    15    6    7 1   
    16    6    9 ar  
    17    7    8 1   
    18    8   31 1   
    19    8   32 1   
    20    8   33 1   
    21    9   10 1   
    22    9   12 ar  
    23   10   11 1   
    24   11   34 1   
    25   11   35 1   
    26   11   36 1   
    27   12   13 ar  
    28   12   37 1   
    29   13   14 1   
    30   14   15 2   
    31   14   16 1   
    32   15   18 1   
    33   16   17 1   
    34   17   18 1   
    35   17   38 1   
    36   17   39 1   
    37   18   19 1   
    38   18   40 1   
    39   19   20 2   
    40   19   21 1   
    41   21   22 1   
    42   21   41 1   
    43   22   42 1   
@<TRIPOS>SUBSTRUCTURE
     1 LTF         1 TEMP              0 ****  ****    0 ROOT
