@<TRIPOS>MOLECULE
LTF
   43    44     1     0     0
SMALL
bcc


@<TRIPOS>ATOM
      1 CAO         0.0040    0.0880    0.1200 c3        1 LTF     -0.095100
      2 CAN         1.5090    0.0220    0.1450 c3        1 LTF     -0.075400
      3 CAK         2.0260   -0.1060    1.5670 c3        1 LTF     -0.034100
      4 CAJ         3.5140   -0.1900    1.6070 ca        1 LTF     -0.098300
      5 CAI         4.1410   -1.4290    1.6810 ca        1 LTF     -0.049000
      6 CAM         4.2980    0.9910    1.5670 ca        1 LTF      0.192100
      7 OAV         3.5720    2.1450    1.4980 os        1 LTF     -0.305900
      8 CAP         4.2490    3.4020    1.5250 c3        1 LTF      0.119700
      9 CAL         5.7140    0.8850    1.6020 ca        1 LTF      0.037100
     10 OAU         6.4330    2.0670    1.5950 os        1 LTF     -0.330900
     11 CAQ         7.7810    1.9780    1.1380 c3        1 LTF      0.111700
     12 CAH         6.3270   -0.3630    1.6890 ca        1 LTF     -0.103000
     13 CAG         5.5400   -1.5250    1.7300 ca        1 LTF     -0.212900
     14 CAF         6.1690   -2.8280    1.8200 ce        1 LTF      0.764200
     15 N           7.4370   -3.1450    2.0410 n2        1 LTF     -0.780900
     16 OAR         5.3190   -3.9290    1.6520 os        1 LTF     -0.413400
     17 CB          6.1150   -5.1330    1.7380 c3        1 LTF      0.101400
     18 CA          7.5570   -4.5970    2.0050 c3        1 LTF      0.031500
     19 C           8.1340   -5.1780    3.2800 c         1 LTF      0.549100
     20 O           7.9320   -6.2470    3.8180 o         1 LTF     -0.383100
     21 NAB         9.1760   -4.2930    3.9990 n4        1 LTF     -0.450300
     22 OAS        10.1760   -3.8960    3.1840 oh        1 LTF     -0.359300
     23 H1         -0.4410   -0.8360    0.5620 hc        1 LTF      0.039700
     24 H2         -0.3630    0.9680    0.7030 hc        1 LTF      0.039700
     25 H3         -0.3590    0.1870   -0.9320 hc        1 LTF      0.039700
     26 H4          1.9390    0.9500   -0.3180 hc        1 LTF      0.045700
     27 H5          1.8600   -0.8520   -0.4640 hc        1 LTF      0.045700
     28 H6          1.5830   -1.0200    2.0460 hc        1 LTF      0.062700
     29 H7          1.6890    0.7850    2.1640 hc        1 LTF      0.062700
     30 H8          3.5280   -2.3460    1.7020 ha        1 LTF      0.162000
     31 H9          4.8870    3.5180    0.6160 h1        1 LTF      0.062033
     32 H10         3.4020    4.1360    1.5170 h1        1 LTF      0.062033
     33 H11         4.8570    3.5010    2.4550 h1        1 LTF      0.062033
     34 H12         8.4200    1.5070    1.9240 h1        1 LTF      0.050700
     35 H13         7.8470    1.4080    0.1810 h1        1 LTF      0.050700
     36 H14         8.0730    3.0490    0.9870 h1        1 LTF      0.050700
     37 H15         7.4250   -0.4360    1.7140 ha        1 LTF      0.150000
     38 H19         6.0380   -5.6540    0.7520 h1        1 LTF      0.107200
     39 H20         5.6980   -5.7550    2.5670 h1        1 LTF      0.107200
     40 H21         8.2680   -4.9100    1.1810 h1        1 LTF      0.135700
     41 H22         9.6400   -4.8440    4.7550 hn        1 LTF      0.480300
     42 H23         9.8250   -3.2500    2.5260 ho        1 LTF      0.491000
     43 HAB2        8.6970   -3.4780    4.4250 hn        1 LTF      0.480300
@<TRIPOS>BOND
     1    1    2 1   
     2    1   23 1   
     3    1   24 1   
     4    1   25 1   
     5    2    3 1   
     6    2   26 1   
     7    2   27 1   
     8    3    4 1   
     9    3   28 1   
    10    3   29 1   
    11    4    5 ar  
    12    4    6 ar  
    13    5   13 ar  
    14    5   30 1   
    15    6    7 1   
    16    6    9 ar  
    17    7    8 1   
    18    8   31 1   
    19    8   32 1   
    20    8   33 1   
    21    9   10 1   
    22    9   12 ar  
    23   10   11 1   
    24   11   34 1   
    25   11   35 1   
    26   11   36 1   
    27   12   13 ar  
    28   12   37 1   
    29   13   14 1   
    30   14   15 2   
    31   14   16 1   
    32   15   18 1   
    33   16   17 1   
    34   17   18 1   
    35   17   38 1   
    36   17   39 1   
    37   18   19 1   
    38   18   40 1   
    39   19   20 2   
    40   19   21 1   
    41   21   22 1   
    42   21   41 1   
    43   21   43 1   
    44   22   42 1   
@<TRIPOS>SUBSTRUCTURE
     1 LTF         1 TEMP              0 ****  ****    0 ROOT
