@<TRIPOS>MOLECULE
LTF
   43    44     1     0     0
SMALL
bcc


@<TRIPOS>ATOM
      1 CAO        -0.0090    0.0860    0.1620 c3        1 LTF     -0.095100
      2 CAN         1.4960    0.0230    0.1760 c3        1 LTF     -0.075400
      3 CAK         2.0240   -0.1130    1.5930 c3        1 LTF     -0.034100
      4 CAJ         3.5110   -0.1930    1.6230 ca        1 LTF     -0.098300
      5 CAI         4.1420   -1.4320    1.6860 ca        1 LTF     -0.049000
      6 CAM         4.2930    0.9890    1.5840 ca        1 LTF      0.192100
      7 OAV         3.5640    2.1420    1.5270 os        1 LTF     -0.305900
      8 CAP         4.2390    3.4010    1.5540 c3        1 LTF      0.119700
      9 CAL         5.7100    0.8860    1.6100 ca        1 LTF      0.037100
     10 OAU         6.4260    2.0700    1.6030 os        1 LTF     -0.330900
     11 CAQ         7.7710    1.9860    1.1390 c3        1 LTF      0.111700
     12 CAH         6.3260   -0.3610    1.6850 ca        1 LTF     -0.103000
     13 CAG         5.5420   -1.5250    1.7260 ca        1 LTF     -0.212900
     14 CAF         6.1740   -2.8270    1.8040 ce        1 LTF      0.764200
     15 N           7.4440   -3.1430    2.0150 n2        1 LTF     -0.780900
     16 OAR         5.3250   -3.9290    1.6350 os        1 LTF     -0.413400
     17 CB          6.1250   -5.1320    1.7090 c3        1 LTF      0.101400
     18 CA          7.5660   -4.5940    1.9700 c3        1 LTF      0.031500
     19 C           8.1530   -5.1810    3.2380 c         1 LTF      0.549100
     20 O           7.9570   -6.2540    3.7710 o         1 LTF     -0.383100
     21 NAB         9.1970   -4.2980    3.9570 ny        1 LTF     -0.450300
     22 OAS        10.1920   -3.8930    3.1380 oh        1 LTF     -0.359300
     23 H1         -0.4490   -0.8420    0.6000 hc        1 LTF      0.039700
     24 H2         -0.3790    0.1910   -0.8870 hc        1 LTF      0.039700
     25 H3         -0.3730    0.9610    0.7530 hc        1 LTF      0.039700
     26 H4          1.9210    0.9550   -0.2840 hc        1 LTF      0.045700
     27 H5          1.8460   -0.8460   -0.4410 hc        1 LTF      0.045700
     28 H6          1.6890    0.7740    2.1980 hc        1 LTF      0.062200
     29 H7          1.5860   -1.0310    2.0690 hc        1 LTF      0.062200
     30 H8          3.5310   -2.3500    1.7060 ha        1 LTF      0.162000
     31 H9          4.8700    3.5220    0.6420 h1        1 LTF      0.062033
     32 H10         4.8530    3.4970    2.4810 h1        1 LTF      0.062033
     33 H11         3.3900    4.1330    1.5560 h1        1 LTF      0.062033
     34 H12         7.8320    1.4220    0.1770 h1        1 LTF      0.050700
     35 H13         8.0600    3.0580    0.9910 h1        1 LTF      0.050700
     36 H14         8.4160    1.5120    1.9180 h1        1 LTF      0.050700
     37 H15         7.4240   -0.4310    1.7020 ha        1 LTF      0.150000
     38 H19         5.7140   -5.7600    2.5370 h1        1 LTF      0.107200
     39 H20         6.0430   -5.6470    0.7210 h1        1 LTF      0.107200
     40 H21         8.2730   -4.9010    1.1400 h1        1 LTF      0.135700
     41 H22         9.6670   -4.8520    4.7050 hn        1 LTF      0.480300
     42 H23         9.8340   -3.2440    2.4860 ho        1 LTF      0.491000
     43 HAB2        8.7190   -3.4870    4.3900 hn        1 LTF      0.480300
@<TRIPOS>BOND
     1    1    2 1   
     2    1   23 1   
     3    1   24 1   
     4    1   25 1   
     5    2    3 1   
     6    2   26 1   
     7    2   27 1   
     8    3    4 1   
     9    3   28 1   
    10    3   29 1   
    11    4    5 ar  
    12    4    6 ar  
    13    5   13 ar  
    14    5   30 1   
    15    6    7 1   
    16    6    9 ar  
    17    7    8 1   
    18    8   31 1   
    19    8   32 1   
    20    8   33 1   
    21    9   10 1   
    22    9   12 ar  
    23   10   11 1   
    24   11   34 1   
    25   11   35 1   
    26   11   36 1   
    27   12   13 ar  
    28   12   37 1   
    29   13   14 1   
    30   14   15 2   
    31   14   16 1   
    32   15   18 1   
    33   16   17 1   
    34   17   18 1   
    35   17   38 1   
    36   17   39 1   
    37   18   19 1   
    38   18   40 1   
    39   19   20 2   
    40   19   21 1   
    41   21   22 1   
    42   21   41 1   
    43   21   43 1   
    44   22   42 1   
@<TRIPOS>SUBSTRUCTURE
     1 LTF         1 TEMP              0 ****  ****    0 ROOT
