@<TRIPOS>MOLECULE
LTF
   43    44     1     0     0
SMALL
bcc


@<TRIPOS>ATOM
      1 CAO        -0.0680    0.0450    0.2670 c3        1 LTF     -0.095100
      2 CAN         1.4380    0.0310    0.2470 c3        1 LTF     -0.075400
      3 CAK         2.0020   -0.1580    1.6430 c3        1 LTF     -0.034100
      4 CAJ         3.4920   -0.1910    1.6370 ca        1 LTF     -0.099300
      5 CAI         4.1630   -1.4090    1.6250 ca        1 LTF     -0.051000
      6 CAM         4.2340    1.0180    1.6410 ca        1 LTF      0.191100
      7 OAV         3.4670    2.1470    1.6560 os        1 LTF     -0.305900
      8 CAP         4.1010    3.4250    1.7310 c3        1 LTF      0.119700
      9 CAL         5.6530    0.9610    1.6310 ca        1 LTF      0.038100
     10 OAU         6.3300    2.1670    1.6660 os        1 LTF     -0.331900
     11 CAQ         7.6760    2.1460    1.1980 c3        1 LTF      0.111700
     12 CAH         6.3110   -0.2680    1.6310 ca        1 LTF     -0.104000
     13 CAG         5.5650   -1.4580    1.6290 ca        1 LTF     -0.211900
     14 CAF         6.2420   -2.7400    1.6270 ce        1 LTF      0.757200
     15 N           7.5270   -3.0190    1.7870 n2        1 LTF     -0.759900
     16 OAR         5.4240   -3.8620    1.4300 os        1 LTF     -0.414400
     17 CB          6.2660   -5.0360    1.4200 c3        1 LTF      0.100400
     18 CA          7.6960   -4.4610    1.6650 c3        1 LTF      0.035500
     19 C           8.3430   -5.0980    2.8810 c         1 LTF      0.544100
     20 O           8.2320   -6.2230    3.3300 o         1 LTF     -0.404100
     21 NAB         9.3290   -4.1880    3.6340 n4        1 LTF     -0.456300
     22 OAS        10.1780   -4.8330    4.4630 oh        1 LTF     -0.361300
     23 H1         -0.4660    0.1890   -0.7660 hc        1 LTF      0.039700
     24 H2         -0.4470    0.8770    0.9100 hc        1 LTF      0.039700
     25 H3         -0.4690   -0.9180    0.6680 hc        1 LTF      0.039700
     26 H4          1.8000   -0.7940   -0.4200 hc        1 LTF      0.045200
     27 H5          1.8220    0.9980   -0.1750 hc        1 LTF      0.045200
     28 H6          1.6050   -1.1120    2.0820 hc        1 LTF      0.061700
     29 H7          1.6530    0.6860    2.2990 hc        1 LTF      0.061700
     30 H8          3.5820   -2.3470    1.6120 ha        1 LTF      0.161000
     31 H9          4.7330    3.4960    2.6490 h1        1 LTF      0.061367
     32 H10         3.2300    4.1280    1.7860 h1        1 LTF      0.061367
     33 H11         4.7080    3.6110    0.8130 h1        1 LTF      0.061367
     34 H12         8.3370    1.6570    1.9540 h1        1 LTF      0.051033
     35 H13         7.7530    1.6290    0.2110 h1        1 LTF      0.051033
     36 H14         7.9320    3.2320    1.1000 h1        1 LTF      0.051033
     37 H15         7.4110   -0.3040    1.6210 ha        1 LTF      0.153000
     38 H19         5.9020   -5.7200    2.2250 h1        1 LTF      0.106200
     39 H20         6.1730   -5.5050    0.4090 h1        1 LTF      0.106200
     40 H21         8.3860   -4.7010    0.8000 h1        1 LTF      0.136700
     41 H22         9.9270   -3.6850    2.9460 hn        1 LTF      0.494300
     42 H23         9.7360   -5.6440    4.8150 ho        1 LTF      0.483000
     43 HAB2        8.7940   -3.4780    4.1740 hn        1 LTF      0.494300
@<TRIPOS>BOND
     1    1    2 1   
     2    1   23 1   
     3    1   24 1   
     4    1   25 1   
     5    2    3 1   
     6    2   26 1   
     7    2   27 1   
     8    3    4 1   
     9    3   28 1   
    10    3   29 1   
    11    4    5 ar  
    12    4    6 ar  
    13    5   13 ar  
    14    5   30 1   
    15    6    7 1   
    16    6    9 ar  
    17    7    8 1   
    18    8   31 1   
    19    8   32 1   
    20    8   33 1   
    21    9   10 1   
    22    9   12 ar  
    23   10   11 1   
    24   11   34 1   
    25   11   35 1   
    26   11   36 1   
    27   12   13 ar  
    28   12   37 1   
    29   13   14 1   
    30   14   15 2   
    31   14   16 1   
    32   15   18 1   
    33   16   17 1   
    34   17   18 1   
    35   17   38 1   
    36   17   39 1   
    37   18   19 1   
    38   18   40 1   
    39   19   20 2   
    40   19   21 1   
    41   21   22 1   
    42   21   41 1   
    43   21   43 1   
    44   22   42 1   
@<TRIPOS>SUBSTRUCTURE
     1 LTF         1 TEMP              0 ****  ****    0 ROOT
