@<TRIPOS>MOLECULE
LTG
   24    21     1     0     0
SMALL
bcc


@<TRIPOS>ATOM
      1 C5          1.4220    0.6400   -0.5610 c3        1 LTG      0.110400
      2 C4          0.5300   -1.7500    2.6820 c         1 LTG      0.564700
      3 O4          1.5330   -1.9050    3.3770 o         1 LTG     -0.553100
      4 C3          5.0910   -0.3610    1.3780 c         1 LTG      0.494900
      5 O3          4.1330   -0.4770    0.6170 o         1 LTG     -0.514100
      6 C2          4.9470   -0.1080    2.8520 c         1 LTG      0.429100
      7 O5          1.3090   -0.7570   -0.3370 oh        1 LTG     -0.616300
      8 C1          4.8250   -1.3420    3.7100 c3        1 LTG      0.028400
      9 O1          5.2640   -1.1110    5.0290 oh        1 LTG     -0.578800
     10 C6          0.0270    1.2260   -0.3670 c3        1 LTG      0.110400
     11 O6         -0.8730    0.7760   -1.3580 oh        1 LTG     -0.616300
     12 H1          2.1440    1.0920    0.1690 h1        1 LTG      0.044200
     13 H2          1.7820    0.8240   -1.6080 h1        1 LTG      0.044200
     14 H3         -0.4620   -2.1410    2.9940 h4        1 LTG     -0.006800
     15 H4          0.5610   -1.2140    1.7070 h4        1 LTG     -0.006800
     16 H5          6.1450   -0.4440    1.0270 h4        1 LTG      0.026200
     17 H6          2.2060   -1.1140   -0.3490 ho        1 LTG      0.418500
     18 H7          3.7480   -1.6780    3.6960 h1        1 LTG      0.093700
     19 H8          5.4850   -2.1650    3.3250 h1        1 LTG      0.093700
     20 H9          4.7750   -0.3480    5.3680 ho        1 LTG      0.419000
     21 H10        -0.3610    0.9560    0.6520 h1        1 LTG      0.044200
     22 H11         0.0570    2.3410   -0.4820 h1        1 LTG      0.044200
     23 H12        -0.8200   -0.1890   -1.3700 ho        1 LTG      0.418500
     24 O2          4.9520    1.0320    3.3190 o         1 LTG     -0.492100
@<TRIPOS>BOND
     1    1    7 1   
     2    1   10 1   
     3    1   12 1   
     4    1   13 1   
     5    2    3 2   
     6    2   14 1   
     7    2   15 1   
     8    4    5 2   
     9    4    6 1   
    10    4   16 1   
    11    6    8 1   
    12    6   24 2   
    13    7   17 1   
    14    8    9 1   
    15    8   18 1   
    16    8   19 1   
    17    9   20 1   
    18   10   11 1   
    19   10   21 1   
    20   10   22 1   
    21   11   23 1   
@<TRIPOS>SUBSTRUCTURE
     1 LTG         1 TEMP              0 ****  ****    0 ROOT
