@<TRIPOS>MOLECULE
LTG
   24    22     1     0     0
SMALL
bcc


@<TRIPOS>ATOM
      1 C5          0.7600    0.6080   -0.9030 c3        1 LTG      0.109900
      2 C4          2.6440    0.8460    4.0830 c         1 LTG      0.554900
      3 O4          2.1510    0.1230    4.9450 o         1 LTG     -0.509100
      4 C3          3.1230    0.3090    2.7460 c3        1 LTG     -0.087900
      5 O3          3.5090    1.3860    1.9130 oh        1 LTG     -0.593800
      6 C2          4.2370   -0.7040    2.9200 c         1 LTG      0.517100
      7 O5          1.7570    0.1060   -0.0260 oh        1 LTG     -0.616800
      8 C1          3.8330   -2.0610    3.4280 c3        1 LTG      0.034400
      9 O1          4.9280   -2.8090    3.9030 oh        1 LTG     -0.577800
     10 C6         -0.1580   -0.5640   -1.2370 c3        1 LTG      0.109900
     11 O6          0.5230   -1.5650   -1.9640 oh        1 LTG     -0.616800
     12 H1          0.1810    1.4240   -0.3960 h1        1 LTG      0.043950
     13 H2          1.2350    1.0090   -1.8370 h1        1 LTG      0.043950
     14 H3          2.7490    1.9470    4.2000 h4        1 LTG      0.025200
     15 H4          2.2510   -0.1750    2.2070 h1        1 LTG      0.140700
     16 H5          4.4430    1.5780    2.0820 ho        1 LTG      0.428000
     17 H6          2.4080    0.8110    0.0950 ho        1 LTG      0.418500
     18 H7          3.3130   -2.6120    2.5960 h1        1 LTG      0.089200
     19 H8          3.1380   -1.9580    4.3090 h1        1 LTG      0.089200
     20 H9          5.6430   -2.7310    3.2550 ho        1 LTG      0.416000
     21 H10        -0.5840   -0.9980   -0.2930 h1        1 LTG      0.043950
     22 H11        -0.9860   -0.2240   -1.9120 h1        1 LTG      0.043950
     23 H12         1.3000   -1.8100   -1.4450 ho        1 LTG      0.418500
     24 O2          5.4010   -0.4150    2.6290 o         1 LTG     -0.524100
@<TRIPOS>BOND
     1    1    7 1   
     2    1   10 1   
     3    1   12 1   
     4    1   13 1   
     5    2    3 2   
     6    2    4 1   
     7    2   14 1   
     8    4    5 1   
     9    4    6 1   
    10    4   15 1   
    11    5   16 1   
    12    6    8 1   
    13    6   24 2   
    14    7   17 1   
    15    8    9 1   
    16    8   18 1   
    17    8   19 1   
    18    9   20 1   
    19   10   11 1   
    20   10   21 1   
    21   10   22 1   
    22   11   23 1   
@<TRIPOS>SUBSTRUCTURE
     1 LTG         1 TEMP              0 ****  ****    0 ROOT
