@<TRIPOS>MOLECULE
LTH
   16    15     1     0     0
SMALL
bcc


@<TRIPOS>ATOM
      1 O1          0.3420   -0.9030   -0.0790 o         1 LTH     -0.831800
      2 C1          1.3930   -0.2080   -0.0020 c         1 LTH      0.891600
      3 O           1.9900    0.3190   -0.9820 o         1 LTH     -0.831800
      4 C2          2.0320    0.0060    1.3950 c3        1 LTH     -0.011900
      5 O2          3.4110    0.3150    1.2970 oh        1 LTH     -0.637800
      6 C3          1.8190   -1.2070    2.3070 c3        1 LTH      0.123100
      7 O3          2.0430   -2.4530    1.6610 oh        1 LTH     -0.649800
      8 C4          2.7680   -1.1810    3.5070 c3        1 LTH      0.137400
      9 O4          2.5420   -2.2730    4.3820 oh        1 LTH     -0.633800
     10 H2          1.5380    0.8950    1.8800 h1        1 LTH      0.030700
     11 H3          3.6180    0.3820    0.3500 ho        1 LTH      0.427000
     12 H4          0.7480   -1.1850    2.6610 h1        1 LTH      0.037700
     13 H5          1.5150   -2.4390    0.8470 ho        1 LTH      0.446000
     14 H6          2.5860   -0.2620    4.1210 h1        1 LTH      0.046200
     15 H7          3.8320   -1.1980    3.1500 h1        1 LTH      0.046200
     16 H8          2.4690   -3.0600    3.8270 ho        1 LTH      0.412000
@<TRIPOS>BOND
     1    1    2 1   
     2    2    3 1   
     3    2    4 1   
     4    4    5 1   
     5    4    6 1   
     6    4   10 1   
     7    5   11 1   
     8    6    7 1   
     9    6    8 1   
    10    6   12 1   
    11    7   13 1   
    12    8    9 1   
    13    8   14 1   
    14    8   15 1   
    15    9   16 1   
@<TRIPOS>SUBSTRUCTURE
     1 LTH         1 TEMP              0 ****  ****    0 ROOT
