@<TRIPOS>MOLECULE
LTH
   16    15     1     0     0
SMALL
bcc


@<TRIPOS>ATOM
      1 O1         -0.0080    0.3930    0.0870 o         1 LTH     -0.830300
      2 C1          1.1540   -0.0770    0.1420 c         1 LTH      0.892600
      3 O           1.7560   -0.6810   -0.7980 o         1 LTH     -0.830300
      4 C2          1.9610    0.0510    1.4630 c3        1 LTH     -0.019900
      5 O2          3.3140    0.3720    1.1900 oh        1 LTH     -0.627800
      6 C3          1.8830   -1.2800    2.2240 c3        1 LTH      0.096100
      7 O3          2.5080   -2.3430    1.5130 oh        1 LTH     -0.655800
      8 C4          2.6000   -1.1830    3.5720 c3        1 LTH      0.130400
      9 O4          2.6180   -2.4200    4.2610 oh        1 LTH     -0.630800
     10 H2          1.5690    0.8840    2.1020 h1        1 LTH      0.061700
     11 H3          3.5290   -0.0570    0.3470 ho        1 LTH      0.418000
     12 H4          0.8020   -1.5530    2.3800 h1        1 LTH      0.045700
     13 H5          2.4010   -2.1570    0.5650 ho        1 LTH      0.451000
     14 H6          2.0570   -0.4740    4.2480 h1        1 LTH      0.041700
     15 H7          3.6530   -0.8290    3.4100 h1        1 LTH      0.041700
     16 H8          2.8510   -3.0970    3.6130 ho        1 LTH      0.414000
@<TRIPOS>BOND
     1    1    2 1   
     2    2    3 1   
     3    2    4 1   
     4    4    5 1   
     5    4    6 1   
     6    4   10 1   
     7    5   11 1   
     8    6    7 1   
     9    6    8 1   
    10    6   12 1   
    11    7   13 1   
    12    8    9 1   
    13    8   14 1   
    14    8   15 1   
    15    9   16 1   
@<TRIPOS>SUBSTRUCTURE
     1 LTH         1 TEMP              0 ****  ****    0 ROOT
