@<TRIPOS>MOLECULE
LTI
   44    46     1     0     0
SMALL
bcc


@<TRIPOS>ATOM
      1 C22         0.1040    0.4670   -0.2210 ca        1 LTI     -0.089000
      2 C21         1.4820    0.2580   -0.1260 ca        1 LTI     -0.118000
      3 C23        -0.6720    0.5000    0.9340 ca        1 LTI     -0.115000
      4 C20         2.0690    0.0800    1.1220 ca        1 LTI     -0.157000
      5 C5          1.6530   -4.1120    4.3950 cc        1 LTI     -0.442800
      6 C18        -0.0930    0.3280    2.2000 ca        1 LTI     -0.044300
      7 C19         1.2910    0.1050    2.2940 ca        1 LTI     -0.156300
      8 C1          1.8040   -2.7900    3.8040 cd        1 LTI      0.230600
      9 C4          1.9840   -5.1560    3.4690 cc        1 LTI      0.501500
     10 C17        -0.9750    0.3840    3.4010 c3        1 LTI     -0.049100
     11 C16        -0.6480    1.5360    4.3300 c3        1 LTI     -0.082400
     12 C15         0.5260    1.2500    5.2390 c3        1 LTI     -0.088400
     13 C14         1.8510    1.1750    4.5100 c3        1 LTI     -0.082400
     14 C13         2.0020   -0.0280    3.5900 c3        1 LTI      0.017700
     15 N2          2.2350   -2.8900    2.5070 na        1 LTI     -0.652100
     16 N12         1.1490   -5.6240    6.3540 n4        1 LTI     -0.734400
     17 N9          2.2620   -8.7860    2.8700 n4        1 LTI     -0.708400
     18 N6          1.9390   -6.4850    3.7290 nf        1 LTI     -0.789100
     19 O11         0.8720   -3.3590    6.5360 o         1 LTI     -0.439100
     20 O8          2.6590   -6.9440    1.5190 o         1 LTI     -0.526100
     21 S3          2.4460   -4.4380    1.9930 ss        1 LTI      0.476100
     22 S24         1.4750   -1.4080    4.6180 ss        1 LTI      0.155300
     23 H22        -0.3640    0.6220   -1.2070 ha        1 LTI      0.165000
     24 H21         2.1050    0.2590   -1.0350 ha        1 LTI      0.160000
     25 H23        -1.7570    0.6830    0.8540 ha        1 LTI      0.160000
     26 H20         3.1640   -0.0230    1.1900 ha        1 LTI      0.136000
     27 H171       -2.0470    0.4850    3.0730 hc        1 LTI      0.055700
     28 H172       -0.8960   -0.5880    3.9630 hc        1 LTI      0.055700
     29 H13         3.1030   -0.1630    3.3930 h1        1 LTI      0.094700
     30 H2          2.3220   -2.0930    1.9030 hn        1 LTI      0.528800
     31 H121        2.0670   -6.0730    6.3090 hn        1 LTI      0.471800
     32 H122        0.4690   -6.1970    5.8460 hn        1 LTI      0.471800
     33 H91N        2.5540   -9.2310    1.9860 hn        1 LTI      0.479133
     34 H92N        2.9060   -9.0610    3.6180 hn        1 LTI      0.479133
     35 H161       -0.4470    2.4640    3.7320 hc        1 LTI      0.072700
     36 H162       -1.5490    1.7420    4.9700 hc        1 LTI      0.072700
     37 H151        0.5980    2.0750    6.0010 hc        1 LTI      0.060200
     38 H152        0.3420    0.2980    5.8150 hc        1 LTI      0.060200
     39 H141        1.9900    2.1020    3.8870 hc        1 LTI      0.087200
     40 H142        2.6830    1.1550    5.2660 hc        1 LTI      0.087200
     41 H123        0.8560   -5.5460    7.3390 hn        1 LTI      0.471800
     42 H93         1.3140   -9.0920    3.1090 hn        1 LTI      0.479133
     43 C10         1.2140   -4.2400    5.7500 c         1 LTI      0.597300
     44 C7          2.2980   -7.2860    2.6630 c         1 LTI      0.645500
@<TRIPOS>BOND
     1    1    2 ar  
     2    1    3 ar  
     3    1   23 1   
     4    2    4 ar  
     5    2   24 1   
     6    3    6 ar  
     7    3   25 1   
     8    4    7 ar  
     9    4   26 1   
    10    5    8 2   
    11    5    9 1   
    12    5   43 1   
    13    6    7 ar  
    14    6   10 1   
    15    7   14 1   
    16    8   15 1   
    17    8   22 1   
    18    9   18 2   
    19    9   21 1   
    20   10   11 1   
    21   10   27 1   
    22   10   28 1   
    23   11   12 1   
    24   11   35 1   
    25   11   36 1   
    26   12   13 1   
    27   12   37 1   
    28   12   38 1   
    29   13   14 1   
    30   13   39 1   
    31   13   40 1   
    32   14   22 1   
    33   14   29 1   
    34   15   21 1   
    35   15   30 1   
    36   16   31 1   
    37   16   32 1   
    38   16   41 1   
    39   16   43 1   
    40   17   33 1   
    41   17   34 1   
    42   17   42 1   
    43   17   44 1   
    44   18   44 1   
    45   19   43 2   
    46   20   44 2   
@<TRIPOS>SUBSTRUCTURE
     1 LTI         1 TEMP              0 ****  ****    0 ROOT
