@<TRIPOS>MOLECULE
LTI
   42    45     1     0     0
SMALL
bcc


@<TRIPOS>ATOM
      1 C22        -3.2320   -3.1830    1.3960 ca        1 LTI     -0.123000
      2 C21        -2.6790   -3.3810    0.1310 ca        1 LTI     -0.130000
      3 C23        -3.4480   -1.8880    1.8590 ca        1 LTI     -0.126000
      4 C20        -2.3370   -2.2840   -0.6530 ca        1 LTI     -0.147000
      5 C5          1.7200    1.0960   -0.0550 ce        1 LTI     -0.316200
      6 C18        -3.1100   -0.7750    1.0770 ca        1 LTI     -0.048300
      7 C19        -2.5340   -0.9740   -0.1900 ca        1 LTI     -0.082300
      8 C1          0.5130    0.4110   -0.4080 c2        1 LTI      0.225600
      9 C4          2.8430    0.2310   -0.0710 ce        1 LTI      0.057600
     10 C7          4.8680   -0.7410    0.0450 c2        1 LTI      0.878500
     11 C17        -3.3610    0.5880    1.6230 c3        1 LTI     -0.051100
     12 C16        -4.3720    1.3730    0.8090 c3        1 LTI     -0.070400
     13 C15        -3.7650    2.0180   -0.4170 c3        1 LTI     -0.086400
     14 C14        -3.3350    1.0220   -1.4740 c3        1 LTI     -0.055400
     15 C13        -2.1480    0.1530   -1.0850 c3        1 LTI     -0.048300
     16 N2          0.7200   -0.9010   -0.6820 nh        1 LTI     -0.403700
     17 N12         2.8320    3.2030    0.5560 n         1 LTI     -0.654000
     18 N9          6.2160   -0.8230    0.2540 nh        1 LTI     -0.936800
     19 N6          4.1400    0.4510    0.1940 ne        1 LTI     -0.731300
     20 O11         0.5780    3.1330    0.3080 o         1 LTI     -0.659100
     21 O8          4.2240   -1.8250   -0.3140 os        1 LTI     -0.374400
     22 S3          2.3340   -1.3800   -0.5290 s4        1 LTI      0.087700
     23 S24        -0.9230    1.2760   -0.4290 ss        1 LTI      0.052300
     24 H22        -3.5010   -4.0450    2.0230 ha        1 LTI      0.135000
     25 H21        -2.5150   -4.4010   -0.2470 ha        1 LTI      0.134000
     26 H23        -3.8920   -1.7350    2.8550 ha        1 LTI      0.135000
     27 H20        -1.9250   -2.4520   -1.6610 ha        1 LTI      0.126000
     28 H171       -3.7350    0.5070    2.6790 hc        1 LTI      0.062700
     29 H172       -2.3860    1.1520    1.6560 hc        1 LTI      0.062700
     30 H13        -1.7420   -0.2830   -2.0410 h1        1 LTI      0.069700
     31 H2         -0.0390   -1.5050   -0.8800 hn        1 LTI      0.453800
     32 H121        3.7170    2.7660    0.5590 hn        1 LTI      0.321500
     33 H122        2.7680    4.1620    0.7900 hn        1 LTI      0.321500
     34 H91N        6.7350   -0.0330    0.5400 hn        1 LTI      0.449300
     35 H92N        6.6570   -1.7000    0.1390 hn        1 LTI      0.449300
     36 H161       -5.2200    0.7040    0.5060 hc        1 LTI      0.045200
     37 H162       -4.8000    2.1820    1.4600 hc        1 LTI      0.045200
     38 H151       -4.5280    2.7040   -0.8760 hc        1 LTI      0.055200
     39 H152       -2.8900    2.6590   -0.1140 hc        1 LTI      0.055200
     40 H141       -4.1990    0.3520   -1.7290 hc        1 LTI      0.054200
     41 H142       -3.0630    1.5890   -2.4060 hc        1 LTI      0.054200
     42 C10         1.6800    2.5190    0.2780 c         1 LTI      0.711300
@<TRIPOS>BOND
     1    1    2 ar  
     2    1    3 ar  
     3    1   24 1   
     4    2    4 ar  
     5    2   25 1   
     6    3    6 ar  
     7    3   26 1   
     8    4    7 ar  
     9    4   27 1   
    10    5    8 2   
    11    5    9 1   
    12    5   42 1   
    13    6    7 ar  
    14    6   11 1   
    15    7   15 1   
    16    8   16 1   
    17    8   23 1   
    18    9   19 1   
    19    9   22 2   
    20   10   18 1   
    21   10   19 2   
    22   10   21 1   
    23   11   12 1   
    24   11   28 1   
    25   11   29 1   
    26   12   13 1   
    27   12   36 1   
    28   12   37 1   
    29   13   14 1   
    30   13   38 1   
    31   13   39 1   
    32   14   15 1   
    33   14   40 1   
    34   14   41 1   
    35   15   23 1   
    36   15   30 1   
    37   16   22 1   
    38   16   31 1   
    39   17   32 1   
    40   17   33 1   
    41   17   42 1   
    42   18   34 1   
    43   18   35 1   
    44   20   42 2   
    45   21   22 1   
@<TRIPOS>SUBSTRUCTURE
     1 LTI         1 TEMP              0 ****  ****    0 ROOT
