@<TRIPOS>MOLECULE
LTI
   44    63     1     0     0
SMALL
bcc


@<TRIPOS>ATOM
      1 C22         0.0000    0.0000    0.0000 c3        1 LTI      0.256000
      2 C21         1.3830    0.0000    0.0000 c3        1 LTI     -0.135000
      3 C23        -0.6920    0.0020    1.1970 c3        1 LTI     -0.264000
      4 C20         2.0750    0.0000    1.1970 c2        1 LTI     -0.123000
      5 C5          1.5910   -3.9910    4.3010 c2        1 LTI     -0.311000
      6 C18         0.0070    0.0030    2.3910 DU        1 LTI      0.111000
      7 C19         1.3770    0.0010    2.3910 c2        1 LTI     -0.412000
      8 C1          1.9010   -2.7210    3.8600 c3        1 LTI     -0.224000
      9 C4          2.0100   -5.0140    3.4240 c2        1 LTI      0.007000
     10 C17        -0.7540    0.0030    3.7010 DU        1 LTI      0.181000
     11 C16        -0.5810    1.3730    4.3620 DU        1 LTI      0.254000
     12 C15         0.6940    1.4230    5.1800 DU        1 LTI     -0.087000
     13 C14         1.9680    1.3720    4.3610 c3        1 LTI      0.130000
     14 C13         2.1390    0.0000    3.7000 c3        1 LTI     -0.127000
     15 N2          2.5420   -2.6390    2.6880 n7        1 LTI     -0.007000
     16 N12         0.6240   -5.5200    5.9330 nz        1 LTI      0.389000
     17 N9          2.1430   -8.5050    2.8210 nz        1 LTI     -0.002000
     18 N6          1.8490   -6.3320    3.5850 n2        1 LTI     -0.444000
     19 O11         0.5650   -3.3260    6.2800 o         1 LTI     -0.224000
     20 O8          2.8680   -6.7480    1.6670 o         1 LTI     -0.196000
     21 S3          2.7700   -4.2130    2.1060 ss        1 LTI      0.551000
     22 S24         1.4760   -1.2860    4.7880 s4        1 LTI      0.662000
     23 H22         0.0270   -0.6610    0.8580 DU        1 LTI      0.114000
     24 H21         1.4750   -1.0250    0.3400 hc        1 LTI      0.152000
     25 H23        -0.6270   -0.0040    0.1160 DU        1 LTI      0.114000
     26 H20         2.0820    0.0040    0.1130 DU        1 LTI      0.232000
     27 H171       -1.1850    0.0480    2.7080 DU        1 LTI      0.144500
     28 H172        0.1600    0.0020    3.1200 DU        1 LTI      0.144500
     29 H13         1.1360   -0.3130    3.9640 DU        1 LTI     -0.060000
     30 H2          1.6820   -2.1530    2.8490 DU        1 LTI      0.193000
     31 H121        1.0310   -4.6880    5.5530 DU        1 LTI     -0.391000
     32 H122        1.2620   -4.8990    5.4750 DU        1 LTI      0.279000
     33 H91N        1.8560   -7.9760    3.6210 hn        1 LTI      0.185000
     34 H92N        1.7270   -7.8920    3.4940 DU        1 LTI      0.272000
     35 H161       -0.3650    0.3130    4.3050 DU        1 LTI     -0.258500
     36 H162       -0.3500    0.3450    4.1100 DU        1 LTI     -0.258500
     37 H151        0.0930    1.8070    4.3650 DU        1 LTI      0.054000
     38 H152       -0.3850    1.4970    5.1120 DU        1 LTI      0.054000
     39 H141        1.3230    0.9630    5.1290 DU        1 LTI      0.059500
     40 H142        1.3630    1.9100    5.0810 DU        1 LTI      0.059500
     41 H123        0.7770   -4.5790    5.6290 DU        1 LTI     -0.391000
     42 H93         2.0790   -7.5200    2.9840 hn        1 LTI      0.185000
     43 C10         0.8960   -4.2530    5.5630 c3        1 LTI      0.795000
     44 C7          2.3050   -7.1770    2.6590 c3        1 LTI      0.339000
@<TRIPOS>BOND
     1    1    2 1   
     2    1    3 1   
     3    1   23 1   
     4    1   25 1   
     5    2    4 1   
     6    2   24 1   
     7    2   26 1   
     8    3    6 1   
     9    3   23 1   
    10    3   25 1   
    11    4    7 1   
    12    4   26 1   
    13    5    8 1   
    14    5    9 1   
    15    5   43 1   
    16    6    7 1   
    17    6   10 1   
    18    6   27 1   
    19    6   28 1   
    20    7   14 1   
    21    8   15 1   
    22    8   22 1   
    23    8   30 1   
    24    9   18 1   
    25    9   21 1   
    26   10   11 1   
    27   10   27 1   
    28   10   28 1   
    29   10   35 1   
    30   10   36 1   
    31   11   12 1   
    32   11   35 1   
    33   11   36 1   
    34   11   37 1   
    35   11   38 1   
    36   12   13 1   
    37   12   37 1   
    38   12   38 1   
    39   12   39 1   
    40   12   40 1   
    41   13   14 1   
    42   13   39 1   
    43   13   40 1   
    44   14   22 1   
    45   14   29 1   
    46   15   21 1   
    47   15   30 1   
    48   16   31 1   
    49   16   32 1   
    50   16   41 1   
    51   16   43 1   
    52   17   33 1   
    53   17   34 1   
    54   17   42 1   
    55   17   44 1   
    56   18   44 1   
    57   19   43 1   
    58   20   44 1   
    59   22   29 1   
    60   31   32 1   
    61   32   41 1   
    62   32   43 1   
    63   34   44 1   
@<TRIPOS>SUBSTRUCTURE
     1 LTI         1 TEMP              0 ****  ****    0 ROOT
