@<TRIPOS>MOLECULE
LTL
   26    25     1     0     0
SMALL
bcc


@<TRIPOS>ATOM
      1 C1          0.0550   -0.2410   -0.0770 c3        1 LTL     -0.124100
      2 C2          1.5570    0.0220   -0.0200 c3        1 LTL      0.147800
      3 C6          2.0180    0.0210    1.4410 c3        1 LTL     -0.059400
      4 C7          3.5190    0.1300    1.5790 c3        1 LTL     -0.181400
      5 C10         3.9710    0.0430    3.0100 c         1 LTL      0.565100
      6 C13         5.4430   -0.2150    3.1780 c3        1 LTL     -0.182400
      7 C14         5.9440    0.1240    4.5570 c3        1 LTL     -0.088100
      8 O20         3.2000    0.1690    3.9660 o         1 LTL     -0.535100
      9 O21         2.2610   -1.0420   -0.6630 oh        1 LTL     -0.602800
     10 C22         1.8770    1.3440   -0.7090 c3        1 LTL     -0.124100
     11 HC11       -0.2990   -0.2330   -1.1350 hc        1 LTL      0.043700
     12 HC12       -0.1740   -1.2390    0.3670 hc        1 LTL      0.043700
     13 HC13       -0.4920    0.5460    0.4930 hc        1 LTL      0.043700
     14 HC61        1.5220    0.8720    1.9740 hc        1 LTL      0.060700
     15 HC62        1.6750   -0.9310    1.9250 hc        1 LTL      0.060700
     16 HC71        4.0110   -0.6860    0.9840 hc        1 LTL      0.073700
     17 HC72        3.8770    1.1110    1.1650 hc        1 LTL      0.073700
     18 H131        6.0070    0.3740    2.4070 hc        1 LTL      0.063200
     19 H132        5.6200   -1.3040    2.9630 hc        1 LTL      0.063200
     20 H141        5.8440    1.2190    4.7530 hc        1 LTL      0.042700
     21 H142        7.0180   -0.1620    4.6580 hc        1 LTL      0.042700
     22 H143        5.3490   -0.4210    5.3310 hc        1 LTL      0.042700
     23 H21         1.9380   -1.0790   -1.5700 ho        1 LTL      0.399000
     24 H221        2.9810    1.4670   -0.8100 hc        1 LTL      0.043700
     25 H222        1.4250    1.3660   -1.7300 hc        1 LTL      0.043700
     26 H223        1.4660    2.1940   -0.1160 hc        1 LTL      0.043700
@<TRIPOS>BOND
     1    1    2 1   
     2    1   11 1   
     3    1   12 1   
     4    1   13 1   
     5    2    3 1   
     6    2    9 1   
     7    2   10 1   
     8    3    4 1   
     9    3   14 1   
    10    3   15 1   
    11    4    5 1   
    12    4   16 1   
    13    4   17 1   
    14    5    6 1   
    15    5    8 2   
    16    6    7 1   
    17    6   18 1   
    18    6   19 1   
    19    7   20 1   
    20    7   21 1   
    21    7   22 1   
    22    9   23 1   
    23   10   24 1   
    24   10   25 1   
    25   10   26 1   
@<TRIPOS>SUBSTRUCTURE
     1 LTL         1 TEMP              0 ****  ****    0 ROOT
