@<TRIPOS>MOLECULE
LTL
   26    25     1     0     0
SMALL
bcc


@<TRIPOS>ATOM
      1 C1         -1.1040    0.1130   -3.1750 c3        1 LTL     -0.104100
      2 C2         -0.0100    0.0090   -2.1180 c3        1 LTL      0.147800
      3 C6         -0.6170    0.2730   -0.7360 c3        1 LTL     -0.103400
      4 C7          0.3930    0.1050    0.3770 c3        1 LTL     -0.184400
      5 C10        -0.2450   -0.0320    1.7300 c         1 LTL      0.565100
      6 C13         0.6840    0.2420    2.8810 c3        1 LTL     -0.182400
      7 C14         0.1580   -0.2720    4.1950 c3        1 LTL     -0.088100
      8 O20        -1.4280   -0.3490    1.8860 o         1 LTL     -0.534100
      9 O21         0.5820   -1.2910   -2.1590 oh        1 LTL     -0.600800
     10 C22         1.1180    0.9850   -2.4290 c3        1 LTL     -0.104100
     11 HC11       -0.6890   -0.1540   -4.1760 hc        1 LTL      0.044533
     12 HC12       -1.9420   -0.5850   -2.9390 hc        1 LTL      0.044533
     13 HC13       -1.5020    1.1540   -3.2120 hc        1 LTL      0.044533
     14 HC61       -1.4710   -0.4380   -0.5690 hc        1 LTL      0.058700
     15 HC62       -1.0370    1.3110   -0.7180 hc        1 LTL      0.058700
     16 HC71        1.1000    0.9750    0.3890 hc        1 LTL      0.074200
     17 HC72        1.0050   -0.8210    0.1870 hc        1 LTL      0.074200
     18 H131        0.8330    1.3540    2.9370 hc        1 LTL      0.063200
     19 H132        1.6830   -0.2190    2.6580 hc        1 LTL      0.063200
     20 H141        0.8450    0.0180    5.0260 hc        1 LTL      0.043367
     21 H142       -0.8570    0.1480    4.3990 hc        1 LTL      0.043367
     22 H143        0.0720   -1.3850    4.1740 hc        1 LTL      0.043367
     23 H21        -0.1260   -1.9250   -1.9950 ho        1 LTL      0.401000
     24 H221        0.7480    2.0310   -2.3210 hc        1 LTL      0.044533
     25 H222        1.9720    0.8180   -1.7290 hc        1 LTL      0.044533
     26 H223        1.4810    0.8260   -3.4720 hc        1 LTL      0.044533
@<TRIPOS>BOND
     1    1    2 1   
     2    1   11 1   
     3    1   12 1   
     4    1   13 1   
     5    2    3 1   
     6    2    9 1   
     7    2   10 1   
     8    3    4 1   
     9    3   14 1   
    10    3   15 1   
    11    4    5 1   
    12    4   16 1   
    13    4   17 1   
    14    5    6 1   
    15    5    8 2   
    16    6    7 1   
    17    6   18 1   
    18    6   19 1   
    19    7   20 1   
    20    7   21 1   
    21    7   22 1   
    22    9   23 1   
    23   10   24 1   
    24   10   25 1   
    25   10   26 1   
@<TRIPOS>SUBSTRUCTURE
     1 LTL         1 TEMP              0 ****  ****    0 ROOT
