@<TRIPOS>MOLECULE
LTL
   26    25     1     0     0
SMALL
bcc


@<TRIPOS>ATOM
      1 C1         -2.5420    0.6930   -1.5900 c3        1 LTL     -0.124100
      2 C2         -1.0290    0.6930   -1.5900 c3        1 LTL      0.147800
      3 C6         -0.5250    0.6930   -0.1640 c3        1 LTL     -0.059400
      4 C7          0.3210   -0.5390    0.0720 c3        1 LTL     -0.181400
      5 C10         0.8140   -0.5460    1.5020 c         1 LTL      0.565100
      6 C13         2.0210   -1.3740    1.8820 c3        1 LTL     -0.182400
      7 C14         2.0200   -1.6120    3.3760 c3        1 LTL     -0.088100
      8 O20         0.2390    0.1130    2.3460 o         1 LTL     -0.535100
      9 O21        -0.5600   -0.4550   -2.2530 oh        1 LTL     -0.602800
     10 C22        -0.5250    1.9290   -2.3030 c3        1 LTL     -0.124100
     11 HC11       -2.8680    1.4630   -1.0850 hc        1 LTL      0.043700
     12 HC12       -2.8680   -0.1290   -1.1770 hc        1 LTL      0.043700
     13 HC13       -2.8680    0.7460   -2.5090 hc        1 LTL      0.043700
     14 HC61       -1.2840    0.6890    0.4500 hc        1 LTL      0.060700
     15 HC62        0.0140    1.4930   -0.0090 hc        1 LTL      0.060700
     16 HC71       -0.2160   -1.3380   -0.0910 hc        1 LTL      0.073700
     17 HC72        1.0850   -0.5300   -0.5350 hc        1 LTL      0.073700
     18 H131        1.9870   -2.2310    1.4160 hc        1 LTL      0.063200
     19 H132        2.8350   -0.8980    1.6290 hc        1 LTL      0.063200
     20 H141        2.0900   -0.7570    3.8420 hc        1 LTL      0.042700
     21 H142        1.1890   -2.0560    3.6340 hc        1 LTL      0.042700
     22 H143        2.7790   -2.1770    3.6170 hc        1 LTL      0.042700
     23 H21        -0.8560   -0.4550   -3.0900 ho        1 LTL      0.399000
     24 H221       -0.8070    2.7250   -1.8140 hc        1 LTL      0.043700
     25 H222       -0.8920    1.9550   -3.2070 hc        1 LTL      0.043700
     26 H223        0.4500    1.9030   -2.3490 hc        1 LTL      0.043700
@<TRIPOS>BOND
     1    1    2 1   
     2    1   11 1   
     3    1   12 1   
     4    1   13 1   
     5    2    3 1   
     6    2    9 1   
     7    2   10 1   
     8    3    4 1   
     9    3   14 1   
    10    3   15 1   
    11    4    5 1   
    12    4   16 1   
    13    4   17 1   
    14    5    6 1   
    15    5    8 2   
    16    6    7 1   
    17    6   18 1   
    18    6   19 1   
    19    7   20 1   
    20    7   21 1   
    21    7   22 1   
    22    9   23 1   
    23   10   24 1   
    24   10   25 1   
    25   10   26 1   
@<TRIPOS>SUBSTRUCTURE
     1 LTL         1 TEMP              0 ****  ****    0 ROOT
