@<TRIPOS>MOLECULE
LTL
   26    25     1     0     0
SMALL
bcc


@<TRIPOS>ATOM
      1 C1          0.0430   -0.1380   -0.0750 c3        1 LTL     -0.124100
      2 C2          1.5540    0.0700   -0.0190 c3        1 LTL      0.147800
      3 C6          2.0150    0.0580    1.4410 c3        1 LTL     -0.059400
      4 C7          3.5190    0.1090    1.5790 c3        1 LTL     -0.181400
      5 C10         3.9670    0.0150    3.0100 c         1 LTL      0.565100
      6 C13         5.4270   -0.3020    3.1800 c3        1 LTL     -0.182400
      7 C14         5.9430    0.0290    4.5560 c3        1 LTL     -0.088100
      8 O20         3.2020    0.1780    3.9650 o         1 LTL     -0.535100
      9 O21         2.2170   -1.0240   -0.6570 oh        1 LTL     -0.602800
     10 C22         1.9220    1.3750   -0.7150 c3        1 LTL     -0.124100
     11 HC11       -0.3120   -0.1200   -1.1330 hc        1 LTL      0.043700
     12 HC12       -0.2240   -1.1240    0.3740 hc        1 LTL      0.043700
     13 HC13       -0.4740    0.6720    0.4920 hc        1 LTL      0.043700
     14 HC61        1.5520    0.9300    1.9710 hc        1 LTL      0.060700
     15 HC62        1.6350   -0.8780    1.9300 hc        1 LTL      0.060700
     16 HC71        3.9780   -0.7300    0.9890 hc        1 LTL      0.073700
     17 HC72        3.9150    1.0720    1.1580 hc        1 LTL      0.073700
     18 H131        6.0140    0.2550    2.4030 hc        1 LTL      0.063200
     19 H132        5.5590   -1.4000    2.9760 hc        1 LTL      0.063200
     20 H141        5.8890    1.1290    4.7400 hc        1 LTL      0.042700
     21 H142        7.0050   -0.3000    4.6600 hc        1 LTL      0.042700
     22 H143        5.3270   -0.4810    5.3360 hc        1 LTL      0.042700
     23 H21         1.8930   -1.0530   -1.5650 ho        1 LTL      0.399000
     24 H221        3.0310    1.4560   -0.8160 hc        1 LTL      0.043700
     25 H222        1.4720    1.4090   -1.7360 hc        1 LTL      0.043700
     26 H223        1.5440    2.2430   -0.1260 hc        1 LTL      0.043700
@<TRIPOS>BOND
     1    1    2 1   
     2    1   11 1   
     3    1   12 1   
     4    1   13 1   
     5    2    3 1   
     6    2    9 1   
     7    2   10 1   
     8    3    4 1   
     9    3   14 1   
    10    3   15 1   
    11    4    5 1   
    12    4   16 1   
    13    4   17 1   
    14    5    6 1   
    15    5    8 2   
    16    6    7 1   
    17    6   18 1   
    18    6   19 1   
    19    7   20 1   
    20    7   21 1   
    21    7   22 1   
    22    9   23 1   
    23   10   24 1   
    24   10   25 1   
    25   10   26 1   
@<TRIPOS>SUBSTRUCTURE
     1 LTL         1 TEMP              0 ****  ****    0 ROOT
