@<TRIPOS>MOLECULE
LTM
   29    28     1     0     0
SMALL
bcc


@<TRIPOS>ATOM
      1 O7         -1.1650   -0.0420    3.3550 o         1 LTM     -0.360000
      2 C7          0.0470    0.0250    3.3130 c1        1 LTM      0.316000
      3 C8          0.8460    0.1040    4.5960 c2        1 LTM     -0.241000
      4 N2          0.7150    0.0240    2.0610 n3        1 LTM     -0.354000
      5 C2         -0.0400   -0.0570    0.8480 c3        1 LTM      0.020000
      6 C3          0.6240   -0.9030   -0.1370 c3        1 LTM     -0.004000
      7 O3          0.6760   -2.2590    0.3740 oh        1 LTM     -0.304000
      8 C4         -0.0920   -0.9150   -1.4880 c3        1 LTM     -0.025000
      9 O4          0.6980   -1.6720   -2.4240 oh        1 LTM     -0.317000
     10 C5         -0.3050    0.4390   -2.0320 c3        1 LTM      0.010000
     11 C6         -1.1810    0.3290   -3.2710 c3        1 LTM     -0.038000
     12 O6         -1.1020    1.5280   -4.0110 oh        1 LTM     -0.333000
     13 N5         -0.9530    1.3850   -1.0740 n         1 LTM     -0.377000
     14 C1         -0.3050    1.4260    0.2090 c2        1 LTM      0.277000
     15 O1         -0.4670    2.3830    0.9410 o         1 LTM     -0.361000
     16 H81C        0.2430    0.2940    5.3450 ha        1 LTM      0.108000
     17 H82C        1.2990   -0.7510    4.7510 ha        1 LTM      0.108000
     18 H83C        1.5120    0.8180    4.5230 ha        1 LTM      0.108000
     19 H2          1.6250    0.0720    2.0300 hn        1 LTM      0.227000
     20 HA         -0.8710   -0.4630    1.1670 h1        1 LTM      0.166000
     21 H3          1.5370   -0.5800   -0.2660 h1        1 LTM      0.082000
     22 HB          1.4880   -2.5950    0.2420 ho        1 LTM      0.215000
     23 H4         -0.9600   -1.3520   -1.3810 h1        1 LTM      0.144000
     24 HC          1.5370   -1.3770   -2.4110 ho        1 LTM      0.206000
     25 H5          0.5600    0.8080   -2.2950 h1        1 LTM      0.095000
     26 H61C       -0.8720   -0.4170   -3.8250 h1        1 LTM      0.084000
     27 H62C       -2.1100    0.1730   -3.0020 h1        1 LTM      0.084000
     28 HD         -1.3940    2.1200   -1.3860 hn        1 LTM      0.254000
     29 H6         -1.5890    1.4520   -4.7510 ho        1 LTM      0.210000
@<TRIPOS>BOND
     1    1    2 1   
     2    2    4 1   
     3    3   16 1   
     4    3   17 1   
     5    3   18 1   
     6    4    5 1   
     7    4   19 1   
     8    5    6 1   
     9    5   14 1   
    10    5   20 1   
    11    6    7 1   
    12    6    8 1   
    13    6   21 1   
    14    7   22 1   
    15    8    9 1   
    16    8   10 1   
    17    8   23 1   
    18    9   24 1   
    19   10   11 1   
    20   10   13 1   
    21   10   25 1   
    22   11   12 1   
    23   11   26 1   
    24   11   27 1   
    25   12   29 1   
    26   13   14 1   
    27   13   28 1   
    28   14   15 1   
@<TRIPOS>SUBSTRUCTURE
     1 LTM         1 TEMP              0 ****  ****    0 ROOT
