@<TRIPOS>MOLECULE
LTM
   29    29     1     0     0
SMALL
bcc


@<TRIPOS>ATOM
      1 O7          2.9530   -1.0870    1.1060 o         1 LTM     -0.628100
      2 C7          3.1780   -0.4360    0.0640 c         1 LTM      0.667100
      3 C8          4.5690   -0.2540   -0.4830 c3        1 LTM     -0.171100
      4 N2          2.1280    0.1100   -0.6590 n         1 LTM     -0.552900
      5 C2          0.7970    0.1350   -0.1070 c3        1 LTM      0.009700
      6 C3         -0.0260   -1.1290   -0.4460 c3        1 LTM      0.103100
      7 O3          0.5940   -2.3340   -0.0540 oh        1 LTM     -0.599800
      8 C4         -1.3860   -1.0090    0.2650 c3        1 LTM      0.103100
      9 O4         -2.1900   -2.1510    0.0250 oh        1 LTM     -0.598800
     10 C5         -2.1720    0.2010   -0.2890 c3        1 LTM      0.105700
     11 C6         -3.3580    0.4720    0.6630 c3        1 LTM      0.115400
     12 O6         -4.1770    1.4460    0.0380 oh        1 LTM     -0.607800
     13 N5         -1.3550    1.3700   -0.4950 n         1 LTM     -0.556900
     14 C1          0.0150    1.3880   -0.5480 c         1 LTM      0.686500
     15 O1          0.6090    2.4270   -0.9050 o         1 LTM     -0.650500
     16 H81C        5.2940   -0.7460    0.2110 hc        1 LTM      0.072033
     17 H82C        4.6540   -0.7250   -1.4920 hc        1 LTM      0.072033
     18 H83C        4.8200    0.8320   -0.5630 hc        1 LTM      0.072033
     19 H2          2.3230    0.7640   -1.3840 hn        1 LTM      0.331500
     20 HA          0.8810    0.1900    1.0260 h1        1 LTM      0.092700
     21 H3         -0.1800   -1.2350   -1.5570 h1        1 LTM      0.094700
     22 HB          1.0940   -2.1750    0.7610 ho        1 LTM      0.435000
     23 H4         -1.2310   -0.9060    1.3760 h1        1 LTM      0.049700
     24 HC         -1.5970   -2.9180    0.0300 ho        1 LTM      0.431000
     25 H5         -2.6140   -0.1020   -1.2900 h1        1 LTM      0.078700
     26 H61C       -3.9190   -0.4910    0.8010 h1        1 LTM      0.045200
     27 H62C       -3.0040    0.8500    1.6580 h1        1 LTM      0.045200
     28 HD         -1.8500    2.2050   -0.7240 hn        1 LTM      0.344500
     29 H6         -4.9740    1.5240    0.5760 ho        1 LTM      0.410000
@<TRIPOS>BOND
     1    1    2 2   
     2    2    3 1   
     3    2    4 1   
     4    3   16 1   
     5    3   17 1   
     6    3   18 1   
     7    4    5 1   
     8    4   19 1   
     9    5    6 1   
    10    5   14 1   
    11    5   20 1   
    12    6    7 1   
    13    6    8 1   
    14    6   21 1   
    15    7   22 1   
    16    8    9 1   
    17    8   10 1   
    18    8   23 1   
    19    9   24 1   
    20   10   11 1   
    21   10   13 1   
    22   10   25 1   
    23   11   12 1   
    24   11   26 1   
    25   11   27 1   
    26   12   29 1   
    27   13   14 1   
    28   13   28 1   
    29   14   15 2   
@<TRIPOS>SUBSTRUCTURE
     1 LTM         1 TEMP              0 ****  ****    0 ROOT
