@<TRIPOS>MOLECULE
LTN
   30    31     1     0     0
SMALL
bcc


@<TRIPOS>ATOM
      1 NH3         0.7590    1.0610   -0.4140 n4        1 LTN     -0.832600
      2 CA          1.9390    0.1960   -0.1020 c3        1 LTN      0.048500
      3 CB          2.0790   -0.0570    1.4290 c3        1 LTN      0.016800
      4 CG          1.5590    1.0630    2.2040 cc        1 LTN     -0.338400
      5 CD2         1.9150    2.4630    2.0670 ca        1 LTN     -0.117800
      6 CE2         1.2360    3.1560    3.1360 ca        1 LTN     -0.049200
      7 CE3         2.7210    3.1930    1.1870 ca        1 LTN     -0.179000
      8 CD1         0.7230    0.9620    3.3360 cd        1 LTN     -0.001100
      9 NE1         0.5170    2.2080    3.8830 na        1 LTN     -0.136400
     10 CZ2         1.3570    4.5460    3.3010 ca        1 LTN     -0.087000
     11 CZ3         2.8360    4.5640    1.3620 ca        1 LTN     -0.085000
     12 CH2         2.1580    5.2310    2.4010 ca        1 LTN     -0.095000
     13 C           1.8590   -1.1350   -0.8460 c         1 LTN      0.505100
     14 O           0.9450   -1.5130   -1.5600 o         1 LTN     -0.355100
     15 N           3.0150   -2.0690   -0.6640 n4        1 LTN     -0.743400
     16 HH31        0.6010    1.1370   -1.4250 hn        1 LTN      0.493800
     17 HH32        0.9460    2.0050   -0.0060 hn        1 LTN      0.493800
     18 HA          2.8590    0.7630   -0.4600 hx        1 LTN      0.155700
     19 HB1         3.1790   -0.1930    1.6280 hc        1 LTN      0.081700
     20 HB2         1.5380   -1.0010    1.7090 hc        1 LTN      0.081700
     21 HE3         3.3090    2.6870    0.4090 ha        1 LTN      0.105000
     22 HD1         0.2730    0.0660    3.7800 h4        1 LTN      0.194000
     23 HE1         0.0060    2.4060    4.7110 hn        1 LTN      0.340700
     24 HZ2         0.8420    5.0700    4.1220 ha        1 LTN      0.175000
     25 HZ3         3.4820    5.1520    0.6880 ha        1 LTN      0.164000
     26 HH2         2.2830    6.3230    2.5070 ha        1 LTN      0.177000
     27 HN1         2.7840   -2.9930   -1.0730 hn        1 LTN      0.497467
     28 HN2         3.8510   -1.7040   -1.1430 hn        1 LTN      0.497467
     29 HH33       -0.0860    0.6860    0.0380 hn        1 LTN      0.493800
     30 HN3         3.2300   -2.1900    0.3360 hn        1 LTN      0.497467
@<TRIPOS>BOND
     1    1    2 1   
     2    1   16 1   
     3    1   17 1   
     4    1   29 1   
     5    2    3 1   
     6    2   13 1   
     7    2   18 1   
     8    3    4 1   
     9    3   19 1   
    10    3   20 1   
    11    4    5 1   
    12    4    8 2   
    13    5    6 ar  
    14    5    7 ar  
    15    6    9 1   
    16    6   10 ar  
    17    7   11 ar  
    18    7   21 1   
    19    8    9 1   
    20    8   22 1   
    21    9   23 1   
    22   10   12 ar  
    23   10   24 1   
    24   11   12 ar  
    25   11   25 1   
    26   12   26 1   
    27   13   14 2   
    28   13   15 1   
    29   15   27 1   
    30   15   28 1   
    31   15   30 1   
@<TRIPOS>SUBSTRUCTURE
     1 LTN         1 TEMP              0 ****  ****    0 ROOT
