@<TRIPOS>MOLECULE
LTN
   28    29     1     0     0
SMALL
bcc


@<TRIPOS>ATOM
      1 NH3         0.4250    1.3610    2.0000 n3        1 LTN     -0.906800
      2 CA         -0.3500    0.1450    1.8610 c3        1 LTN      0.097500
      3 CB          0.3490   -1.0090    1.1170 c3        1 LTN     -0.037200
      4 CG          0.7840   -0.6140   -0.2270 cc        1 LTN     -0.150400
      5 CD2        -0.0680   -0.3000   -1.3580 ca        1 LTN     -0.091800
      6 CE2         0.8150   -0.0010   -2.4640 ca        1 LTN     -0.047200
      7 CE3        -1.4490   -0.2480   -1.5530 ca        1 LTN     -0.084000
      8 CD1         2.1030   -0.5070   -0.6710 cd        1 LTN     -0.105100
      9 NE1         2.1320   -0.1190   -2.0120 na        1 LTN     -0.192400
     10 CZ2         0.3040    0.3470   -3.7250 ca        1 LTN     -0.145000
     11 CZ3        -1.9390    0.0950   -2.8040 ca        1 LTN     -0.155000
     12 CH2        -1.0730    0.3890   -3.8730 ca        1 LTN     -0.111000
     13 C          -0.8170   -0.3830    3.2340 c         1 LTN      0.654100
     14 O          -0.6700   -1.5790    3.5580 o         1 LTN     -0.623100
     15 N          -1.4600    0.4910    4.0710 n         1 LTN     -0.658000
     16 HH31        1.3000    1.1710    2.4480 hn        1 LTN      0.357300
     17 HH32        0.6050    1.7480    1.0930 hn        1 LTN      0.357300
     18 HA         -1.2850    0.4100    1.2780 h1        1 LTN      0.079700
     19 HB1         1.2230   -1.3670    1.7250 hc        1 LTN      0.069700
     20 HB2        -0.3750   -1.8670    1.0500 hc        1 LTN      0.069700
     21 HE3        -2.1310   -0.4820   -0.7220 ha        1 LTN      0.135000
     22 HD1         3.0310   -0.6810   -0.1230 h4        1 LTN      0.166000
     23 HE1         2.9360   -0.0530   -2.5760 hn        1 LTN      0.299700
     24 HZ2         0.9740    0.5750   -4.5640 ha        1 LTN      0.132000
     25 HZ3        -3.0250    0.1390   -2.9720 ha        1 LTN      0.131000
     26 HH2        -1.5040    0.6570   -4.8500 ha        1 LTN      0.130000
     27 HN1        -1.7290    0.1870    4.9730 hn        1 LTN      0.314000
     28 HN2        -1.4740    1.4600    3.8730 hn        1 LTN      0.314000
@<TRIPOS>BOND
     1    1    2 1   
     2    1   16 1   
     3    1   17 1   
     4    2    3 1   
     5    2   13 1   
     6    2   18 1   
     7    3    4 1   
     8    3   19 1   
     9    3   20 1   
    10    4    5 1   
    11    4    8 2   
    12    5    6 ar  
    13    5    7 ar  
    14    6    9 1   
    15    6   10 ar  
    16    7   11 ar  
    17    7   21 1   
    18    8    9 1   
    19    8   22 1   
    20    9   23 1   
    21   10   12 ar  
    22   10   24 1   
    23   11   12 ar  
    24   11   25 1   
    25   12   26 1   
    26   13   14 2   
    27   13   15 1   
    28   15   27 1   
    29   15   28 1   
@<TRIPOS>SUBSTRUCTURE
     1 LTN         1 TEMP              0 ****  ****    0 ROOT
