@<TRIPOS>MOLECULE
LTN
   30    31     1     0     0
SMALL
bcc


@<TRIPOS>ATOM
      1 NH3         0.7370    1.0770   -0.4030 nz        1 LTN     -0.832600
      2 CA          1.9240    0.2130   -0.1190 c3        1 LTN      0.048500
      3 CB          2.0870   -0.0590    1.4070 c3        1 LTN      0.016800
      4 CG          1.5750    1.0500    2.2040 cc        1 LTN     -0.338400
      5 CD2         1.9240    2.4520    2.0790 ca        1 LTN     -0.117800
      6 CE2         1.2580    3.1290    3.1660 ca        1 LTN     -0.049200
      7 CE3         2.7150    3.1960    1.1970 ca        1 LTN     -0.179000
      8 CD1         0.7540    0.9320    3.3460 cd        1 LTN     -0.001100
      9 NE1         0.5520    2.1690    3.9110 na        1 LTN     -0.136400
     10 CZ2         1.3760    4.5180    3.3470 ca        1 LTN     -0.087000
     11 CZ3         2.8280    4.5650    1.3870 ca        1 LTN     -0.085000
     12 CH2         2.1630    5.2170    2.4450 ca        1 LTN     -0.095000
     13 C           1.8380   -1.1090   -0.8770 c         1 LTN      0.505100
     14 O           0.9150   -1.4820   -1.5830 o         1 LTN     -0.355100
     15 N           2.9990   -2.0410   -0.7250 nz        1 LTN     -0.743400
     16 HH31        0.9260    2.0170    0.0140 hn        1 LTN      0.493800
     17 HH32       -0.1000    0.6940    0.0570 hn        1 LTN      0.493800
     18 HA          2.8370    0.7870   -0.4830 hx        1 LTN      0.155700
     19 HB1         1.5530   -1.0080    1.6830 hc        1 LTN      0.081700
     20 HB2         3.1910   -0.1930    1.5890 hc        1 LTN      0.081700
     21 HE3         3.2930    2.7020    0.4050 ha        1 LTN      0.105000
     22 HD1         0.3140    0.0280    3.7850 h4        1 LTN      0.194000
     23 HE1         0.0530    2.3550    4.7490 hn        1 LTN      0.340700
     24 HZ2         0.8710    5.0300    4.1810 ha        1 LTN      0.175000
     25 HZ3         3.4620    5.1630    0.7110 ha        1 LTN      0.164000
     26 HH2         2.2850    6.3080    2.5620 ha        1 LTN      0.177000
     27 HN1         3.8270   -1.6680   -1.2120 hn        1 LTN      0.497467
     28 HN2         2.7660   -2.9610   -1.1410 hn        1 LTN      0.497467
     29 HH33        0.5640    1.1650   -1.4110 hn        1 LTN      0.493800
     30 HN3         3.2300   -2.1730    0.2710 hn        1 LTN      0.497467
@<TRIPOS>BOND
     1    1    2 1   
     2    1   16 1   
     3    1   17 1   
     4    1   29 1   
     5    2    3 1   
     6    2   13 1   
     7    2   18 1   
     8    3    4 1   
     9    3   19 1   
    10    3   20 1   
    11    4    5 1   
    12    4    8 2   
    13    5    6 ar  
    14    5    7 ar  
    15    6    9 1   
    16    6   10 ar  
    17    7   11 ar  
    18    7   21 1   
    19    8    9 1   
    20    8   22 1   
    21    9   23 1   
    22   10   12 ar  
    23   10   24 1   
    24   11   12 ar  
    25   11   25 1   
    26   12   26 1   
    27   13   14 2   
    28   13   15 1   
    29   15   27 1   
    30   15   28 1   
    31   15   30 1   
@<TRIPOS>SUBSTRUCTURE
     1 LTN         1 TEMP              0 ****  ****    0 ROOT
