@<TRIPOS>MOLECULE
LTN
   30    31     1     0     0
SMALL
bcc


@<TRIPOS>ATOM
      1 NH3         0.6620    1.0790   -0.3500 n4        1 LTN     -0.832600
      2 CA          1.8780    0.2340   -0.1390 c3        1 LTN      0.048500
      3 CB          2.1230   -0.0550    1.3720 c3        1 LTN      0.016800
      4 CG          1.6320    1.0320    2.2100 cc        1 LTN     -0.338400
      5 CD2         1.9480    2.4420    2.0880 ca        1 LTN     -0.117800
      6 CE2         1.3250    3.0920    3.2170 ca        1 LTN     -0.049200
      7 CE3         2.6790    3.2130    1.1780 ca        1 LTN     -0.179000
      8 CD1         0.8730    0.8820    3.3900 cd        1 LTN     -0.001100
      9 NE1         0.6760    2.1080    3.9830 na        1 LTN     -0.136400
     10 CZ2         1.4270    4.4790    3.4120 ca        1 LTN     -0.087000
     11 CZ3         2.7770    4.5820    1.3830 ca        1 LTN     -0.085000
     12 CH2         2.1540    5.2060    2.4810 ca        1 LTN     -0.095000
     13 C           1.7780   -1.0790   -0.9110 c         1 LTN      0.505100
     14 O           0.8270   -1.4600   -1.5750 o         1 LTN     -0.355100
     15 N           2.9630   -1.9910   -0.8320 n4        1 LTN     -0.743400
     16 HH31        0.8560    2.0160    0.0700 hn        1 LTN      0.493800
     17 HH32       -0.1430    0.6730    0.1460 hn        1 LTN      0.493800
     18 HA          2.7610    0.8300   -0.5410 hx        1 LTN      0.155700
     19 HB1         1.6220   -1.0190    1.6610 hc        1 LTN      0.081700
     20 HB2         3.2370   -0.1710    1.4960 hc        1 LTN      0.081700
     21 HE3         3.2250    2.7410    0.3510 ha        1 LTN      0.105000
     22 HD1         0.4720   -0.0350    3.8370 h4        1 LTN      0.194000
     23 HE1         0.2170    2.2730    4.8470 hn        1 LTN      0.340700
     24 HZ2         0.9560    4.9710    4.2780 ha        1 LTN      0.175000
     25 HZ3         3.3650    5.2010    0.6840 ha        1 LTN      0.164000
     26 HH2         2.2620    6.2970    2.6080 ha        1 LTN      0.177000
     27 HN1         3.2470   -2.1310    0.1490 hn        1 LTN      0.497467
     28 HN2         2.7250   -2.9100   -1.2490 hn        1 LTN      0.497467
     29 HH33        0.4370    1.1770   -1.3470 hn        1 LTN      0.493800
     30 HN3         3.7570   -1.5950   -1.3550 hn        1 LTN      0.497467
@<TRIPOS>BOND
     1    1    2 1   
     2    1   16 1   
     3    1   17 1   
     4    1   29 1   
     5    2    3 1   
     6    2   13 1   
     7    2   18 1   
     8    3    4 1   
     9    3   19 1   
    10    3   20 1   
    11    4    5 1   
    12    4    8 2   
    13    5    6 ar  
    14    5    7 ar  
    15    6    9 1   
    16    6   10 ar  
    17    7   11 ar  
    18    7   21 1   
    19    8    9 1   
    20    8   22 1   
    21    9   23 1   
    22   10   12 ar  
    23   10   24 1   
    24   11   12 ar  
    25   11   25 1   
    26   12   26 1   
    27   13   14 2   
    28   13   15 1   
    29   15   27 1   
    30   15   28 1   
    31   15   30 1   
@<TRIPOS>SUBSTRUCTURE
     1 LTN         1 TEMP              0 ****  ****    0 ROOT
