@<TRIPOS>MOLECULE
LTR
   26    22     1     0     0
SMALL
bcc


@<TRIPOS>ATOM
      1 N           0.2780    2.6070    2.5380 n3        1 LTR     -0.901800
      2 CA         -0.4290    2.0220    1.4390 c3        1 LTR      0.017500
      3 C          -1.8960    2.4140    1.5150 c         1 LTR      0.888600
      4 O          -2.4170    3.1130    0.5880 o         1 LTR     -0.841300
      5 CB         -0.3050    0.5170    1.5050 c3        1 LTR     -0.012200
      6 CG          0.4350    0.0090    0.2710 ce        1 LTR     -0.134000
      7 CD1         1.8220    0.0650    0.3360 c1        1 LTR      0.199500
      8 CD2         0.0880   -0.8650   -0.7510 cg        1 LTR     -0.111300
      9 NE1         2.3260   -0.7650   -0.6340 nf        1 LTR     -0.500400
     10 CE2         1.2540   -1.3440   -1.3100 ch        1 LTR      0.041000
     11 CE3        -1.1550   -1.3290   -1.2170 c1        1 LTR     -0.077250
     12 CZ2         1.1990   -2.2890   -2.3380 c1        1 LTR     -0.077250
     13 CZ3        -1.2080   -2.2640   -2.2330 c1        1 LTR     -0.077250
     14 CH2        -0.0290   -2.7460   -2.7970 c1        1 LTR     -0.077250
     15 OXT        -2.6160    2.0000    2.4820 o         1 LTR     -0.841300
     16 H          -0.2220    2.5120    3.3140 hn        1 LTR      0.333800
     17 HN2         0.4190    3.5140    2.3680 hn        1 LTR      0.333800
     18 HA         -0.0400    2.3500    0.5800 h1        1 LTR      0.042700
     19 HB1        -1.2030    0.1150    1.5390 hc        1 LTR      0.062700
     20 HB2         0.2040    0.2630    2.3210 hc        1 LTR      0.062700
     21 HD1         2.3440    0.6340    0.9250 DU        1 LTR      0.207500
     22 HE1         3.2320   -0.9160   -0.8100 DU        1 LTR      0.207500
     23 HE3        -1.9900   -0.9890   -0.8180 ha        1 LTR      0.063500
     24 HZ2         2.0490   -2.6380   -2.7460 ha        1 LTR      0.063500
     25 HZ3        -2.0770   -2.5880   -2.5580 ha        1 LTR      0.063500
     26 HH2        -0.0650   -3.4010   -3.5100 ha        1 LTR      0.063500
@<TRIPOS>BOND
     1    1    2 1   
     2    1   16 1   
     3    1   17 1   
     4    2    3 1   
     5    2    5 1   
     6    2   18 1   
     7    3    4 1   
     8    3   15 1   
     9    5    6 1   
    10    5   19 1   
    11    5   20 1   
    12    6    7 2   
    13    6    8 1   
    14    7    9 2   
    15    8   10 3   
    16    9   10 1   
    17   11   13 3   
    18   11   23 1   
    19   12   14 3   
    20   12   24 1   
    21   13   25 1   
    22   14   26 1   
@<TRIPOS>SUBSTRUCTURE
     1 LTR         1 TEMP              0 ****  ****    0 ROOT
