@<TRIPOS>MOLECULE
LTR
   26    27     1     0     0
SMALL
bcc


@<TRIPOS>ATOM
      1 N           1.9800   -0.1620    2.3510 n3        1 LTR     -0.901800
      2 CA          0.6310    0.3690    2.2060 c3        1 LTR      0.017500
      3 C          -0.2430    0.2620    3.5030 c         1 LTR      0.888600
      4 O           0.3190   -0.1350    4.5630 o         1 LTR     -0.841300
      5 CB         -0.1560   -0.2530    1.0500 c3        1 LTR     -0.012200
      6 CG          0.3590    0.0620   -0.2900 cc        1 LTR     -0.092400
      7 CD1         1.5870    0.6120   -0.6400 cd        1 LTR     -0.111100
      8 CD2        -0.3670   -0.1600   -1.5310 ca        1 LTR     -0.089800
      9 NE1         1.7100    0.7000   -2.0400 na        1 LTR     -0.205400
     10 CE2         0.4980    0.2850   -2.6040 ca        1 LTR     -0.056200
     11 CE3        -1.6260   -0.6720   -1.8370 ca        1 LTR     -0.075000
     12 CZ2         0.0840    0.2110   -3.9410 ca        1 LTR     -0.160000
     13 CZ3        -2.0220   -0.7390   -3.1670 ca        1 LTR     -0.176000
     14 CH2        -1.1790   -0.3020   -4.2010 ca        1 LTR     -0.128000
     15 OXT        -1.4560    0.6010    3.4210 o         1 LTR     -0.841300
     16 H           1.9380   -1.1650    2.3050 hn        1 LTR      0.333800
     17 HN2         2.2890    0.0650    3.2840 hn        1 LTR      0.333800
     18 HA          0.7480    1.4730    1.9980 h1        1 LTR      0.042700
     19 HB1        -0.1930   -1.3700    1.1730 hc        1 LTR      0.062700
     20 HB2        -1.2160    0.1230    1.1390 hc        1 LTR      0.062700
     21 HD1         2.4130    0.9170    0.0090 h4        1 LTR      0.189000
     22 HE1         2.3500    1.2890   -2.5000 hn        1 LTR      0.275700
     23 HE3        -2.2890   -1.0110   -1.0270 ha        1 LTR      0.141000
     24 HZ2         0.7370    0.5480   -4.7550 ha        1 LTR      0.116000
     25 HZ3        -3.0150   -1.1370   -3.4190 ha        1 LTR      0.116000
     26 HH2        -1.5300   -0.3680   -5.2410 ha        1 LTR      0.111000
@<TRIPOS>BOND
     1    1    2 1   
     2    1   16 1   
     3    1   17 1   
     4    2    3 1   
     5    2    5 1   
     6    2   18 1   
     7    3    4 1   
     8    3   15 1   
     9    5    6 1   
    10    5   19 1   
    11    5   20 1   
    12    6    7 2   
    13    6    8 1   
    14    7    9 1   
    15    7   21 1   
    16    8   10 ar  
    17    8   11 ar  
    18    9   10 1   
    19    9   22 1   
    20   10   12 ar  
    21   11   13 ar  
    22   11   23 1   
    23   12   14 ar  
    24   12   24 1   
    25   13   14 ar  
    26   13   25 1   
    27   14   26 1   
@<TRIPOS>SUBSTRUCTURE
     1 LTR         1 TEMP              0 ****  ****    0 ROOT
