@<TRIPOS>MOLECULE
LTS
   50    52     1     0     0
SMALL
bcc


@<TRIPOS>ATOM
      1 C4          0.0340    0.4490   -0.0360 ca        1 LTS     -0.010000
      2 C5          1.3780    0.0950    0.1330 ca        1 LTS     -0.390500
      3 C6          1.8550   -0.1420    1.4310 ca        1 LTS     -0.014000
      4 C10         2.7540    1.5410   -1.5200 ca        1 LTS     -0.287500
      5 C13         3.4060    4.1940   -2.1390 ca        1 LTS     -0.146300
      6 C15         3.8530    2.1590   -0.9200 ca        1 LTS     -0.016000
      7 C20         4.3940    8.3190   -0.1320 cg        1 LTS      0.234800
      8 C24         3.0230   10.4780   -4.7710 ca        1 LTS     -0.247800
      9 C28         1.8690   10.6840   -2.6470 ca        1 LTS     -0.247800
     10 C1          1.0230   -0.0130    2.5410 ca        1 LTS     -0.137000
     11 C2         -0.3090    0.3650    2.3800 ca        1 LTS     -0.059000
     12 C3         -0.7900    0.5970    1.0830 ca        1 LTS      0.067100
     13 S7          2.3800   -0.1070   -1.1900 sy        1 LTS      1.435600
     14 O8          3.5650   -0.7370   -0.8060 o         1 LTS     -0.630300
     15 O9          1.6580   -0.5890   -2.2830 o         1 LTS     -0.630300
     16 C11         1.9910    2.2610   -2.4460 ca        1 LTS     -0.016000
     17 C12         2.3090    3.5810   -2.7570 ca        1 LTS     -0.123000
     18 C14         4.1800    3.4830   -1.2180 ca        1 LTS     -0.123000
     19 C16         3.7770    5.5910   -2.5070 c3        1 LTS      0.169100
     20 N17         2.8540    6.5780   -1.8520 ny        1 LTS     -0.792000
     21 C18         3.2690    8.0200   -2.1710 c2        1 LTS      0.738100
     22 N19         4.0120    8.7380   -1.3750 ne        1 LTS     -0.366700
     23 N21         4.7880    8.0830    0.9440 n1        1 LTS     -0.239800
     24 N22         2.6990    8.4780   -3.3800 nu        1 LTS     -0.662600
     25 C23         2.5550    9.8840   -3.5800 ca        1 LTS      0.111600
     26 C25         2.7630   11.8450   -4.9740 ca        1 LTS      0.430700
     27 N26         2.1060   12.6220   -4.0940 nb        1 LTS     -0.628000
     28 C27         1.6730   12.0430   -2.9590 ca        1 LTS      0.430700
     29 O29        -2.0640    1.1180    0.8770 os        1 LTS     -0.380900
     30 C30        -3.1700    0.2680    1.0830 c3        1 LTS      0.824700
     31 F31        -3.2820   -0.0850    2.3870 f         1 LTS     -0.205633
     32 F32        -4.2390    1.0130    0.7170 f         1 LTS     -0.205633
     33 F33        -3.0990   -0.8470    0.3160 f         1 LTS     -0.205633
     34 H4         -0.3820    0.6040   -1.0470 ha        1 LTS      0.166000
     35 H6          2.9070   -0.4560    1.5690 ha        1 LTS      0.168000
     36 H15         4.4850    1.5850   -0.2160 ha        1 LTS      0.179000
     37 H24         3.5700    9.9080   -5.5350 ha        1 LTS      0.151500
     38 H28         1.4870   10.2830   -1.7000 ha        1 LTS      0.151500
     39 H1          1.4160   -0.2150    3.5500 ha        1 LTS      0.162000
     40 H2         -0.9830    0.4720    3.2460 ha        1 LTS      0.171000
     41 H11         1.1400    1.7660   -2.9520 ha        1 LTS      0.179000
     42 H12         1.7120    4.1240   -3.5060 ha        1 LTS      0.146500
     43 H14         5.0580    3.9470   -0.7420 ha        1 LTS      0.146500
     44 H16         3.7000    5.7370   -3.6240 hx        1 LTS      0.111700
     45 H16A        4.8300    5.8300   -2.1790 hx        1 LTS      0.111700
     46 HN17        1.8910    6.4090   -2.1760 hn        1 LTS      0.467800
     47 HN22        3.0340    7.9900   -4.1940 hn        1 LTS      0.444800
     48 H25         3.1090   12.3480   -5.8990 h4        1 LTS      0.050600
     49 H27         1.1370   12.7060   -2.2520 h4        1 LTS      0.050600
     50 H172        2.8690    6.4320   -0.8340 hn        1 LTS      0.467800
@<TRIPOS>BOND
     1    1    2 ar  
     2    1   12 ar  
     3    1   34 1   
     4    2    3 ar  
     5    2   13 1   
     6    3   10 ar  
     7    3   35 1   
     8    4    6 ar  
     9    4   13 1   
    10    4   16 ar  
    11    5   17 ar  
    12    5   18 ar  
    13    5   19 1   
    14    6   18 ar  
    15    6   36 1   
    16    7   22 1   
    17    7   23 3   
    18    8   25 ar  
    19    8   26 ar  
    20    8   37 1   
    21    9   25 ar  
    22    9   28 ar  
    23    9   38 1   
    24   10   11 ar  
    25   10   39 1   
    26   11   12 ar  
    27   11   40 1   
    28   12   29 1   
    29   13   14 2   
    30   13   15 2   
    31   16   17 ar  
    32   16   41 1   
    33   17   42 1   
    34   18   43 1   
    35   19   20 1   
    36   19   44 1   
    37   19   45 1   
    38   20   21 1   
    39   20   46 1   
    40   20   50 1   
    41   21   22 2   
    42   21   24 1   
    43   24   25 1   
    44   24   47 1   
    45   26   27 ar  
    46   26   48 1   
    47   27   28 ar  
    48   28   49 1   
    49   29   30 1   
    50   30   31 1   
    51   30   32 1   
    52   30   33 1   
@<TRIPOS>SUBSTRUCTURE
     1 LTS         1 TEMP              0 ****  ****    0 ROOT
