@<TRIPOS>MOLECULE
LTS
   50    52     1     0     0
SMALL
bcc


@<TRIPOS>ATOM
      1 C4          0.0350    0.4730   -0.0320 ca        1 LTS     -0.010000
      2 C5          1.3780    0.1140    0.1320 ca        1 LTS     -0.390500
      3 C6          1.8580   -0.1320    1.4270 ca        1 LTS     -0.014000
      4 C10         2.7530    1.5650   -1.5170 ca        1 LTS     -0.287500
      5 C13         3.4110    4.2190   -2.1240 ca        1 LTS     -0.146300
      6 C15         3.8550    2.1770   -0.9160 ca        1 LTS     -0.016000
      7 C20         4.4140    8.3300   -0.0940 cg        1 LTS      0.234800
      8 C24         3.0470   10.5200   -4.7170 ca        1 LTS     -0.247800
      9 C28         1.8930   10.7180   -2.5930 ca        1 LTS     -0.247800
     10 C1          1.0290   -0.0060    2.5400 ca        1 LTS     -0.137000
     11 C2         -0.3020    0.3760    2.3850 ca        1 LTS     -0.059000
     12 C3         -0.7850    0.6160    1.0910 ca        1 LTS      0.067100
     13 S7          2.3760   -0.0840   -1.1950 sy        1 LTS      1.435600
     14 O8          3.5610   -0.7200   -0.8180 o         1 LTS     -0.630300
     15 O9          1.6500   -0.5580   -2.2880 o         1 LTS     -0.630300
     16 C11         1.9900    2.2930   -2.4370 ca        1 LTS     -0.016000
     17 C12         2.3110    3.6130   -2.7420 ca        1 LTS     -0.123000
     18 C14         4.1850    3.5020   -1.2080 ca        1 LTS     -0.123000
     19 C16         3.7850    5.6180   -2.4850 c3        1 LTS      0.169100
     20 N17         2.8660    6.6040   -1.8220 n4        1 LTS     -0.792000
     21 C18         3.2850    8.0460   -2.1330 c2        1 LTS      0.738100
     22 N19         4.0320    8.7570   -1.3330 ne        1 LTS     -0.366700
     23 N21         4.8080    8.0860    0.9800 n1        1 LTS     -0.239800
     24 N22         2.7160    8.5130   -3.3390 nh        1 LTS     -0.662600
     25 C23         2.5770    9.9210   -3.5300 ca        1 LTS      0.111600
     26 C25         2.7910   11.8900   -4.9130 ca        1 LTS      0.430700
     27 N26         2.1360   12.6630   -4.0270 nb        1 LTS     -0.628000
     28 C27         1.7020   12.0790   -2.8960 ca        1 LTS      0.430700
     29 O29        -2.0590    1.1420    0.8910 os        1 LTS     -0.380900
     30 C30        -3.1670    0.2940    1.0960 c3        1 LTS      0.824700
     31 F31        -3.2760   -0.0650    2.3980 f         1 LTS     -0.205633
     32 F32        -4.2340    1.0440    0.7370 f         1 LTS     -0.205633
     33 F33        -3.1010   -0.8160    0.3240 f         1 LTS     -0.205633
     34 H4         -0.3840    0.6340   -1.0410 ha        1 LTS      0.166000
     35 H6          2.9090   -0.4500    1.5610 ha        1 LTS      0.168000
     36 H15         4.4880    1.5970   -0.2170 ha        1 LTS      0.179000
     37 H24         3.5910    9.9540   -5.4850 ha        1 LTS      0.151500
     38 H28         1.5100   10.3110   -1.6470 ha        1 LTS      0.151500
     39 H1          1.4250   -0.2150    3.5470 ha        1 LTS      0.162000
     40 H2         -0.9730    0.4800    3.2530 ha        1 LTS      0.171000
     41 H11         1.1370    1.8020   -2.9440 ha        1 LTS      0.179000
     42 H12         1.7130    4.1610   -3.4870 ha        1 LTS      0.146500
     43 H14         5.0660    3.9610   -0.7320 ha        1 LTS      0.146500
     44 H16         4.8400    5.8510   -2.1590 hx        1 LTS      0.111700
     45 H16A        3.7050    5.7690   -3.6000 hx        1 LTS      0.111700
     46 HN17        1.9030    6.4390   -2.1450 hn        1 LTS      0.467800
     47 HN22        3.0490    8.0290   -4.1560 hn        1 LTS      0.444800
     48 H25         3.1380   12.3970   -5.8340 h4        1 LTS      0.050600
     49 H27         1.1670   12.7390   -2.1850 h4        1 LTS      0.050600
     50 H172        2.8830    6.4520   -0.8050 hn        1 LTS      0.467800
@<TRIPOS>BOND
     1    1    2 ar  
     2    1   12 ar  
     3    1   34 1   
     4    2    3 ar  
     5    2   13 1   
     6    3   10 ar  
     7    3   35 1   
     8    4    6 ar  
     9    4   13 1   
    10    4   16 ar  
    11    5   17 ar  
    12    5   18 ar  
    13    5   19 1   
    14    6   18 ar  
    15    6   36 1   
    16    7   22 1   
    17    7   23 3   
    18    8   25 ar  
    19    8   26 ar  
    20    8   37 1   
    21    9   25 ar  
    22    9   28 ar  
    23    9   38 1   
    24   10   11 ar  
    25   10   39 1   
    26   11   12 ar  
    27   11   40 1   
    28   12   29 1   
    29   13   14 2   
    30   13   15 2   
    31   16   17 ar  
    32   16   41 1   
    33   17   42 1   
    34   18   43 1   
    35   19   20 1   
    36   19   44 1   
    37   19   45 1   
    38   20   21 1   
    39   20   46 1   
    40   20   50 1   
    41   21   22 2   
    42   21   24 1   
    43   24   25 1   
    44   24   47 1   
    45   26   27 ar  
    46   26   48 1   
    47   27   28 ar  
    48   28   49 1   
    49   29   30 1   
    50   30   31 1   
    51   30   32 1   
    52   30   33 1   
@<TRIPOS>SUBSTRUCTURE
     1 LTS         1 TEMP              0 ****  ****    0 ROOT
