@<TRIPOS>MOLECULE
LTS
   49    41     1     0     0
SMALL
bcc


@<TRIPOS>ATOM
      1 C4         -1.0360   -5.0280    0.2510 c1        1 LTS     -0.016500
      2 C5          0.1030   -4.6960    0.9710 c1        1 LTS     -0.805500
      3 C6          1.3310   -5.2220    0.6050 c1        1 LTS     -0.088667
      4 C10         0.2080   -1.9380    1.9830 c1        1 LTS     -0.805500
      5 C13         0.5780    0.7410    1.3340 c1        1 LTS     -0.044000
      6 C15         1.4920   -1.4140    1.8970 c1        1 LTS     -0.088667
      7 C20         3.4620    4.0860   -0.1420 c1        1 LTS     -0.076000
      8 C24         0.0360    6.6750   -1.3970 c1        1 LTS     -0.088667
      9 C28        -1.7890    5.4650   -0.5040 c1        1 LTS     -0.220000
     10 C1          1.4220   -6.0810   -0.4810 c1        1 LTS     -0.088667
     11 C2          0.2840   -6.4130   -1.2000 c1        1 LTS     -0.052000
     12 C3         -0.9450   -5.8860   -0.8340 c1        1 LTS      0.011000
     13 S7         -0.0300   -3.6630    2.4230 s6        1 LTS      2.887000
     14 O8         -1.2870   -3.8620    3.0920 o         1 LTS     -0.928500
     15 O9          0.8980   -4.0740    3.4430 o         1 LTS     -0.928500
     16 C11        -0.8900   -1.1260    1.7450 c1        1 LTS     -0.016500
     17 C12        -0.7070    0.2160    1.4200 c1        1 LTS     -0.140000
     18 C14         1.6770   -0.0730    1.5720 c1        1 LTS     -0.088667
     19 C16         0.7760    2.2450    1.0860 c3        1 LTS     -0.007000
     20 N17         1.2630    2.4540   -0.2640 n3        1 LTS     -0.346000
     21 C18         1.2340    3.7870   -0.8500 c2        1 LTS      0.260000
     22 N19         2.2870    4.5510   -0.7850 n1        1 LTS     -0.212000
     23 N21         4.4080    3.7120    0.3760 n1        1 LTS     -0.081000
     24 N22         0.0550    4.2540   -1.4970 n3        1 LTS     -0.247000
     25 C23        -0.5520    5.4820   -1.0790 c1        1 LTS      0.082000
     26 C25        -0.6260    7.8650   -1.1330 c1        1 LTS     -0.088667
     27 N26        -1.8640    7.8440   -0.5570 n1        1 LTS     -0.140000
     28 C27        -2.4490    6.6570   -0.2410 c1        1 LTS     -0.053000
     29 O29        -2.1110   -6.3060   -1.4920 os        1 LTS     -0.248000
     30 C30        -2.3080   -5.6970   -2.7290 c3        1 LTS      0.534000
     31 F31        -1.2580   -5.9560   -3.5290 f         1 LTS     -0.143333
     32 F32        -3.4200   -6.1740   -3.2880 f         1 LTS     -0.143333
     33 F33        -2.4270   -4.3690   -2.5620 f         1 LTS     -0.143333
     34 H4         -1.9020   -4.6570    0.5090 ha        1 LTS      0.166000
     35 H6          2.1360   -4.9870    1.1140 ha        1 LTS      0.158667
     36 H15         2.2660   -1.9860    2.0650 ha        1 LTS      0.158667
     37 H24         0.9130    6.6900   -1.8050 ha        1 LTS      0.158667
     38 H28        -2.2110    4.6110   -0.2750 ha        1 LTS      0.142000
     39 H1          2.2890   -6.4530   -0.7390 ha        1 LTS      0.158667
     40 H2          0.3470   -7.0140   -1.9600 ha        1 LTS      0.161000
     41 H11        -1.7920   -1.4950    1.8050 ha        1 LTS      0.166000
     42 H12        -1.4840    0.7900    1.2520 ha        1 LTS      0.147000
     43 H14         2.5750    0.2920    1.5130 ha        1 LTS      0.158667
     44 H16        -0.0770    2.7090    1.2010 h1        1 LTS      0.099500
     45 H16A        1.4260    2.5970    1.7250 h1        1 LTS      0.099500
     46 HN17        1.6140    1.7540   -0.7360 hn        1 LTS      0.238000
     47 HN22       -0.3640    3.7270   -2.1140 hn        1 LTS      0.223000
     48 H25        -0.2060    8.7200   -1.3600 ha        1 LTS      0.158667
     49 H27        -3.3420    6.6440    0.1740 ha        1 LTS      0.163000
@<TRIPOS>BOND
     1    1    2 1   
     2    1   34 1   
     3    2   13 1   
     4    3   10 1   
     5    3   35 1   
     6    4   13 1   
     7    4   16 1   
     8    5   17 1   
     9    5   19 1   
    10    6   18 1   
    11    6   36 1   
    12    7   23 1   
    13    8   26 1   
    14    8   37 1   
    15    9   25 1   
    16    9   38 1   
    17   10   39 1   
    18   11   12 1   
    19   11   40 1   
    20   12   29 1   
    21   13   14 1   
    22   13   15 1   
    23   16   41 1   
    24   17   42 1   
    25   18   43 1   
    26   19   20 1   
    27   19   44 1   
    28   19   45 1   
    29   20   21 1   
    30   20   46 1   
    31   21   22 1   
    32   21   24 1   
    33   24   25 1   
    34   24   47 1   
    35   26   48 1   
    36   27   28 1   
    37   28   49 1   
    38   29   30 1   
    39   30   31 1   
    40   30   32 1   
    41   30   33 1   
@<TRIPOS>SUBSTRUCTURE
     1 LTS         1 TEMP              0 ****  ****    0 ROOT
