@<TRIPOS>MOLECULE
LTS
   51    53     1     0     0
SMALL
bcc


@<TRIPOS>ATOM
      1 C4         -0.1130    1.5320    0.1090 ca        1 LTS     -0.016000
      2 C5          1.0300    0.7210    0.1210 ca        1 LTS     -0.412500
      3 C6          1.4880    0.2210    1.3510 ca        1 LTS     -0.009000
      4 C10         2.5390    1.8270   -1.6800 ca        1 LTS     -0.230500
      5 C13         3.7820    4.2240   -2.4220 ca        1 LTS     -0.189300
      6 C15         3.7970    2.1550   -1.1740 ca        1 LTS     -0.020000
      7 C20         6.3170    7.9970   -1.0610 cg        1 LTS      0.201800
      8 C24         1.9890   10.0240   -2.7550 ca        1 LTS     -0.239800
      9 C28         1.4540    7.9680   -3.9550 ca        1 LTS     -0.239800
     10 C1          0.8360    0.5310    2.5430 ca        1 LTS     -0.132000
     11 C2         -0.2830    1.3620    2.5390 ca        1 LTS     -0.051000
     12 C3         -0.7420    1.8630    1.3110 ca        1 LTS      0.071100
     13 S7          1.7830    0.2920   -1.2960 sy        1 LTS      1.434600
     14 O8          2.8200   -0.6040   -1.0610 o         1 LTS     -0.617800
     15 O9          0.8630    0.0750   -2.3170 o         1 LTS     -0.617800
     16 C11         1.9080    2.7050   -2.5690 ca        1 LTS     -0.020000
     17 C12         2.5180    3.8980   -2.9410 ca        1 LTS     -0.110000
     18 C14         4.4200    3.3530   -1.5300 ca        1 LTS     -0.110000
     19 C16         4.4680    5.4520   -2.8840 c3        1 LTS      0.195100
     20 N17         3.8870    6.6590   -2.1450 n4        1 LTS     -0.780000
     21 C18         4.5160    7.9400   -2.5730 c2        1 LTS      0.590100
     22 N19         5.5810    8.5070   -2.0890 ne        1 LTS     -0.251700
     23 N21         7.0370    7.6810   -0.1930 n1        1 LTS     -0.088800
     24 N22         3.8350    8.6550   -3.7090 n4        1 LTS     -0.593400
     25 C23         2.4050    8.8750   -3.4450 ca        1 LTS     -0.064400
     26 C25         0.5930   10.2190   -2.6060 ca        1 LTS      0.463700
     27 N26        -0.3290    9.3690   -3.0840 nb        1 LTS     -0.565000
     28 C27         0.0940    8.2740   -3.7460 ca        1 LTS      0.463700
     29 O29        -1.7520    2.8180    1.2580 os        1 LTS     -0.392900
     30 C30        -3.0750    2.4130    1.5460 c3        1 LTS      0.827700
     31 F31        -3.1970    2.0340    2.8400 f         1 LTS     -0.201300
     32 F32        -3.8140    3.5230    1.3160 f         1 LTS     -0.201300
     33 F33        -3.4750    1.4100    0.7300 f         1 LTS     -0.201300
     34 H4         -0.5260    1.9020   -0.8440 ha        1 LTS      0.158000
     35 H6          2.3700   -0.4470    1.3690 ha        1 LTS      0.174000
     36 H15         4.3210    1.4450   -0.5040 ha        1 LTS      0.192000
     37 H24         2.6860   10.7760   -2.3490 ha        1 LTS      0.181000
     38 H28         1.7240    7.0790   -4.5450 ha        1 LTS      0.181000
     39 H1          1.2030    0.1110    3.4950 ha        1 LTS      0.171000
     40 H2         -0.8120    1.6150    3.4730 ha        1 LTS      0.178000
     41 H11         0.9260    2.4260   -3.0010 ha        1 LTS      0.192000
     42 H12         2.0250    4.5600   -3.6680 ha        1 LTS      0.138500
     43 H14         5.4210    3.5830   -1.1330 ha        1 LTS      0.138500
     44 H16         4.2990    5.6300   -3.9840 hx        1 LTS      0.112700
     45 H16A        5.5750    5.4210   -2.6680 hx        1 LTS      0.112700
     46 HN17        2.8620    6.6770   -2.2910 hn        1 LTS      0.487300
     47 HN22        3.9540    8.0950   -4.5710 hn        1 LTS      0.509300
     48 H25         0.2070   11.1200   -2.0770 h4        1 LTS      0.092100
     49 H27        -0.7030    7.6060   -4.1410 h4        1 LTS      0.092100
     50 H172        4.0440    6.5290   -1.1290 hn        1 LTS      0.487300
     51 H222        4.2950    9.5800   -3.8540 hn        1 LTS      0.509300
@<TRIPOS>BOND
     1    1    2 ar  
     2    1   12 ar  
     3    1   34 1   
     4    2    3 ar  
     5    2   13 1   
     6    3   10 ar  
     7    3   35 1   
     8    4    6 ar  
     9    4   13 1   
    10    4   16 ar  
    11    5   17 ar  
    12    5   18 ar  
    13    5   19 1   
    14    6   18 ar  
    15    6   36 1   
    16    7   22 1   
    17    7   23 3   
    18    8   25 ar  
    19    8   26 ar  
    20    8   37 1   
    21    9   25 ar  
    22    9   28 ar  
    23    9   38 1   
    24   10   11 ar  
    25   10   39 1   
    26   11   12 ar  
    27   11   40 1   
    28   12   29 1   
    29   13   14 2   
    30   13   15 2   
    31   16   17 ar  
    32   16   41 1   
    33   17   42 1   
    34   18   43 1   
    35   19   20 1   
    36   19   44 1   
    37   19   45 1   
    38   20   21 1   
    39   20   46 1   
    40   20   50 1   
    41   21   22 2   
    42   21   24 1   
    43   24   25 1   
    44   24   47 1   
    45   24   51 1   
    46   26   27 ar  
    47   26   48 1   
    48   27   28 ar  
    49   28   49 1   
    50   29   30 1   
    51   30   31 1   
    52   30   32 1   
    53   30   33 1   
@<TRIPOS>SUBSTRUCTURE
     1 LTS         1 TEMP              0 ****  ****    0 ROOT
