@<TRIPOS>MOLECULE
LTS
   49    51     1     0     0
SMALL
bcc


@<TRIPOS>ATOM
      1 C4          4.0280   -0.2940    0.5030 ca        1 LTS     -0.007000
      2 C5          3.6030   -1.2200   -0.4550 ca        1 LTS     -0.360500
      3 C6          3.7790   -0.9210   -1.8120 ca        1 LTS     -0.013000
      4 C10         1.2990   -2.2680    0.0890 ca        1 LTS     -0.363500
      5 C13        -1.4290   -1.6050    0.2210 ca        1 LTS     -0.051300
      6 C15         0.4630   -2.4530   -1.0180 ca        1 LTS     -0.015500
      7 C20        -4.0320    1.7810   -2.3690 cg        1 LTS      0.301800
      8 C24        -7.9690   -0.5170    0.3710 ca        1 LTS     -0.255300
      9 C28        -7.0120    1.6980    0.5680 ca        1 LTS     -0.255300
     10 C1          4.3470    0.2850   -2.2180 ca        1 LTS     -0.142000
     11 C2          4.7540    1.2220   -1.2700 ca        1 LTS     -0.068000
     12 C3          4.5920    0.9170    0.0880 ca        1 LTS      0.059100
     13 S7          2.9280   -2.6920    0.0190 sy        1 LTS      1.439600
     14 O8          3.1160   -3.6340   -1.0030 o         1 LTS     -0.649800
     15 O9          3.3770   -3.0130    1.3070 o         1 LTS     -0.649800
     16 C11         0.7420   -1.7590    1.2690 ca        1 LTS     -0.015500
     17 C12        -0.6080   -1.4240    1.3380 ca        1 LTS     -0.141500
     18 C14        -0.8890   -2.1260   -0.9590 ca        1 LTS     -0.141500
     19 C16        -2.8920   -1.2750    0.3150 c3        1 LTS      0.237100
     20 N17        -3.3550   -0.4520   -0.7780 nh        1 LTS     -0.861200
     21 C18        -4.5990    0.2200   -0.7230 c2        1 LTS      0.852100
     22 N19        -4.9480    1.2290   -1.5300 ne        1 LTS     -0.550700
     23 N21        -3.3400    2.3370   -3.1330 n1        1 LTS     -0.406800
     24 N22        -5.5360   -0.2570    0.2410 nh        1 LTS     -0.685600
     25 C23        -6.8260    0.3160    0.3570 ca        1 LTS      0.163600
     26 C25        -9.2230    0.0690    0.6010 ca        1 LTS      0.410200
     27 N26        -9.4120    1.3870    0.8020 nb        1 LTS     -0.666000
     28 C27        -8.3180    2.1710    0.7790 ca        1 LTS      0.410200
     29 O29         4.8580    1.8750    1.0670 os        1 LTS     -0.369900
     30 C30         6.2040    2.1630    1.3510 c3        1 LTS      0.820700
     31 F31         6.8210    2.7550    0.2970 f         1 LTS     -0.212967
     32 F32         6.1580    3.0330    2.3890 f         1 LTS     -0.212967
     33 F33         6.9030    1.0600    1.7120 f         1 LTS     -0.212967
     34 H4          3.9260   -0.5140    1.5810 ha        1 LTS      0.172000
     35 H6          3.4720   -1.6650   -2.5700 ha        1 LTS      0.159000
     36 H15         0.8840   -2.8800   -1.9470 ha        1 LTS      0.158500
     37 H24        -7.8960   -1.6000    0.2090 ha        1 LTS      0.152000
     38 H28        -6.1700    2.4030    0.5610 ha        1 LTS      0.152000
     39 H1          4.4750    0.5010   -3.2900 ha        1 LTS      0.153000
     40 H2          5.2040    2.1820   -1.5700 ha        1 LTS      0.162000
     41 H11         1.3840   -1.6340    2.1590 ha        1 LTS      0.158500
     42 H12        -1.0230   -1.0210    2.2750 ha        1 LTS      0.149500
     43 H14        -1.5300   -2.2880   -1.8400 ha        1 LTS      0.149500
     44 H16        -3.4680   -2.2480    0.2930 h1        1 LTS      0.060200
     45 H16A       -3.0970   -0.7790    1.3100 h1        1 LTS      0.060200
     46 HN17       -2.6370    0.0190   -1.2890 hn        1 LTS      0.442800
     47 HN22       -5.5400   -1.2560    0.3290 hn        1 LTS      0.427800
     48 H25       -10.1350   -0.5560    0.6200 h4        1 LTS      0.027600
     49 H27        -8.4970    3.2500    0.9420 h4        1 LTS      0.027600
@<TRIPOS>BOND
     1    1    2 ar  
     2    1   12 ar  
     3    1   34 1   
     4    2    3 ar  
     5    2   13 1   
     6    3   10 ar  
     7    3   35 1   
     8    4    6 ar  
     9    4   13 1   
    10    4   16 ar  
    11    5   17 ar  
    12    5   18 ar  
    13    5   19 1   
    14    6   18 ar  
    15    6   36 1   
    16    7   22 1   
    17    7   23 3   
    18    8   25 ar  
    19    8   26 ar  
    20    8   37 1   
    21    9   25 ar  
    22    9   28 ar  
    23    9   38 1   
    24   10   11 ar  
    25   10   39 1   
    26   11   12 ar  
    27   11   40 1   
    28   12   29 1   
    29   13   14 2   
    30   13   15 2   
    31   16   17 ar  
    32   16   41 1   
    33   17   42 1   
    34   18   43 1   
    35   19   20 1   
    36   19   44 1   
    37   19   45 1   
    38   20   21 1   
    39   20   46 1   
    40   21   22 2   
    41   21   24 1   
    42   24   25 1   
    43   24   47 1   
    44   26   27 ar  
    45   26   48 1   
    46   27   28 ar  
    47   28   49 1   
    48   29   30 1   
    49   30   31 1   
    50   30   32 1   
    51   30   33 1   
@<TRIPOS>SUBSTRUCTURE
     1 LTS         1 TEMP              0 ****  ****    0 ROOT
