@<TRIPOS>MOLECULE
LTT
   26    24     1     0     0
SMALL
bcc


@<TRIPOS>ATOM
      1 O1          1.7150    0.2980   -0.2730 o         1 LTT     -0.349000
      2 C1          1.1140    0.3240    0.7820 c1        1 LTT      0.361000
      3 N2          1.8020    0.3210    1.9580 n1        1 LTT     -0.295000
      4 C3          1.1410    0.3830    3.1230 c1        1 LTT      0.231000
      5 N3          1.8560    0.3620    4.3470 n2        1 LTT     -0.356000
      6 C5         -0.2220    0.4500    3.1310 c2        1 LTT     -0.330000
      7 C7         -0.9110    0.4540    1.9530 c1        1 LTT      0.065000
      8 N1         -0.2470    0.3920    0.7890 n2        1 LTT     -0.288000
      9 C4         -0.9860    0.4330   -0.4800 c3        1 LTT      0.135000
     10 O3         -0.2570    0.8490   -1.3790 os        1 LTT     -0.303000
     11 C2         -0.6970    0.1100   -2.5990 c3        1 LTT      0.121000
     12 C8          0.4000   -0.4150   -3.2640 c3        1 LTT     -0.062000
     13 O4          0.0470   -0.7020   -4.5990 oh        1 LTT     -0.320000
     14 O2         -1.5910   -0.9980   -2.1110 os        1 LTT     -0.297000
     15 C6         -1.4190   -1.0300   -0.9030 c3        1 LTT     -0.038000
     16 HN31        1.4060    0.2840    5.1380 hn        1 LTT      0.235000
     17 HN32        2.7680    0.4220    4.3440 hn        1 LTT      0.235000
     18 H5         -0.7040    0.4960    3.9790 ha        1 LTT      0.157000
     19 H7         -1.8860    0.5020    1.9570 ha        1 LTT      0.158000
     20 H4         -1.7740    1.0050   -0.3930 h2        1 LTT      0.118000
     21 H2         -1.1950    0.7070   -3.1910 h2        1 LTT      0.132000
     22 H81         0.6900   -1.2390   -2.8180 h1        1 LTT      0.115500
     23 H82         1.1330    0.2370   -3.2530 h1        1 LTT      0.115500
     24 HO4         0.7770   -0.6970   -5.1070 ho        1 LTT      0.210000
     25 H61        -0.7090   -1.6680   -0.6810 h1        1 LTT      0.124000
     26 H62        -2.2520   -1.2790   -0.4510 h1        1 LTT      0.124000
@<TRIPOS>BOND
     1    1    2 1   
     2    2    8 1   
     3    3    4 1   
     4    4    6 1   
     5    5   16 1   
     6    5   17 1   
     7    6    7 1   
     8    6   18 1   
     9    7   19 1   
    10    8    9 1   
    11    9   10 1   
    12    9   15 1   
    13    9   20 1   
    14   10   11 1   
    15   11   12 1   
    16   11   14 1   
    17   11   21 1   
    18   12   13 1   
    19   12   22 1   
    20   12   23 1   
    21   13   24 1   
    22   14   15 1   
    23   15   25 1   
    24   15   26 1   
@<TRIPOS>SUBSTRUCTURE
     1 LTT         1 TEMP              0 ****  ****    0 ROOT
