@<TRIPOS>MOLECULE
LTT
   27    28     1     0     0
SMALL
bcc


@<TRIPOS>ATOM
      1 O1          0.0130    0.4840   -0.0350 o         1 LTT     -0.515500
      2 C1          1.2310    0.2820   -0.0980 c         1 LTT      0.830900
      3 N2          2.0620    0.4060    1.0520 nc        1 LTT     -0.630100
      4 C3          3.3500    0.1540    0.9160 cd        1 LTT      0.610500
      5 N3          4.2010    0.2970    2.1300 n4        1 LTT     -0.803600
      6 C5          3.9980   -0.2380   -0.2990 cd        1 LTT     -0.444600
      7 C7          3.1770   -0.3380   -1.4180 cc        1 LTT      0.137600
      8 N1          1.8370   -0.1060   -1.3530 n         1 LTT     -0.358000
      9 C4          0.9890   -0.1670   -2.5540 c3        1 LTT      0.265500
     10 O3          1.5730    0.6120   -3.6030 os        1 LTT     -0.441600
     11 C2          1.9520   -0.2250   -4.7080 c3        1 LTT      0.286900
     12 C8          3.4100    0.0390   -5.1050 c3        1 LTT      0.112400
     13 O4          4.1170    0.6730   -4.0620 oh        1 LTT     -0.608800
     14 O2          1.8200   -1.5630   -4.2360 os        1 LTT     -0.424600
     15 C6          0.8740   -1.5880   -3.1660 c3        1 LTT      0.097400
     16 HN31        4.6470   -0.6070    2.3230 hn        1 LTT      0.478800
     17 HN32        4.9200    1.0040    1.9400 hn        1 LTT      0.478800
     18 H5          5.0710   -0.4400   -0.3770 ha        1 LTT      0.187000
     19 H7          3.5970   -0.6000   -2.4220 h4        1 LTT      0.235000
     20 H4         -0.0060    0.3090   -2.3060 h2        1 LTT      0.153700
     21 H2          1.2290   -0.0340   -5.5480 h2        1 LTT      0.093700
     22 H81         3.9420   -0.9360   -5.2760 h1        1 LTT      0.085200
     23 H82         3.4300    0.6590   -6.0390 h1        1 LTT      0.085200
     24 HO4         3.7610    1.5680   -3.9750 ho        1 LTT      0.420000
     25 H61         1.1760   -2.4310   -2.4990 h1        1 LTT      0.094200
     26 H62        -0.1570   -1.7470   -3.5720 h1        1 LTT      0.094200
     27 H33         3.6440    0.5860    2.9480 hn        1 LTT      0.478800
@<TRIPOS>BOND
     1    1    2 2   
     2    2    3 1   
     3    2    8 1   
     4    3    4 2   
     5    4    5 1   
     6    4    6 1   
     7    5   16 1   
     8    5   17 1   
     9    5   27 1   
    10    6    7 2   
    11    6   18 1   
    12    7    8 1   
    13    7   19 1   
    14    8    9 1   
    15    9   10 1   
    16    9   15 1   
    17    9   20 1   
    18   10   11 1   
    19   11   12 1   
    20   11   14 1   
    21   11   21 1   
    22   12   13 1   
    23   12   22 1   
    24   12   23 1   
    25   13   24 1   
    26   14   15 1   
    27   15   25 1   
    28   15   26 1   
@<TRIPOS>SUBSTRUCTURE
     1 LTT         1 TEMP              0 ****  ****    0 ROOT
