@<TRIPOS>MOLECULE
LTT
   26    27     1     0     0
SMALL
bcc


@<TRIPOS>ATOM
      1 O1          2.2750    0.4250   -2.0760 o         1 LTT     -0.628500
      2 C1          1.6270    1.4890   -2.0060 c         1 LTT      0.838900
      3 N2          1.1130    2.1420   -3.1280 nc        1 LTT     -0.724100
      4 C3          0.4370    3.2960   -2.9600 cd        1 LTT      0.757500
      5 N3         -0.1330    3.9160   -4.0500 nh        1 LTT     -0.917800
      6 C5          0.2560    3.9010   -1.6420 cd        1 LTT     -0.434600
      7 C7          0.7660    3.2410   -0.5540 cc        1 LTT      0.073600
      8 N1          1.4220    2.0440   -0.6810 n         1 LTT     -0.412000
      9 C4          2.0260    1.3700    0.4630 c3        1 LTT      0.284500
     10 O3          1.6090    1.9580    1.7050 os        1 LTT     -0.437600
     11 C2          0.7310    1.0760    2.4010 c3        1 LTT      0.334900
     12 C8         -0.7460    1.4330    2.1790 c3        1 LTT      0.085400
     13 O4         -1.1480    2.1910    3.3060 oh        1 LTT     -0.595800
     14 O2          1.0140   -0.2200    1.8940 os        1 LTT     -0.437600
     15 C6          1.6470   -0.1260    0.6130 c3        1 LTT      0.111400
     16 HN31       -0.4480    4.8470   -3.9420 hn        1 LTT      0.438300
     17 HN32        0.0570    3.5830   -4.9650 hn        1 LTT      0.438300
     18 H5         -0.2730    4.8520   -1.5250 ha        1 LTT      0.156000
     19 H7          0.6690    3.6520    0.4720 h4        1 LTT      0.179000
     20 H4          3.1440    1.5220    0.4100 h2        1 LTT      0.104700
     21 H2          1.0130    1.1100    3.4890 h2        1 LTT      0.117700
     22 H81        -1.3460    0.4880    2.0970 h1        1 LTT      0.044700
     23 H82        -0.8700    2.0430    1.2450 h1        1 LTT      0.044700
     24 HO4        -2.1090    2.2540    3.2680 ho        1 LTT      0.408000
     25 H61         0.9380   -0.4970   -0.1670 h1        1 LTT      0.086200
     26 H62         2.5590   -0.7710    0.6500 h1        1 LTT      0.086200
@<TRIPOS>BOND
     1    1    2 2   
     2    2    3 1   
     3    2    8 1   
     4    3    4 2   
     5    4    5 1   
     6    4    6 1   
     7    5   16 1   
     8    5   17 1   
     9    6    7 2   
    10    6   18 1   
    11    7    8 1   
    12    7   19 1   
    13    8    9 1   
    14    9   10 1   
    15    9   15 1   
    16    9   20 1   
    17   10   11 1   
    18   11   12 1   
    19   11   14 1   
    20   11   21 1   
    21   12   13 1   
    22   12   22 1   
    23   12   23 1   
    24   13   24 1   
    25   14   15 1   
    26   15   25 1   
    27   15   26 1   
@<TRIPOS>SUBSTRUCTURE
     1 LTT         1 TEMP              0 ****  ****    0 ROOT
