@<TRIPOS>MOLECULE
LTT
   26    27     1     0     0
SMALL
bcc


@<TRIPOS>ATOM
      1 O1          0.0260    0.4560    0.0330 o         1 LTT     -0.616500
      2 C1          1.2360    0.1570    0.0230 c         1 LTT      0.845900
      3 N2          2.0200    0.1440    1.1820 nc        1 LTT     -0.722100
      4 C3          3.3120   -0.2220    1.0960 cd        1 LTT      0.759500
      5 N3          4.0770   -0.2970    2.2380 nv        1 LTT     -0.918800
      6 C5          3.9320   -0.5840   -0.1810 cd        1 LTT     -0.420600
      7 C7          3.1530   -0.5430   -1.3040 cc        1 LTT      0.068600
      8 N1          1.8210   -0.2080   -1.2560 n         1 LTT     -0.401000
      9 C4          1.0400   -0.0800   -2.4700 c3        1 LTT      0.271500
     10 O3          1.5830    0.9480   -3.3270 os        1 LTT     -0.440600
     11 C2          2.0300    0.4000   -4.5610 c3        1 LTT      0.289900
     12 C8          3.4980    0.7610   -4.8220 c3        1 LTT      0.118400
     13 O4          3.8730    0.3840   -6.1270 oh        1 LTT     -0.587800
     14 O2          1.9090   -1.0180   -4.4500 os        1 LTT     -0.453600
     15 C6          1.0340   -1.3410   -3.3690 c3        1 LTT      0.098400
     16 HN31        5.0560   -0.3880    2.1380 hn        1 LTT      0.439800
     17 HN32        3.7150    0.0290    3.1010 hn        1 LTT      0.439800
     18 H5          4.9860   -0.8770   -0.2330 ha        1 LTT      0.156000
     19 H7          3.5580   -0.7870   -2.3070 h4        1 LTT      0.161000
     20 H4          0.0010    0.2700   -2.1900 h2        1 LTT      0.143700
     21 H2          1.3580    0.7730   -5.3830 h2        1 LTT      0.081700
     22 H81         4.1610    0.2720   -4.0620 h1        1 LTT      0.061200
     23 H82         3.6210    1.8750   -4.7820 h1        1 LTT      0.061200
     24 HO4         3.7420   -0.5710   -6.1980 ho        1 LTT      0.411000
     25 H61         1.4470   -2.2640   -2.8930 h1        1 LTT      0.077200
     26 H62         0.0080   -1.5280   -3.7740 h1        1 LTT      0.077200
@<TRIPOS>BOND
     1    1    2 2   
     2    2    3 1   
     3    2    8 1   
     4    3    4 2   
     5    4    5 1   
     6    4    6 1   
     7    5   16 1   
     8    5   17 1   
     9    6    7 2   
    10    6   18 1   
    11    7    8 1   
    12    7   19 1   
    13    8    9 1   
    14    9   10 1   
    15    9   15 1   
    16    9   20 1   
    17   10   11 1   
    18   11   12 1   
    19   11   14 1   
    20   11   21 1   
    21   12   13 1   
    22   12   22 1   
    23   12   23 1   
    24   13   24 1   
    25   14   15 1   
    26   15   25 1   
    27   15   26 1   
@<TRIPOS>SUBSTRUCTURE
     1 LTT         1 TEMP              0 ****  ****    0 ROOT
