@<TRIPOS>MOLECULE
LU1
   61    52     1     0     0
SMALL
bcc


@<TRIPOS>ATOM
      1 O14         1.4850   -1.3490    3.2720 o         1 LU1     -0.378000
      2 C6          0.9930   -0.4910    2.5600 c1        1 LU1      0.358000
      3 C2         -0.3670    0.1290    2.9300 c1        1 LU1     -0.124000
      4 C3         -0.8770    1.1810    2.1800 c1        1 LU1      0.099000
      5 O20        -0.1760    1.6400    1.0310 oh        1 LU1     -0.257000
      6 C9         -2.1190    1.7290    2.5020 c1        1 LU1     -0.012000
      7 O21        -2.7100    2.6910    1.6430 oh        1 LU1     -0.271000
      8 C10        -2.8440    1.2220    3.5740 c1        1 LU1     -0.140000
      9 C4         -1.0940   -0.3790    4.0040 c2        1 LU1     -0.068000
     10 C7         -2.3320    0.1680    4.3260 c1        1 LU1     -0.042000
     11 C13        -3.0460   -0.3120    5.4420 c1        1 LU1     -0.054000
     12 C17        -2.8380    0.2570    6.6940 c1        1 LU1     -0.131500
     13 C24        -3.6240   -0.1280    7.7730 c1        1 LU1     -0.131500
     14 C18        -4.0420   -1.2660    5.2710 c1        1 LU1     -0.090000
     15 C25        -4.8290   -1.6520    6.3520 c1        1 LU1     -0.164000
     16 C23        -4.6200   -1.0820    7.6010 c1        1 LU1      0.095000
     17 F26        -5.3700   -1.4640    8.6460 f         1 LU1     -0.104000
     18 N16         1.7270    0.0180    1.4470 n3        1 LU1     -0.366000
     19 C27         2.5220   -0.8790    0.6310 c3        1 LU1     -0.015000
     20 C19         3.2860   -0.0720   -0.4170 c2        1 LU1     -0.128000
     21 C15         3.4770   -0.5910   -1.6910 c1        1 LU1     -0.228000
     22 C12         2.9390   -1.9270   -2.0340 c2        1 LU1      0.056000
     23 C11         3.7180   -2.4940   -2.8730 c3        1 LU1     -0.218000
     24 C8          3.2290   -2.0820   -4.2390 c3        1 LU1     -0.002000
     25 O22         3.1270   -3.2000   -5.0710 oh        1 LU1     -0.310000
     26 C1          1.8760   -1.4670   -4.0350 c3        1 LU1      0.168000
     27 O5          1.5620   -1.7550   -2.8780 os        1 LU1     -0.266000
     28 N28         1.9540    0.0310   -4.1980 n3        1 LU1     -0.206000
     29 C29         0.7080    0.5560   -4.0260 c1        1 LU1      0.005000
     30 C30         0.5860    1.6180   -4.8530 c1        1 LU1     -0.174000
     31 N31         1.7560    1.7540   -5.5380 n1        1 LU1     -0.141500
     32 C32         2.5970    0.7720   -5.1310 c1        1 LU1      0.005000
     33 N33        -0.3330    0.1980   -3.2210 n1        1 LU1     -0.141500
     34 C36        -1.4970    0.9110   -3.2500 c1        1 LU1     -0.019000
     35 N35        -1.6210    1.9840   -4.0840 n1        1 LU1     -0.191000
     36 C34        -0.5960    2.3410   -4.8800 c1        1 LU1      0.089000
     37 C37        -1.3710    3.3660   -5.7020 c3        1 LU1     -0.177000
     38 HO20        0.1060    2.4800    1.1690 ho        1 LU1      0.250000
     39 HO21       -2.6120    3.4970    1.9920 ho        1 LU1      0.233000
     40 H10        -3.7180    1.6080    3.8010 ha        1 LU1      0.144000
     41 H4         -0.7360   -1.1170    4.5310 ha        1 LU1      0.166000
     42 H17        -2.1360    0.9300    6.8150 ha        1 LU1      0.144000
     43 H24        -3.4770    0.2740    8.6550 ha        1 LU1      0.144000
     44 H18        -4.1890   -1.6670    4.3920 ha        1 LU1      0.149000
     45 H25        -5.5320   -2.3250    6.2310 ha        1 LU1      0.153000
     46 HN16        1.7240    0.9120    1.2690 hn        1 LU1      0.243000
     47 H27         1.9340   -1.5200    0.1850 h1        1 LU1      0.121000
     48 H27A        3.1630   -1.3650    1.2060 h1        1 LU1      0.121000
     49 H19         3.6390    0.8050   -0.1920 ha        1 LU1      0.137000
     50 H15         3.9630   -0.0780   -2.3570 ha        1 LU1      0.128000
     51 H12         2.8700   -2.3330   -1.1450 h4        1 LU1      0.121000
     52 H11         3.6670   -3.4680   -2.7750 hc        1 LU1      0.108500
     53 H11A        4.6420   -2.1890   -2.7370 hc        1 LU1      0.108500
     54 H8          3.8410   -1.4270   -4.6310 h1        1 LU1      0.105000
     55 HO22        3.7540   -3.1570   -5.7070 ho        1 LU1      0.210000
     56 H1          1.2310   -1.8460   -4.6680 h2        1 LU1      0.173000
     57 H32         3.4870    0.5970   -5.4870 DU        1 LU1      0.214000
     58 H36        -2.2410    0.6530   -2.6730 ha        1 LU1      0.192000
     59 H37        -1.8420    3.9810   -5.0980 hc        1 LU1      0.103000
     60 H37A       -2.0230    2.9030   -6.2730 hc        1 LU1      0.103000
     61 H37B       -0.7490    3.8720   -6.2620 hc        1 LU1      0.103000
@<TRIPOS>BOND
     1    1    2 1   
     2    2   18 1   
     3    3    4 1   
     4    3    9 1   
     5    4    5 1   
     6    5   38 1   
     7    6    7 1   
     8    6    8 1   
     9    7   39 1   
    10    8   40 1   
    11    9   10 1   
    12    9   41 1   
    13   11   14 1   
    14   12   13 1   
    15   12   42 1   
    16   13   43 1   
    17   14   44 1   
    18   15   16 1   
    19   15   45 1   
    20   16   17 1   
    21   18   19 1   
    22   18   46 1   
    23   19   20 1   
    24   19   47 1   
    25   19   48 1   
    26   20   21 1   
    27   20   49 1   
    28   21   50 1   
    29   22   23 1   
    30   22   27 1   
    31   22   51 1   
    32   23   24 1   
    33   23   52 1   
    34   23   53 1   
    35   24   25 1   
    36   24   26 1   
    37   24   54 1   
    38   25   55 1   
    39   26   27 1   
    40   26   28 1   
    41   26   56 1   
    42   28   29 1   
    43   28   32 1   
    44   29   33 1   
    45   30   36 1   
    46   31   32 1   
    47   34   35 1   
    48   34   58 1   
    49   36   37 1   
    50   37   59 1   
    51   37   60 1   
    52   37   61 1   
@<TRIPOS>SUBSTRUCTURE
     1 LU1         1 TEMP              0 ****  ****    0 ROOT
