@<TRIPOS>MOLECULE
LU1
   62    66     1     0     0
SMALL
bcc


@<TRIPOS>ATOM
      1 O14         3.8180    2.5570   -0.8580 o         1 LU1     -0.441100
      2 C6          4.1440    1.3740   -0.8640 c         1 LU1      0.586700
      3 C2          4.6090    0.5850    0.2750 ca        1 LU1     -0.196600
      4 C3          4.5300   -0.8160    0.3720 ca        1 LU1      0.149100
      5 O20         3.9870   -1.5330   -0.6650 oh        1 LU1     -0.542100
      6 C9          4.9980   -1.4560    1.5450 ca        1 LU1      0.059100
      7 O21         4.8830   -2.8270    1.5420 oh        1 LU1     -0.509100
      8 C10         5.5300   -0.7190    2.6010 ca        1 LU1     -0.106000
      9 C4          5.1390    1.3190    1.3560 ca        1 LU1     -0.059000
     10 C7          5.6010    0.6820    2.5090 cp        1 LU1      0.001000
     11 C13         6.1510    1.4620    3.6140 cp        1 LU1     -0.097000
     12 C17         5.8310    1.1340    4.9390 ca        1 LU1     -0.082000
     13 C24         6.3470    1.8710    5.9970 ca        1 LU1     -0.162000
     14 C18         7.0020    2.5480    3.3600 ca        1 LU1     -0.082000
     15 C25         7.5320    3.2940    4.4050 ca        1 LU1     -0.162000
     16 C23         7.2040    2.9580    5.7340 ca        1 LU1      0.160900
     17 F26         7.7120    3.6790    6.7560 f         1 LU1     -0.118900
     18 N16         4.0930    0.7190   -2.2240 n4        1 LU1     -0.664800
     19 C27         2.6760    0.4180   -2.6240 c3        1 LU1      0.159000
     20 C19         2.6030   -0.0300   -4.0420 c2        1 LU1     -0.248200
     21 C15         2.0510    0.7070   -5.0110 c2        1 LU1     -0.096200
     22 C12         2.0210    0.3070   -6.4570 c3        1 LU1      0.152300
     23 C11         1.7910   -1.1810   -6.7130 c3        1 LU1     -0.113400
     24 C8          3.1460   -1.7490   -7.1560 c3        1 LU1      0.125100
     25 O22         2.9930   -2.2880   -8.4490 oh        1 LU1     -0.571800
     26 C1          4.1010   -0.5050   -7.2280 c3        1 LU1      0.211800
     27 O5          3.2840    0.6570   -7.0590 os        1 LU1     -0.396600
     28 N28         5.1460   -0.5030   -6.2190 na        1 LU1     -0.277000
     29 C29         5.9920   -1.5680   -5.8680 ca        1 LU1      0.422800
     30 C30         6.7390   -1.1030   -4.6940 ca        1 LU1     -0.181200
     31 N31         6.3270    0.1950   -4.3610 nc        1 LU1     -0.603100
     32 C32         5.4060    0.5210   -5.2860 cd        1 LU1      0.405700
     33 N33         6.1740   -2.7940   -6.4390 nb        1 LU1     -0.698000
     34 C36         7.1250   -3.5280   -5.8170 ca        1 LU1      0.666900
     35 N35         7.8920   -3.2000   -4.7310 nb        1 LU1     -0.700000
     36 C34         7.7190   -1.9900   -4.1650 ca        1 LU1      0.521600
     37 C37         8.5570   -1.5570   -3.0110 c3        1 LU1     -0.156400
     38 HO20        3.9840   -2.4780   -0.4280 ho        1 LU1      0.482000
     39 HO21        5.2150   -3.1670    2.3880 ho        1 LU1      0.457000
     40 H10         5.8980   -1.2310    3.5050 ha        1 LU1      0.170000
     41 H4          5.1760    2.4210    1.2870 ha        1 LU1      0.176000
     42 H17         5.1540    0.2900    5.1490 ha        1 LU1      0.139000
     43 H24         6.0930    1.6190    7.0380 ha        1 LU1      0.164500
     44 H18         7.2660    2.8090    2.3230 ha        1 LU1      0.139000
     45 H25         8.2040    4.1430    4.2090 ha        1 LU1      0.164500
     46 HN16        4.5070    1.3600   -2.9160 hn        1 LU1      0.471800
     47 H27         2.0700    1.3550   -2.4520 hx        1 LU1      0.113200
     48 H27A        2.3010   -0.3970   -1.9360 hx        1 LU1      0.113200
     49 H19         3.0230   -1.0310   -4.2450 ha        1 LU1      0.151000
     50 H15         1.6040    1.6960   -4.8040 ha        1 LU1      0.148000
     51 H12         1.2680    0.9410   -7.0090 h1        1 LU1      0.109700
     52 H11         1.0380   -1.3230   -7.5310 hc        1 LU1      0.089200
     53 H11A        1.4200   -1.7080   -5.8020 hc        1 LU1      0.089200
     54 H8          3.5120   -2.5300   -6.4400 h1        1 LU1      0.070700
     55 HO22        3.7660   -2.8420   -8.6230 ho        1 LU1      0.429000
     56 H1          4.5770   -0.4020   -8.2490 h2        1 LU1      0.130700
     57 H32         4.9110    1.4980   -5.3880 h5        1 LU1      0.085800
     58 H36         7.3180   -4.5350   -6.2490 h5        1 LU1      0.073100
     59 H37         9.3220   -0.8250   -3.3780 hc        1 LU1      0.067700
     60 H37A        7.9180   -1.0490   -2.2480 hc        1 LU1      0.067700
     61 H37B        9.0880   -2.4150   -2.5300 hc        1 LU1      0.067700
     62 H162        4.6390   -0.1530   -2.2190 hn        1 LU1      0.471800
@<TRIPOS>BOND
     1    1    2 2   
     2    2    3 1   
     3    2   18 1   
     4    3    4 ar  
     5    3    9 ar  
     6    4    5 1   
     7    4    6 ar  
     8    5   38 1   
     9    6    7 1   
    10    6    8 ar  
    11    7   39 1   
    12    8   10 ar  
    13    8   40 1   
    14    9   10 ar  
    15    9   41 1   
    16   10   11 1   
    17   11   12 ar  
    18   11   14 ar  
    19   12   13 ar  
    20   12   42 1   
    21   13   16 ar  
    22   13   43 1   
    23   14   15 ar  
    24   14   44 1   
    25   15   16 ar  
    26   15   45 1   
    27   16   17 1   
    28   18   19 1   
    29   18   46 1   
    30   18   62 1   
    31   19   20 1   
    32   19   47 1   
    33   19   48 1   
    34   20   21 2   
    35   20   49 1   
    36   21   22 1   
    37   21   50 1   
    38   22   23 1   
    39   22   27 1   
    40   22   51 1   
    41   23   24 1   
    42   23   52 1   
    43   23   53 1   
    44   24   25 1   
    45   24   26 1   
    46   24   54 1   
    47   25   55 1   
    48   26   27 1   
    49   26   28 1   
    50   26   56 1   
    51   28   29 1   
    52   28   32 1   
    53   29   30 ar  
    54   29   33 ar  
    55   30   31 1   
    56   30   36 ar  
    57   31   32 2   
    58   32   57 1   
    59   33   34 ar  
    60   34   35 ar  
    61   34   58 1   
    62   35   36 ar  
    63   36   37 1   
    64   37   59 1   
    65   37   60 1   
    66   37   61 1   
@<TRIPOS>SUBSTRUCTURE
     1 LU1         1 TEMP              0 ****  ****    0 ROOT
