@<TRIPOS>MOLECULE
LU1
   62    66     1     0     0
SMALL
bcc


@<TRIPOS>ATOM
      1 O14         2.5050   -2.1300   -0.4330 o         1 LU1     -0.438100
      2 C6          2.7930   -1.0090   -0.8360 c         1 LU1      0.581700
      3 C2          3.6460   -0.0330   -0.1500 ca        1 LU1     -0.203600
      4 C3          3.5030    1.3620   -0.2510 ca        1 LU1      0.155100
      5 O20         2.5270    1.8780   -1.0640 oh        1 LU1     -0.541100
      6 C9          4.3600    2.2000    0.5020 ca        1 LU1      0.059100
      7 O21         4.1440    3.5500    0.3370 oh        1 LU1     -0.509100
      8 C10         5.3400    1.6630    1.3320 ca        1 LU1     -0.105000
      9 C4          4.6330   -0.5640    0.7030 ca        1 LU1     -0.061000
     10 C7          5.4800    0.2680    1.4360 cp        1 LU1     -0.002000
     11 C13         6.5030   -0.3020    2.3100 cp        1 LU1     -0.094000
     12 C17         7.7830    0.2670    2.3650 ca        1 LU1     -0.084000
     13 C24         8.7630   -0.2690    3.1920 ca        1 LU1     -0.163500
     14 C18         6.2110   -1.4210    3.1040 ca        1 LU1     -0.084000
     15 C25         7.1770   -1.9680    3.9410 ca        1 LU1     -0.163500
     16 C23         8.4620   -1.3920    3.9870 ca        1 LU1      0.157900
     17 F26         9.4070   -1.9190    4.7950 f         1 LU1     -0.120900
     18 N16         2.2410   -0.6150   -2.1830 ny        1 LU1     -0.665800
     19 C27         1.3580   -1.6480   -2.8100 c3        1 LU1      0.159000
     20 C19         2.1160   -2.8000   -3.3770 c2        1 LU1     -0.207200
     21 C15         2.6240   -2.8220   -4.6130 c2        1 LU1     -0.121200
     22 C12         2.5350   -1.6890   -5.5820 c3        1 LU1      0.152300
     23 C11         3.3320   -1.9030   -6.8690 c3        1 LU1     -0.108400
     24 C8          4.1540   -0.6280   -7.0720 c3        1 LU1      0.124100
     25 O22         3.4880    0.1680   -8.0270 oh        1 LU1     -0.573800
     26 C1          4.1050    0.1000   -5.6850 c3        1 LU1      0.219800
     27 O5          3.0020   -0.4750   -4.9580 os        1 LU1     -0.472600
     28 N28         5.3180   -0.0120   -4.9230 na        1 LU1     -0.307000
     29 C29         5.8730    0.9890   -4.1010 ca        1 LU1      0.417800
     30 C30         7.1140    0.4190   -3.5710 ca        1 LU1     -0.170200
     31 N31         7.2760   -0.8900   -4.0580 nc        1 LU1     -0.513100
     32 C32         6.2150   -1.1110   -4.8410 cd        1 LU1      0.415700
     33 N33         5.4370    2.2460   -3.8060 nb        1 LU1     -0.706000
     34 C36         6.2820    2.9130   -2.9840 ca        1 LU1      0.653900
     35 N35         7.4580    2.4920   -2.4300 nb        1 LU1     -0.713000
     36 C34         7.8940    1.2470   -2.7200 ca        1 LU1      0.529600
     37 C37         9.1820    0.7320   -2.1790 c3        1 LU1     -0.162400
     38 HO20        2.5260    2.8490   -0.9860 ho        1 LU1      0.486000
     39 HO21        4.7260    4.0310    0.9460 ho        1 LU1      0.456000
     40 H10         6.0000    2.3280    1.9150 ha        1 LU1      0.170000
     41 H4          4.7310   -1.6610    0.7900 ha        1 LU1      0.171000
     42 H17         8.0240    1.1410    1.7400 ha        1 LU1      0.141000
     43 H24         9.7690    0.1740    3.2350 ha        1 LU1      0.163500
     44 H18         5.2050   -1.8680    3.0780 ha        1 LU1      0.141000
     45 H25         6.9490   -2.8420    4.5690 ha        1 LU1      0.163500
     46 HN16        3.0310   -0.4140   -2.8200 hn        1 LU1      0.480800
     47 H27         0.7830   -1.1190   -3.6280 hx        1 LU1      0.108700
     48 H27A        0.6370   -2.0130   -2.0220 hx        1 LU1      0.108700
     49 H19         2.2000   -3.6740   -2.7070 ha        1 LU1      0.169000
     50 H15         3.1190   -3.7360   -4.9890 ha        1 LU1      0.159000
     51 H12         1.4500   -1.4900   -5.8270 h1        1 LU1      0.091700
     52 H11         2.6420   -2.0620   -7.7370 hc        1 LU1      0.089200
     53 H11A        4.0120   -2.7870   -6.7930 hc        1 LU1      0.089200
     54 H8          5.2030   -0.8540   -7.3980 h1        1 LU1      0.077700
     55 HO22        4.1210    0.8200   -8.3570 ho        1 LU1      0.425000
     56 H1          3.8390    1.1940   -5.8000 h2        1 LU1      0.133700
     57 H32         6.0240   -2.0380   -5.3980 h5        1 LU1      0.078800
     58 H36         5.9800    3.9530   -2.7280 h5        1 LU1      0.064100
     59 H37         9.6200    1.4100   -1.4070 hc        1 LU1      0.074033
     60 H37A        9.0210   -0.2810   -1.7310 hc        1 LU1      0.074033
     61 H37B        9.9130    0.6310   -3.0220 hc        1 LU1      0.074033
     62 H162        1.7010    0.2560   -2.0720 hn        1 LU1      0.480800
@<TRIPOS>BOND
     1    1    2 2   
     2    2    3 1   
     3    2   18 1   
     4    3    4 ar  
     5    3    9 ar  
     6    4    5 1   
     7    4    6 ar  
     8    5   38 1   
     9    6    7 1   
    10    6    8 ar  
    11    7   39 1   
    12    8   10 ar  
    13    8   40 1   
    14    9   10 ar  
    15    9   41 1   
    16   10   11 1   
    17   11   12 ar  
    18   11   14 ar  
    19   12   13 ar  
    20   12   42 1   
    21   13   16 ar  
    22   13   43 1   
    23   14   15 ar  
    24   14   44 1   
    25   15   16 ar  
    26   15   45 1   
    27   16   17 1   
    28   18   19 1   
    29   18   46 1   
    30   18   62 1   
    31   19   20 1   
    32   19   47 1   
    33   19   48 1   
    34   20   21 2   
    35   20   49 1   
    36   21   22 1   
    37   21   50 1   
    38   22   23 1   
    39   22   27 1   
    40   22   51 1   
    41   23   24 1   
    42   23   52 1   
    43   23   53 1   
    44   24   25 1   
    45   24   26 1   
    46   24   54 1   
    47   25   55 1   
    48   26   27 1   
    49   26   28 1   
    50   26   56 1   
    51   28   29 1   
    52   28   32 1   
    53   29   30 ar  
    54   29   33 ar  
    55   30   31 1   
    56   30   36 ar  
    57   31   32 2   
    58   32   57 1   
    59   33   34 ar  
    60   34   35 ar  
    61   34   58 1   
    62   35   36 ar  
    63   36   37 1   
    64   37   59 1   
    65   37   60 1   
    66   37   61 1   
@<TRIPOS>SUBSTRUCTURE
     1 LU1         1 TEMP              0 ****  ****    0 ROOT
