@<TRIPOS>MOLECULE
LU1
   61    65     1     0     0
SMALL
bcc


@<TRIPOS>ATOM
      1 O14        -2.7480   -3.4530   -0.2070 o         1 LU1     -0.643100
      2 C6         -2.3390   -2.3350   -0.6020 c         1 LU1      0.679700
      3 C2         -3.1220   -1.0950   -0.3400 ca        1 LU1     -0.186600
      4 C3         -4.5230   -1.1430   -0.3710 ca        1 LU1      0.112100
      5 O20        -5.2750   -2.2560   -0.6530 oh        1 LU1     -0.524100
      6 C9         -5.2700    0.0370   -0.1290 ca        1 LU1      0.099100
      7 O21        -6.6430    0.0600   -0.1760 oh        1 LU1     -0.493100
      8 C10        -4.6200    1.2350    0.1680 ca        1 LU1     -0.108000
      9 C4         -2.4810    0.1120   -0.0300 ca        1 LU1     -0.102000
     10 C7         -3.2180    1.2710    0.2310 cp        1 LU1     -0.036000
     11 C13        -2.5420    2.5200    0.5780 cp        1 LU1     -0.056000
     12 C17        -3.0920    3.3740    1.5470 ca        1 LU1     -0.091000
     13 C24        -2.4640    4.5670    1.8850 ca        1 LU1     -0.167500
     14 C18        -1.3420    2.8830   -0.0490 ca        1 LU1     -0.091000
     15 C25        -0.7010    4.0730    0.2750 ca        1 LU1     -0.167500
     16 C23        -1.2620    4.9230    1.2460 ca        1 LU1      0.129900
     17 F26        -0.6440    6.0840    1.5670 f         1 LU1     -0.139900
     18 N16        -1.1780   -2.2260   -1.3340 n         1 LU1     -0.556900
     19 C27        -0.3410   -3.3610   -1.6240 c3        1 LU1      0.115200
     20 C19         1.0170   -3.2830   -0.9930 c2        1 LU1     -0.183200
     21 C15         1.3450   -3.9620    0.1070 c2        1 LU1     -0.187200
     22 C12         2.6970   -3.9490    0.7360 c3        1 LU1      0.166300
     23 C11         2.6390   -3.5920    2.2260 c3        1 LU1     -0.144400
     24 C8          3.3470   -2.2430    2.3680 c3        1 LU1      0.113100
     25 O22         4.5240   -2.3320    3.1490 oh        1 LU1     -0.582800
     26 C1          3.8370   -1.8770    0.9270 c3        1 LU1      0.249800
     27 O5          3.5910   -3.0210    0.0990 os        1 LU1     -0.406600
     28 N28         3.1940   -0.7020    0.3880 na        1 LU1     -0.281000
     29 C29         3.8340    0.3590   -0.2810 ca        1 LU1      0.439800
     30 C30         2.7530    1.1920   -0.8250 ca        1 LU1     -0.165200
     31 N31         1.5120    0.6120   -0.5070 nc        1 LU1     -0.564100
     32 C32         1.8080   -0.4950    0.1870 cd        1 LU1      0.421700
     33 N33         5.1550    0.6570   -0.4260 nb        1 LU1     -0.686000
     34 C36         5.3630    1.8000   -1.1230 ca        1 LU1      0.650900
     35 N35         4.4490    2.6530   -1.6710 nb        1 LU1     -0.716000
     36 C34         3.1360    2.3620   -1.5280 ca        1 LU1      0.513600
     37 C37         2.1040    3.2680   -2.1100 c3        1 LU1     -0.158400
     38 HO20       -4.7260   -3.0520   -0.5440 ho        1 LU1      0.468000
     39 HO21       -6.9550   -0.8440   -0.3440 ho        1 LU1      0.442000
     40 H10        -5.2190    2.1410    0.3480 ha        1 LU1      0.160000
     41 H4         -1.3810    0.1540    0.0330 ha        1 LU1      0.148000
     42 H17        -4.0290    3.0940    2.0540 ha        1 LU1      0.146000
     43 H24        -2.8950    5.2340    2.6460 ha        1 LU1      0.150000
     44 H18        -0.8950    2.2190   -0.8080 ha        1 LU1      0.146000
     45 H25         0.2420    4.3540   -0.2190 ha        1 LU1      0.150000
     46 HN16       -0.8450   -1.3270   -1.5930 hn        1 LU1      0.324500
     47 H27        -0.8730   -4.3000   -1.2900 h1        1 LU1      0.072200
     48 H27A       -0.2060   -3.4170   -2.7450 h1        1 LU1      0.072200
     49 H19         1.7490   -2.6350   -1.5050 ha        1 LU1      0.144000
     50 H15         0.6220   -4.6190    0.6200 ha        1 LU1      0.139000
     51 H12         3.1830   -4.9540    0.5740 h1        1 LU1      0.088700
     52 H11         1.5830   -3.5270    2.5850 hc        1 LU1      0.071700
     53 H11A        3.1660   -4.3720    2.8300 hc        1 LU1      0.071700
     54 H8          2.6620   -1.4640    2.7980 h1        1 LU1      0.062700
     55 HO22        4.2450   -2.5210    4.0530 ho        1 LU1      0.413000
     56 H1          4.9590   -1.7180    0.9050 h2        1 LU1      0.144700
     57 H32         1.0720   -1.2100    0.5830 h5        1 LU1      0.078800
     58 H36         6.4270    2.0830   -1.2700 h5        1 LU1      0.059100
     59 H37         2.2500    4.3150   -1.7400 hc        1 LU1      0.065033
     60 H37A        2.1900    3.2760   -3.2260 hc        1 LU1      0.065033
     61 H37B        1.0770    2.9290   -1.8300 hc        1 LU1      0.065033
@<TRIPOS>BOND
     1    1    2 2   
     2    2    3 1   
     3    2   18 1   
     4    3    4 ar  
     5    3    9 ar  
     6    4    5 1   
     7    4    6 ar  
     8    5   38 1   
     9    6    7 1   
    10    6    8 ar  
    11    7   39 1   
    12    8   10 ar  
    13    8   40 1   
    14    9   10 ar  
    15    9   41 1   
    16   10   11 1   
    17   11   12 ar  
    18   11   14 ar  
    19   12   13 ar  
    20   12   42 1   
    21   13   16 ar  
    22   13   43 1   
    23   14   15 ar  
    24   14   44 1   
    25   15   16 ar  
    26   15   45 1   
    27   16   17 1   
    28   18   19 1   
    29   18   46 1   
    30   19   20 1   
    31   19   47 1   
    32   19   48 1   
    33   20   21 2   
    34   20   49 1   
    35   21   22 1   
    36   21   50 1   
    37   22   23 1   
    38   22   27 1   
    39   22   51 1   
    40   23   24 1   
    41   23   52 1   
    42   23   53 1   
    43   24   25 1   
    44   24   26 1   
    45   24   54 1   
    46   25   55 1   
    47   26   27 1   
    48   26   28 1   
    49   26   56 1   
    50   28   29 1   
    51   28   32 1   
    52   29   30 ar  
    53   29   33 ar  
    54   30   31 1   
    55   30   36 ar  
    56   31   32 2   
    57   32   57 1   
    58   33   34 ar  
    59   34   35 ar  
    60   34   58 1   
    61   35   36 ar  
    62   36   37 1   
    63   37   59 1   
    64   37   60 1   
    65   37   61 1   
@<TRIPOS>SUBSTRUCTURE
     1 LU1         1 TEMP              0 ****  ****    0 ROOT
