@<TRIPOS>MOLECULE
LU1
   62    66     1     0     0
SMALL
bcc


@<TRIPOS>ATOM
      1 O14         2.6190   -2.2410   -0.3690 o         1 LU1     -0.438100
      2 C6          2.8480   -1.1150   -0.7960 c         1 LU1      0.581700
      3 C2          3.6560   -0.0850   -0.1380 ca        1 LU1     -0.203600
      4 C3          3.4380    1.2980   -0.2580 ca        1 LU1      0.155100
      5 O20         2.4260    1.7480   -1.0660 oh        1 LU1     -0.541100
      6 C9          4.2590    2.1930    0.4700 ca        1 LU1      0.059100
      7 O21         3.9690    3.5260    0.2860 oh        1 LU1     -0.509100
      8 C10         5.2770    1.7220    1.2950 ca        1 LU1     -0.105000
      9 C4          4.6810   -0.5500    0.7110 ca        1 LU1     -0.061000
     10 C7          5.4920    0.3380    1.4190 cp        1 LU1     -0.002000
     11 C13         6.5540   -0.1630    2.2880 cp        1 LU1     -0.094000
     12 C17         7.8030    0.4750    2.3170 ca        1 LU1     -0.084000
     13 C24         8.8200    0.0050    3.1390 ca        1 LU1     -0.163500
     14 C18         6.3330   -1.2830    3.1030 ca        1 LU1     -0.084000
     15 C25         7.3370   -1.7640    3.9350 ca        1 LU1     -0.163500
     16 C23         8.5900   -1.1200    3.9550 ca        1 LU1      0.157900
     17 F26         9.5720   -1.5820    4.7590 f         1 LU1     -0.120900
     18 N16         2.2660   -0.7760   -2.1460 n4        1 LU1     -0.665800
     19 C27         1.4250   -1.8610   -2.7420 c3        1 LU1      0.159000
     20 C19         2.2280   -2.9900   -3.2910 c2        1 LU1     -0.207200
     21 C15         2.7250   -3.0170   -4.5310 c2        1 LU1     -0.121200
     22 C12         2.5770   -1.9120   -5.5240 c3        1 LU1      0.152300
     23 C11         3.3720   -2.1180   -6.8140 c3        1 LU1     -0.108400
     24 C8          4.1330   -0.8110   -7.0510 c3        1 LU1      0.124100
     25 O22         3.4230   -0.0670   -8.0170 oh        1 LU1     -0.573800
     26 C1          4.0620   -0.0560   -5.6810 c3        1 LU1      0.218800
     27 O5          2.9920   -0.6640   -4.9310 os        1 LU1     -0.472600
     28 N28         5.2850   -0.0950   -4.9270 na        1 LU1     -0.307000
     29 C29         5.7970    0.9460   -4.1280 ca        1 LU1      0.417800
     30 C30         7.0680    0.4460   -3.5990 ca        1 LU1     -0.170200
     31 N31         7.2890   -0.8620   -4.0630 nc        1 LU1     -0.513100
     32 C32         6.2340   -1.1490   -4.8330 cd        1 LU1      0.415700
     33 N33         5.3030    2.1860   -3.8520 nb        1 LU1     -0.706000
     34 C36         6.1220    2.9080   -3.0490 ca        1 LU1      0.653900
     35 N35         7.3210    2.5540   -2.4990 nb        1 LU1     -0.713000
     36 C34         7.8140    1.3260   -2.7690 ca        1 LU1      0.529600
     37 C37         9.1290    0.8820   -2.2300 c3        1 LU1     -0.162400
     38 HO20        2.3730    2.7190   -1.0010 ho        1 LU1      0.486000
     39 HO21        4.5300    4.0470    0.8820 ho        1 LU1      0.456000
     40 H10         5.9070    2.4300    1.8580 ha        1 LU1      0.170000
     41 H4          4.8390   -1.6380    0.8130 ha        1 LU1      0.171000
     42 H17         7.9890    1.3510    1.6760 ha        1 LU1      0.141000
     43 H24         9.8020    0.5020    3.1610 ha        1 LU1      0.163500
     44 H18         5.3520   -1.7830    3.0960 ha        1 LU1      0.141000
     45 H25         7.1640   -2.6390    4.5790 ha        1 LU1      0.163500
     46 HN16        3.0400   -0.5550   -2.7950 hn        1 LU1      0.480300
     47 H27         0.7280   -2.2410   -1.9390 hx        1 LU1      0.108700
     48 H27A        0.8190   -1.3770   -3.5650 hx        1 LU1      0.108700
     49 H19         2.3580   -3.8450   -2.6030 ha        1 LU1      0.169000
     50 H15         3.2570   -3.9160   -4.8920 ha        1 LU1      0.159000
     51 H12         1.4810   -1.7680   -5.7630 h1        1 LU1      0.091700
     52 H11         4.0930   -2.9680   -6.7240 hc        1 LU1      0.089200
     53 H11A        2.6830   -2.3270   -7.6720 hc        1 LU1      0.089200
     54 H8          5.1890   -0.9950   -7.3830 h1        1 LU1      0.076700
     55 HO22        4.0220    0.6050   -8.3670 ho        1 LU1      0.425000
     56 H1          3.7450    1.0230   -5.8170 h2        1 LU1      0.133700
     57 H32         6.0830   -2.0950   -5.3710 h5        1 LU1      0.078800
     58 H36         5.7720    3.9360   -2.8100 h5        1 LU1      0.064100
     59 H37         9.8580    0.8040   -3.0770 hc        1 LU1      0.074033
     60 H37A        9.5380    1.5940   -1.4720 hc        1 LU1      0.074033
     61 H37B        9.0210   -0.1290   -1.7640 hc        1 LU1      0.074033
     62 H162        1.6890    0.0720   -2.0490 hn        1 LU1      0.480300
@<TRIPOS>BOND
     1    1    2 2   
     2    2    3 1   
     3    2   18 1   
     4    3    4 ar  
     5    3    9 ar  
     6    4    5 1   
     7    4    6 ar  
     8    5   38 1   
     9    6    7 1   
    10    6    8 ar  
    11    7   39 1   
    12    8   10 ar  
    13    8   40 1   
    14    9   10 ar  
    15    9   41 1   
    16   10   11 1   
    17   11   12 ar  
    18   11   14 ar  
    19   12   13 ar  
    20   12   42 1   
    21   13   16 ar  
    22   13   43 1   
    23   14   15 ar  
    24   14   44 1   
    25   15   16 ar  
    26   15   45 1   
    27   16   17 1   
    28   18   19 1   
    29   18   46 1   
    30   18   62 1   
    31   19   20 1   
    32   19   47 1   
    33   19   48 1   
    34   20   21 2   
    35   20   49 1   
    36   21   22 1   
    37   21   50 1   
    38   22   23 1   
    39   22   27 1   
    40   22   51 1   
    41   23   24 1   
    42   23   52 1   
    43   23   53 1   
    44   24   25 1   
    45   24   26 1   
    46   24   54 1   
    47   25   55 1   
    48   26   27 1   
    49   26   28 1   
    50   26   56 1   
    51   28   29 1   
    52   28   32 1   
    53   29   30 ar  
    54   29   33 ar  
    55   30   31 1   
    56   30   36 ar  
    57   31   32 2   
    58   32   57 1   
    59   33   34 ar  
    60   34   35 ar  
    61   34   58 1   
    62   35   36 ar  
    63   36   37 1   
    64   37   59 1   
    65   37   60 1   
    66   37   61 1   
@<TRIPOS>SUBSTRUCTURE
     1 LU1         1 TEMP              0 ****  ****    0 ROOT
