@<TRIPOS>MOLECULE
LU2
   31    31     1     0     0
SMALL
bcc


@<TRIPOS>ATOM
      1 C1          2.4750    0.0220   -2.0850 c1        1 LU2     -0.231000
      2 O1          4.5530    0.0730   -3.3370 oh        1 LU2     -0.239000
      3 C2          3.8680    0.1060   -2.1090 c2        1 LU2      0.171000
      4 O2          4.6310    0.3210    1.5170 oh        1 LU2     -0.202000
      5 C3          4.5880    0.1920   -0.9060 c2        1 LU2     -0.349000
      6 O3          2.3940    0.3570    2.6850 o         1 LU2     -0.286000
      7 C4          3.9120    0.1950    0.3150 c2        1 LU2      0.202000
      8 O4          0.3090   -0.1300   -0.8360 os        1 LU2     -0.134000
      9 C5          2.5170    0.1110    0.3410 c2        1 LU2     -0.257000
     10 O5         -4.6990   -2.4160    0.4860 oh        1 LU2     -0.269000
     11 C6          1.7960    0.0250   -0.8630 c1        1 LU2      0.165000
     12 O6         -6.0960   -0.0020    0.3470 oh        1 LU2     -0.242000
     13 C7          1.7820    0.1660    1.6540 c2        1 LU2      0.319000
     14 C8          0.3380    0.1100    1.6700 c2        1 LU2     -0.293000
     15 C9         -0.4050    0.0030    0.4010 c2        1 LU2      0.135000
     16 C10        -1.9180    0.0020    0.4060 c2        1 LU2     -0.067000
     17 C11        -2.6100   -1.1980    0.4370 c2        1 LU2     -0.139000
     18 C12        -3.9960   -1.2000    0.4150 c2        1 LU2     -0.011000
     19 C13        -4.6890   -0.0010    0.3620 c2        1 LU2      0.090000
     20 C14        -3.9970    1.2000    0.3300 c1        1 LU2     -0.144000
     21 C15        -2.6110    1.2010    0.3530 c1        1 LU2     -0.082000
     22 H1          1.9750   -0.0230   -2.9210 ha        1 LU2      0.174000
     23 HO1         4.8180    0.8940   -3.5500 ho        1 LU2      0.226000
     24 HO2         5.5000    0.2180    1.3560 ho        1 LU2      0.220000
     25 H3          5.5630    0.2500   -0.9230 ha        1 LU2      0.143000
     26 HO5        -4.7220   -2.7930   -0.3180 ho        1 LU2      0.232000
     27 HO6        -6.4020    0.0710    1.1790 ho        1 LU2      0.241000
     28 H8         -0.1450    0.2010    2.5130 ha        1 LU2      0.166000
     29 H11        -2.1210   -2.0430    0.4580 ha        1 LU2      0.146000
     30 H14        -4.4850    2.0440    0.2930 ha        1 LU2      0.160000
     31 H15        -2.1240    2.0460    0.3310 ha        1 LU2      0.154000
@<TRIPOS>BOND
     1    1    3 1   
     2    1   22 1   
     3    2    3 1   
     4    2   23 1   
     5    3    5 1   
     6    4    7 1   
     7    4   24 1   
     8    5    7 1   
     9    5   25 1   
    10    6   13 1   
    11    7    9 1   
    12    8   11 1   
    13    8   15 1   
    14    9   11 1   
    15    9   13 1   
    16   10   18 1   
    17   10   26 1   
    18   12   19 1   
    19   12   27 1   
    20   13   14 1   
    21   14   15 1   
    22   14   28 1   
    23   15   16 1   
    24   16   17 1   
    25   16   21 1   
    26   17   18 1   
    27   17   29 1   
    28   18   19 1   
    29   19   20 1   
    30   20   30 1   
    31   21   31 1   
@<TRIPOS>SUBSTRUCTURE
     1 LU2         1 TEMP              0 ****  ****    0 ROOT
