@<TRIPOS>MOLECULE
LU2
   31    33     1     0     0
SMALL
bcc


@<TRIPOS>ATOM
      1 C1         -0.1040    0.1780    0.0400 ca        1 LU2     -0.231000
      2 O1          1.8450    0.2770   -1.2750 oh        1 LU2     -0.485100
      3 C2          1.2940    0.1590   -0.0240 ca        1 LU2      0.216100
      4 O2          2.1650   -0.2200    3.5310 oh        1 LU2     -0.448100
      5 C3          2.0820    0.0270    1.1290 ca        1 LU2     -0.349000
      6 O3         -0.0730   -0.3080    4.8680 o         1 LU2     -0.525100
      7 C4          1.4510   -0.0880    2.3740 ca        1 LU2      0.247100
      8 O4         -2.0860    0.0880    1.2760 os        1 LU2     -0.222200
      9 C5          0.0410   -0.0750    2.4900 ca        1 LU2     -0.277600
     10 O5         -6.6680   -0.8740   -0.2420 oh        1 LU2     -0.490100
     11 C6         -0.7030    0.0590    1.3020 ca        1 LU2      0.210100
     12 O6         -8.3360    0.0420    1.7680 oh        1 LU2     -0.512100
     13 C7         -0.6490   -0.1950    3.7780 c         1 LU2      0.597900
     14 C8         -2.1120   -0.1720    3.6740 cc        1 LU2     -0.309200
     15 C9         -2.7500   -0.0320    2.4920 cd        1 LU2      0.187900
     16 C10        -4.2020    0.0040    2.3090 ca        1 LU2     -0.071800
     17 C11        -4.7710   -0.4430    1.1090 ca        1 LU2     -0.093000
     18 C12        -6.1610   -0.4210    0.9520 ca        1 LU2      0.105100
     19 C13        -6.9780    0.0550    2.0020 ca        1 LU2      0.061100
     20 C14        -6.4030    0.5060    3.1930 ca        1 LU2     -0.177000
     21 C15        -5.0190    0.4820    3.3430 ca        1 LU2     -0.098000
     22 H1         -0.7120    0.2820   -0.8680 ha        1 LU2      0.175000
     23 HO1         2.8100    0.2510   -1.1850 ho        1 LU2      0.427000
     24 HO2         3.1090   -0.2150    3.3080 ho        1 LU2      0.421000
     25 H3          3.1780    0.0150    1.0580 ha        1 LU2      0.143000
     26 HO5        -7.6340   -0.7990   -0.2050 ho        1 LU2      0.439000
     27 HO6        -8.7780    0.3890    2.5570 ho        1 LU2      0.433000
     28 H8         -2.6710   -0.2830    4.6140 ha        1 LU2      0.168000
     29 H11        -4.1380   -0.8090    0.2860 ha        1 LU2      0.170000
     30 H14        -7.0420    0.8800    4.0060 ha        1 LU2      0.142000
     31 H15        -4.5690    0.8460    4.2790 ha        1 LU2      0.147000
@<TRIPOS>BOND
     1    1    3 ar  
     2    1   11 ar  
     3    1   22 1   
     4    2    3 1   
     5    2   23 1   
     6    3    5 ar  
     7    4    7 1   
     8    4   24 1   
     9    5    7 ar  
    10    5   25 1   
    11    6   13 2   
    12    7    9 ar  
    13    8   11 1   
    14    8   15 1   
    15    9   11 ar  
    16    9   13 1   
    17   10   18 1   
    18   10   26 1   
    19   12   19 1   
    20   12   27 1   
    21   13   14 1   
    22   14   15 2   
    23   14   28 1   
    24   15   16 1   
    25   16   17 ar  
    26   16   21 ar  
    27   17   18 ar  
    28   17   29 1   
    29   18   19 ar  
    30   19   20 ar  
    31   20   21 ar  
    32   20   30 1   
    33   21   31 1   
@<TRIPOS>SUBSTRUCTURE
     1 LU2         1 TEMP              0 ****  ****    0 ROOT
