@<TRIPOS>MOLECULE
LU2
   31    33     1     0     0
SMALL
bcc


@<TRIPOS>ATOM
      1 C1         -2.2670   -1.8130   -0.2280 ca        1 LU2     -0.233000
      2 O1         -4.2520   -3.0740   -0.3440 oh        1 LU2     -0.485100
      3 C2         -3.6680   -1.8480   -0.1550 ca        1 LU2      0.215100
      4 O2         -4.5800    1.5890    0.5200 oh        1 LU2     -0.497100
      5 C3         -4.4210   -0.6950    0.0970 ca        1 LU2     -0.298000
      6 O3         -2.1520    2.9560    0.6270 o         1 LU2     -0.590100
      7 C4         -3.7580    0.5290    0.2820 ca        1 LU2      0.267100
      8 O4         -0.2560   -0.6340   -0.1300 os        1 LU2     -0.220200
      9 C5         -2.3460    0.6140    0.2170 ca        1 LU2     -0.334600
     10 O5          4.3190   -2.3400    0.4890 oh        1 LU2     -0.489100
     11 C6         -1.6370   -0.5790   -0.0390 ca        1 LU2      0.212100
     12 O6          6.0020   -0.2990   -0.3250 oh        1 LU2     -0.511100
     13 C7         -1.6050    1.8600    0.4030 c         1 LU2      0.607900
     14 C8         -0.1530    1.7320    0.3080 cc        1 LU2     -0.317200
     15 C9          0.4470    0.5480    0.0510 cd        1 LU2      0.205900
     16 C10         1.8910    0.3350   -0.0630 ca        1 LU2     -0.077800
     17 C11         2.4440   -0.9130    0.2550 ca        1 LU2     -0.091000
     18 C12         3.8270   -1.1000    0.1600 ca        1 LU2      0.105100
     19 C13         4.6520   -0.0330   -0.2590 ca        1 LU2      0.064100
     20 C14         4.0920    1.2070   -0.5830 ca        1 LU2     -0.178000
     21 C15         2.7150    1.3870   -0.4850 ca        1 LU2     -0.095000
     22 H1         -1.6880   -2.7240   -0.4270 ha        1 LU2      0.175000
     23 HO1        -5.2130   -2.9670   -0.2700 ho        1 LU2      0.430000
     24 HO2        -4.0600    2.4040    0.6400 ho        1 LU2      0.469000
     25 H3         -5.5170   -0.7280    0.1530 ha        1 LU2      0.160000
     26 HO5         5.2820   -2.3210    0.3730 ho        1 LU2      0.439000
     27 HO6         6.4520    0.5050   -0.6250 ho        1 LU2      0.434000
     28 H8          0.4330    2.6490    0.4660 ha        1 LU2      0.171000
     29 H11         1.8040   -1.7490    0.5770 ha        1 LU2      0.171000
     30 H14         4.7370    2.0340   -0.9130 ha        1 LU2      0.143000
     31 H15         2.2760    2.3620   -0.7490 ha        1 LU2      0.147000
@<TRIPOS>BOND
     1    1    3 ar  
     2    1   11 ar  
     3    1   22 1   
     4    2    3 1   
     5    2   23 1   
     6    3    5 ar  
     7    4    7 1   
     8    4   24 1   
     9    5    7 ar  
    10    5   25 1   
    11    6   13 2   
    12    7    9 ar  
    13    8   11 1   
    14    8   15 1   
    15    9   11 ar  
    16    9   13 1   
    17   10   18 1   
    18   10   26 1   
    19   12   19 1   
    20   12   27 1   
    21   13   14 1   
    22   14   15 2   
    23   14   28 1   
    24   15   16 1   
    25   16   17 ar  
    26   16   21 ar  
    27   17   18 ar  
    28   17   29 1   
    29   18   19 ar  
    30   19   20 ar  
    31   20   21 ar  
    32   20   30 1   
    33   21   31 1   
@<TRIPOS>SUBSTRUCTURE
     1 LU2         1 TEMP              0 ****  ****    0 ROOT
