@<TRIPOS>MOLECULE
LU2
   31    33     1     0     0
SMALL
bcc


@<TRIPOS>ATOM
      1 C1         -0.1030    0.1780    0.0410 ca        1 LU2     -0.231000
      2 O1          1.8460    0.2770   -1.2730 oh        1 LU2     -0.485100
      3 C2          1.2950    0.1560   -0.0230 ca        1 LU2      0.216100
      4 O2          2.1640   -0.2360    3.5310 oh        1 LU2     -0.448100
      5 C3          2.0830    0.0190    1.1300 ca        1 LU2     -0.349000
      6 O3         -0.0750   -0.3230    4.8670 o         1 LU2     -0.525100
      7 C4          1.4500   -0.1000    2.3740 ca        1 LU2      0.247100
      8 O4         -2.0860    0.0900    1.2770 os        1 LU2     -0.222200
      9 C5          0.0400   -0.0830    2.4900 ca        1 LU2     -0.277600
     10 O5         -6.6690   -0.8570   -0.2450 oh        1 LU2     -0.490100
     11 C6         -0.7020    0.0570    1.3020 ca        1 LU2      0.210100
     12 O6         -8.3360    0.0570    1.7680 oh        1 LU2     -0.512100
     13 C7         -0.6500   -0.2060    3.7780 c         1 LU2      0.597900
     14 C8         -2.1120   -0.1780    3.6730 cc        1 LU2     -0.309200
     15 C9         -2.7510   -0.0330    2.4920 cd        1 LU2      0.187900
     16 C10        -4.2030    0.0070    2.3090 ca        1 LU2     -0.071800
     17 C11        -4.7720   -0.4340    1.1070 ca        1 LU2     -0.093000
     18 C12        -6.1620   -0.4080    0.9510 ca        1 LU2      0.105100
     19 C13        -6.9780    0.0660    2.0020 ca        1 LU2      0.061100
     20 C14        -6.4020    0.5120    3.1940 ca        1 LU2     -0.177000
     21 C15        -5.0180    0.4830    3.3450 ca        1 LU2     -0.098000
     22 H1         -0.7110    0.2870   -0.8670 ha        1 LU2      0.175000
     23 HO1         2.8110    0.2480   -1.1840 ho        1 LU2      0.427000
     24 HO2         3.1090   -0.2330    3.3080 ho        1 LU2      0.421000
     25 H3          3.1780    0.0040    1.0580 ha        1 LU2      0.143000
     26 HO5        -7.6360   -0.7790   -0.2080 ho        1 LU2      0.439000
     27 HO6        -8.7770    0.4030    2.5570 ho        1 LU2      0.433000
     28 H8         -2.6720   -0.2910    4.6130 ha        1 LU2      0.168000
     29 H11        -4.1390   -0.7990    0.2830 ha        1 LU2      0.170000
     30 H14        -7.0400    0.8840    4.0090 ha        1 LU2      0.142000
     31 H15        -4.5670    0.8430    4.2820 ha        1 LU2      0.147000
@<TRIPOS>BOND
     1    1    3 ar  
     2    1   11 ar  
     3    1   22 1   
     4    2    3 1   
     5    2   23 1   
     6    3    5 ar  
     7    4    7 1   
     8    4   24 1   
     9    5    7 ar  
    10    5   25 1   
    11    6   13 2   
    12    7    9 ar  
    13    8   11 1   
    14    8   15 1   
    15    9   11 ar  
    16    9   13 1   
    17   10   18 1   
    18   10   26 1   
    19   12   19 1   
    20   12   27 1   
    21   13   14 1   
    22   14   15 2   
    23   14   28 1   
    24   15   16 1   
    25   16   17 ar  
    26   16   21 ar  
    27   17   18 ar  
    28   17   29 1   
    29   18   19 ar  
    30   19   20 ar  
    31   20   21 ar  
    32   20   30 1   
    33   21   31 1   
@<TRIPOS>SUBSTRUCTURE
     1 LU2         1 TEMP              0 ****  ****    0 ROOT
