@<TRIPOS>MOLECULE
LUF
   66    60     1     0     0
SMALL
bcc


@<TRIPOS>ATOM
      1 C4          3.1750   -2.5900    0.4740 c1        1 LUF     -0.204750
      2 C5          2.5190   -2.1590   -0.4280 c1        1 LUF     -0.204750
      3 C6          2.7490   -0.6140    3.4850 c2        1 LUF     -0.248000
      4 C10         2.6610    1.3980    5.8900 c3        1 LUF     -0.130000
      5 C13         2.8040    1.2920    8.3580 c2        1 LUF     -0.221000
      6 C15         1.3230    4.1390    9.0950 c1        1 LUF     -0.204750
      7 C17         6.0120   -0.7200    6.3730 c2        1 LUF     -0.165000
      8 C20         5.9330   -0.5500   10.1270 c3        1 LUF     -0.155000
      9 C21         7.2170   -0.0780    5.8160 c3        1 LUF     -0.189000
     10 C22         6.8090   -0.0940   11.2300 c2        1 LUF     -0.038000
     11 C24         6.3540    0.5840   12.2930 c2        1 LUF     -0.231000
     12 C25         7.2060    1.0180   13.3960 c2        1 LUF      0.349000
     13 O1          8.5430    0.6780   13.2740 os        1 LUF     -0.296000
     14 C23         9.5700    0.9110   14.0890 c1        1 LUF      0.214000
     15 O2          9.4370    1.5480   15.2150 oh        1 LUF     -0.273000
     16 C18         6.6200   -0.4180    8.7800 c3        1 LUF     -0.126000
     17 C19         5.7440   -0.8740    7.6730 c2        1 LUF     -0.195000
     18 C16         0.4640    3.3240    9.3260 c1        1 LUF     -0.204750
     19 C12         2.1890    1.7720    7.2640 c2        1 LUF     -0.161000
     20 C14         1.0060    2.5740    7.2830 c1        1 LUF     -0.074000
     21 C3          1.9850    0.4940    3.6630 c2        1 LUF     -0.058000
     22 C1          1.6140    1.4280    2.5440 c3        1 LUF     -0.023000
     23 C9          0.1060    1.3480    2.3140 c3        1 LUF     -0.206000
     24 C11         3.2710   -1.4030    4.5270 c1        1 LUF     -0.070000
     25 C2          2.3160    1.0710    1.2370 c3        1 LUF     -0.206000
     26 H1          3.7570   -2.9750    1.2750 ha        1 LUF      0.226500
     27 H2          2.0360    1.8080    0.4470 hc        1 LUF      0.078333
     28 H3          3.1170   -0.8980    2.4780 ha        1 LUF      0.166000
     29 H4          1.9370   -1.7780   -1.2290 ha        1 LUF      0.226500
     30 H11         3.0950    2.3100    5.3960 hc        1 LUF      0.098000
     31 H12         3.4800    0.6280    5.9570 hc        1 LUF      0.098000
     32 H13         3.6800    0.6320    8.2960 ha        1 LUF      0.118500
     33 H14         2.4800    1.5660    9.3700 ha        1 LUF      0.118500
     34 H15         2.0720    4.8750    8.9370 ha        1 LUF      0.226500
     35 H16         5.6710   -1.6300   10.3100 hc        1 LUF      0.103500
     36 H17         4.9680    0.0250   10.1150 hc        1 LUF      0.103500
     37 H18         7.7430   -0.7890    5.1290 hc        1 LUF      0.080000
     38 H19         7.9370    0.2380    6.6090 hc        1 LUF      0.080000
     39 H20         6.9280    0.8250    5.2210 hc        1 LUF      0.080000
     40 H22         5.2950    0.8670   12.4140 ha        1 LUF      0.159000
     41 H24         7.8800   -0.3560   11.1410 ha        1 LUF      0.153000
     42 H25         8.5650    1.8760   15.4970 ho        1 LUF      0.252000
     43 H26         6.9150    0.6540    8.6190 hc        1 LUF      0.091500
     44 H27         7.5680   -1.0230    8.7810 hc        1 LUF      0.091500
     45 H28         4.8150   -1.3830    7.9820 ha        1 LUF      0.119000
     46 H29         5.2920   -1.0950    5.6150 ha        1 LUF      0.161000
     47 H30        -0.3040    2.6190    9.5460 ha        1 LUF      0.226500
     48 H31        -1.9620    1.2720   10.3290 ha        1 LUF      0.006000
     49 H32         1.0010    3.5000    6.6930 ha        1 LUF      0.069000
     50 H33        -1.9750    1.0440    9.6910 ha        1 LUF      0.006000
     51 H35        -0.1800    2.0150    1.4660 hc        1 LUF      0.078333
     52 H36        -0.1910    0.3020    2.0630 hc        1 LUF      0.078333
     53 H37        -0.4530    1.6710    3.2230 hc        1 LUF      0.078333
     54 H38         3.6890   -3.4160    3.6280 ha        1 LUF      0.006000
     55 H39         2.6040   -1.7960    5.3060 ha        1 LUF      0.068000
     56 H40         3.0290   -3.4280    3.4590 ha        1 LUF      0.006000
     57 H41         2.0160    0.0520    0.8870 hc        1 LUF      0.078333
     58 H42         3.4240    1.0970    1.3690 hc        1 LUF      0.078333
     59 C7          1.5260    0.8520    5.0370 c3        1 LUF     -0.147000
     60 C8          1.9960    2.8620    2.8990 c3        1 LUF     -0.206000
     61 O3          6.8760    1.6440   14.4080 o         1 LUF     -0.371000
     62 H6          0.6920    1.6040    4.9950 hc        1 LUF      0.100500
     63 H7          1.1100   -0.0690    5.5340 hc        1 LUF      0.100500
     64 H8          1.4520    3.2080    3.8110 hc        1 LUF      0.078333
     65 H9          3.0940    2.9340    3.0880 hc        1 LUF      0.078333
     66 H10         1.7330    3.5440    2.0540 hc        1 LUF      0.078333
@<TRIPOS>BOND
     1    1    2 1   
     2    1   26 1   
     3    2   29 1   
     4    3   21 1   
     5    3   24 1   
     6    3   28 1   
     7    4   19 1   
     8    4   30 1   
     9    4   31 1   
    10    4   59 1   
    11    5   19 1   
    12    5   32 1   
    13    5   33 1   
    14    6   18 1   
    15    6   34 1   
    16    7    9 1   
    17    7   17 1   
    18    7   46 1   
    19    8   10 1   
    20    8   16 1   
    21    8   35 1   
    22    8   36 1   
    23    9   37 1   
    24    9   38 1   
    25    9   39 1   
    26   10   11 1   
    27   10   41 1   
    28   11   12 1   
    29   11   40 1   
    30   12   13 1   
    31   12   61 1   
    32   13   14 1   
    33   14   15 1   
    34   15   42 1   
    35   16   17 1   
    36   16   43 1   
    37   16   44 1   
    38   17   45 1   
    39   18   47 1   
    40   19   20 1   
    41   20   49 1   
    42   21   22 1   
    43   21   59 1   
    44   22   23 1   
    45   22   25 1   
    46   22   60 1   
    47   23   51 1   
    48   23   52 1   
    49   23   53 1   
    50   24   55 1   
    51   25   27 1   
    52   25   57 1   
    53   25   58 1   
    54   48   50 1   
    55   54   56 1   
    56   59   62 1   
    57   59   63 1   
    58   60   64 1   
    59   60   65 1   
    60   60   66 1   
@<TRIPOS>SUBSTRUCTURE
     1 LUF         1 TEMP              0 ****  ****    0 ROOT
