@<TRIPOS>MOLECULE
LUF
   66    67     1     0     0
SMALL
bcc


@<TRIPOS>ATOM
      1 C4          8.6650    0.3540   -1.0640 c3        1 LUF     -0.075400
      2 C5          7.7020   -0.5810   -1.7600 c3        1 LUF     -0.038200
      3 C6          6.2800   -0.3360   -1.3900 c2        1 LUF     -0.114400
      4 C10         3.8380   -0.5260    0.8000 c3        1 LUF     -0.040200
      5 C13         1.4110   -0.9470    0.5810 c2        1 LUF     -0.178200
      6 C15        -0.0180   -0.7130    0.8920 c3        1 LUF     -0.042200
      7 C17        -2.3700   -1.3120    0.3370 c2        1 LUF     -0.111400
      8 C20        -5.3030    0.3590   -1.3080 c3        1 LUF     -0.035200
      9 C21        -2.8690   -1.9870    1.5590 c3        1 LUF     -0.062900
     10 C22        -6.7450    0.5010   -1.0610 c2        1 LUF     -0.067400
     11 C24        -7.4680    1.6120   -0.7960 ce        1 LUF     -0.230200
     12 C25        -8.8950    1.2280   -0.6450 c         1 LUF      0.715800
     13 O1         -9.0160   -0.1500   -0.8600 os        1 LUF     -0.463900
     14 C23        -7.7020   -0.6940   -1.1190 c3        1 LUF      0.352100
     15 O2         -7.4650   -1.5850   -0.0650 oh        1 LUF     -0.598800
     16 C18        -4.5990   -0.3250   -0.1470 c3        1 LUF     -0.044200
     17 C19        -3.1670   -0.5610   -0.4410 c2        1 LUF     -0.184200
     18 C16        -0.9340   -1.5270   -0.0030 c3        1 LUF     -0.041200
     19 C12         2.4130   -0.2400    1.1300 c2        1 LUF     -0.120400
     20 C14         2.1650    0.8530    2.1010 c3        1 LUF     -0.059900
     21 C3          5.9040    0.3760   -0.3070 c2        1 LUF     -0.109400
     22 C1          6.8990    1.0440    0.6080 c3        1 LUF     -0.007800
     23 C9          6.9040    2.5460    0.3280 c3        1 LUF     -0.084100
     24 C11         5.2990   -0.9430   -2.3270 c3        1 LUF     -0.059900
     25 C2          8.3120    0.4850    0.3980 c3        1 LUF     -0.070400
     26 H1          9.7100   -0.0380   -1.1670 hc        1 LUF      0.041200
     27 H2          8.6370    1.3620   -1.5550 hc        1 LUF      0.041200
     28 H3          7.8220   -0.4770   -2.8720 hc        1 LUF      0.046700
     29 H4          7.9540   -1.6460   -1.4980 hc        1 LUF      0.046700
     30 H11         3.9220   -1.4860    0.2250 hc        1 LUF      0.049200
     31 H12         4.4120   -0.6650    1.7560 hc        1 LUF      0.049200
     32 H13         1.6250   -1.7530   -0.1390 ha        1 LUF      0.122000
     33 H14        -0.2130   -0.9770    1.9690 hc        1 LUF      0.050200
     34 H15        -0.2570    0.3800    0.7790 hc        1 LUF      0.050200
     35 H16        -5.1510   -0.2460   -2.2440 hc        1 LUF      0.060700
     36 H17        -4.8440    1.3700   -1.4820 hc        1 LUF      0.060700
     37 H18        -2.0290   -2.3960    2.1710 hc        1 LUF      0.044700
     38 H19        -3.4550   -1.2740    2.1920 hc        1 LUF      0.044700
     39 H20        -3.5460   -2.8330    1.2780 hc        1 LUF      0.044700
     40 H22        -7.1400    2.6460   -0.6950 ha        1 LUF      0.182000
     41 H24        -7.7250   -1.2100   -2.1140 h2        1 LUF      0.086700
     42 H25        -8.3020   -2.0330    0.1290 ho        1 LUF      0.438000
     43 H26        -4.6920    0.3130    0.7750 hc        1 LUF      0.065200
     44 H27        -5.1150   -1.2990    0.0810 hc        1 LUF      0.065200
     45 H28        -2.7690   -0.0770   -1.3470 ha        1 LUF      0.121000
     46 H29        -0.7420   -1.2520   -1.0740 hc        1 LUF      0.046700
     47 H30        -0.6920   -2.6190    0.1080 hc        1 LUF      0.046700
     48 H31         1.4740    0.5090    2.9100 hc        1 LUF      0.041700
     49 H32         3.1170    1.2020    2.5720 hc        1 LUF      0.041700
     50 H33         1.6860    1.7240    1.5860 hc        1 LUF      0.041700
     51 H35         7.6630    3.0510    0.9740 hc        1 LUF      0.035200
     52 H36         7.1540    2.7440   -0.7410 hc        1 LUF      0.035200
     53 H37         5.9040    2.9900    0.5470 hc        1 LUF      0.035200
     54 H38         5.7920   -1.6920   -2.9940 hc        1 LUF      0.040367
     55 H39         4.4740   -1.4590   -1.7770 hc        1 LUF      0.040367
     56 H40         4.8450   -0.1470   -2.9700 hc        1 LUF      0.040367
     57 H41         8.3810   -0.5230    0.8850 hc        1 LUF      0.041200
     58 H42         9.0500    1.1570    0.9090 hc        1 LUF      0.041200
     59 C7          4.4590    0.6060   -0.0050 c3        1 LUF     -0.037200
     60 C8          6.5420    0.8250    2.0750 c3        1 LUF     -0.084100
     61 O3         -9.9260    1.8340   -0.4010 o         1 LUF     -0.544500
     62 H6          3.8890    0.7220   -0.9680 hc        1 LUF      0.047200
     63 H7          4.3320    1.5680    0.5610 hc        1 LUF      0.047200
     64 H8          5.5550    1.2850    2.3210 hc        1 LUF      0.035200
     65 H9          6.4970   -0.2660    2.3070 hc        1 LUF      0.035200
     66 H10         7.3200    1.2940    2.7240 hc        1 LUF      0.035200
@<TRIPOS>BOND
     1    1    2 1   
     2    1   25 1   
     3    1   26 1   
     4    1   27 1   
     5    2    3 1   
     6    2   28 1   
     7    2   29 1   
     8    3   21 2   
     9    3   24 1   
    10    4   19 1   
    11    4   30 1   
    12    4   31 1   
    13    4   59 1   
    14    5    6 1   
    15    5   19 2   
    16    5   32 1   
    17    6   18 1   
    18    6   33 1   
    19    6   34 1   
    20    7    9 1   
    21    7   17 2   
    22    7   18 1   
    23    8   10 1   
    24    8   16 1   
    25    8   35 1   
    26    8   36 1   
    27    9   37 1   
    28    9   38 1   
    29    9   39 1   
    30   10   11 2   
    31   10   14 1   
    32   11   12 1   
    33   11   40 1   
    34   12   13 1   
    35   12   61 2   
    36   13   14 1   
    37   14   15 1   
    38   14   41 1   
    39   15   42 1   
    40   16   17 1   
    41   16   43 1   
    42   16   44 1   
    43   17   45 1   
    44   18   46 1   
    45   18   47 1   
    46   19   20 1   
    47   20   48 1   
    48   20   49 1   
    49   20   50 1   
    50   21   22 1   
    51   21   59 1   
    52   22   23 1   
    53   22   25 1   
    54   22   60 1   
    55   23   51 1   
    56   23   52 1   
    57   23   53 1   
    58   24   54 1   
    59   24   55 1   
    60   24   56 1   
    61   25   57 1   
    62   25   58 1   
    63   59   62 1   
    64   59   63 1   
    65   60   64 1   
    66   60   65 1   
    67   60   66 1   
@<TRIPOS>SUBSTRUCTURE
     1 LUF         1 TEMP              0 ****  ****    0 ROOT
