@<TRIPOS>MOLECULE
LUF
   66    59     1     0     0
SMALL
bcc


@<TRIPOS>ATOM
      1 C4          1.0820   -3.3160    1.5500 c1        1 LUF     -0.231250
      2 C5          0.2180   -4.1340    1.6720 c1        1 LUF     -0.231250
      3 C6          2.4710    0.1370    2.4400 c2        1 LUF     -0.257000
      4 C10         3.4070    2.6250    4.0760 c3        1 LUF     -0.114000
      5 C13         5.6070    3.7000    4.4460 c2        1 LUF     -0.155000
      6 C15         2.3140    1.4280    8.2780 c1        1 LUF     -0.231250
      7 C17         7.3440    2.1470    8.1430 c2        1 LUF     -0.162000
      8 C20         5.6490    0.2490   10.6530 c2        1 LUF     -0.200000
      9 C21         8.1420    3.1960    8.3250 c2        1 LUF     -0.222000
     10 C22         5.5400   -1.1540   11.1560 c3        1 LUF     -0.010000
     11 C24         6.6380   -1.4370   12.1120 c2        1 LUF     -0.407000
     12 C25         6.5180   -2.1720   13.1990 c1        1 LUF      0.306000
     13 O1          3.9330   -2.0590   12.7770 o         1 LUF     -0.314000
     14 C23         4.1750   -1.4030   11.7620 c2        1 LUF      0.294000
     15 O2          3.0610   -0.9230   11.1410 oh        1 LUF     -0.288000
     16 C18         5.9600    0.5470    9.3890 c2        1 LUF     -0.123000
     17 C19         6.0720    1.9380    8.8810 c3        1 LUF     -0.125000
     18 C16         1.6600    0.7380    9.0060 c1        1 LUF     -0.231250
     19 C12         4.4190    3.2990    4.9460 c2        1 LUF     -0.184000
     20 C14         4.1320    3.3850    6.3370 c1        1 LUF     -0.073000
     21 C3          2.0900    0.5440    3.6790 c2        1 LUF     -0.050000
     22 C1          0.6830    0.4040    4.1940 c3        1 LUF     -0.024000
     23 C9          0.6920   -0.4760    5.4430 c3        1 LUF     -0.208333
     24 C11         3.7200    0.4040    1.8500 c1        1 LUF     -0.062000
     25 C2         -0.2440   -0.2400    3.1680 c3        1 LUF     -0.208333
     26 H1          1.8530   -2.5940    1.4400 ha        1 LUF      0.229750
     27 H2         -1.2720   -0.3300    3.5950 hc        1 LUF      0.079667
     28 H3          1.7430   -0.3360    1.7520 ha        1 LUF      0.160000
     29 H4         -0.5490   -4.8580    1.7800 ha        1 LUF      0.229750
     30 H11         2.4670    3.2420    4.0710 hc        1 LUF      0.096000
     31 H12         3.7800    2.5750    3.0160 hc        1 LUF      0.096000
     32 H13         5.9240    3.4650    3.4210 ha        1 LUF      0.124000
     33 H14         6.3470    4.2360    5.0560 ha        1 LUF      0.124000
     34 H15         2.9070    2.0470    7.6330 ha        1 LUF      0.229750
     35 H16         5.9770    2.6770    9.7220 hc        1 LUF      0.108000
     36 H17         5.4810    1.0300   11.4130 ha        1 LUF      0.141000
     37 H18         9.0700    3.3320    7.7560 ha        1 LUF      0.114000
     38 H19         9.8230   -0.5390   11.3310 ha        1 LUF      0.008833
     39 H20         7.9280    3.9880    9.0560 ha        1 LUF      0.114000
     40 H22         7.6230   -1.0050   11.8720 ha        1 LUF      0.188000
     41 H24         5.6270   -1.8790   10.2890 hc        1 LUF      0.117000
     42 H25         3.3120   -0.3740   10.3800 ho        1 LUF      0.240000
     43 H26         9.7190   -0.0210   11.7540 ha        1 LUF      0.008833
     44 H27         6.1470   -0.2420    8.6400 ha        1 LUF      0.125000
     45 H28         5.2080    2.1310    8.1730 hc        1 LUF      0.108000
     46 H29         1.0810    0.1290    9.6560 ha        1 LUF      0.229750
     47 H30         7.5920    1.3620    7.4080 ha        1 LUF      0.121000
     48 H31         2.1240    4.4040    6.1930 ha        1 LUF      0.008833
     49 H32         4.4550    4.2890    6.8740 ha        1 LUF      0.062000
     50 H33         1.9750    3.7830    6.4350 ha        1 LUF      0.008833
     51 H35         1.1980   -1.4470    5.2280 hc        1 LUF      0.079667
     52 H36         1.2200    0.0280    6.2890 hc        1 LUF      0.079667
     53 H37        -0.3580   -0.6830    5.7620 hc        1 LUF      0.079667
     54 H38         3.9170   -1.6990    0.9250 ha        1 LUF      0.008833
     55 H39         4.6430    0.1750    2.4020 ha        1 LUF      0.059000
     56 H40         3.8920   -1.2870    0.3830 ha        1 LUF      0.008833
     57 H41         0.1160   -1.2630    2.8970 hc        1 LUF      0.079667
     58 H42        -0.3020    0.3840    2.2440 hc        1 LUF      0.079667
     59 C7          3.0820    1.2220    4.5640 c3        1 LUF     -0.144000
     60 C8          0.1180    1.7760    4.5480 c3        1 LUF     -0.208333
     61 O3          6.4840   -2.8280   14.1890 o         1 LUF     -0.131000
     62 H6          4.0280    0.6130    4.5810 hc        1 LUF      0.104500
     63 H7          2.7070    1.2840    5.6210 hc        1 LUF      0.104500
     64 H8          0.7300    2.2660    5.3440 hc        1 LUF      0.079667
     65 H9         -0.9280    1.6680    4.9230 hc        1 LUF      0.079667
     66 H10         0.1080    2.4350    3.6470 hc        1 LUF      0.079667
@<TRIPOS>BOND
     1    1    2 1   
     2    1   26 1   
     3    2   29 1   
     4    3   21 1   
     5    3   24 1   
     6    3   28 1   
     7    4   19 1   
     8    4   30 1   
     9    4   31 1   
    10    4   59 1   
    11    5   19 1   
    12    5   32 1   
    13    5   33 1   
    14    6   18 1   
    15    6   34 1   
    16    7    9 1   
    17    7   17 1   
    18    7   47 1   
    19    8   10 1   
    20    8   16 1   
    21    8   36 1   
    22    9   37 1   
    23    9   39 1   
    24   10   11 1   
    25   10   14 1   
    26   10   41 1   
    27   11   12 1   
    28   11   40 1   
    29   12   61 1   
    30   13   14 1   
    31   14   15 1   
    32   15   42 1   
    33   16   17 1   
    34   16   44 1   
    35   17   35 1   
    36   17   45 1   
    37   18   46 1   
    38   19   20 1   
    39   20   49 1   
    40   21   22 1   
    41   21   59 1   
    42   22   23 1   
    43   22   25 1   
    44   22   60 1   
    45   23   51 1   
    46   23   52 1   
    47   23   53 1   
    48   24   55 1   
    49   25   27 1   
    50   25   57 1   
    51   25   58 1   
    52   38   43 1   
    53   48   50 1   
    54   54   56 1   
    55   59   62 1   
    56   59   63 1   
    57   60   64 1   
    58   60   65 1   
    59   60   66 1   
@<TRIPOS>SUBSTRUCTURE
     1 LUF         1 TEMP              0 ****  ****    0 ROOT
