@<TRIPOS>MOLECULE
LUF
   66    61     1     0     0
SMALL
bcc


@<TRIPOS>ATOM
      1 C4         -2.5410   -2.4890   -6.2900 c3        1 LUF     -0.154000
      2 C5         -1.0080   -1.9520   -6.4800 c3        1 LUF     -0.122000
      3 C6         -0.1950   -2.2430   -5.3330 c2        1 LUF     -0.106000
      4 C7         -0.1510   -2.3180   -2.5460 c3        1 LUF     -0.118000
      5 C8         -3.0800   -2.0120   -2.6680 c3        1 LUF     -0.202000
      6 C10        -0.0750   -0.9420   -1.8570 c3        1 LUF     -0.126000
      7 C13         1.4700   -0.4050    0.1060 c1        1 LUF     -0.167000
      8 C15         0.2280   -0.2050    0.9620 c2        1 LUF     -0.125000
      9 C17         0.1430    0.6110    3.3370 c1        1 LUF     -0.098000
     10 C20         1.9750    3.2360    5.4650 c3        1 LUF     -0.124000
     11 C21        -1.3260    0.8680    3.6290 c2        1 LUF     -0.182500
     12 C22         1.5760    4.4790    6.2850 c1        1 LUF     -0.058000
     13 C24         1.4640    5.6280    5.7060 c1        1 LUF     -0.211000
     14 O3          1.8230    7.8300    6.2190 o         1 LUF     -0.269000
     15 C25         1.5130    6.7000    6.5340 c1        1 LUF      0.331000
     16 O1          1.5950    6.1080    7.9320 o         1 LUF     -0.302000
     17 C23         1.8220    4.5190    7.7160 c2        1 LUF      0.163000
     18 O2          3.0230    4.0540    8.1040 oh        1 LUF     -0.325000
     19 C18         0.7100    2.6140    4.8210 c3        1 LUF     -0.121000
     20 C19         1.1230    1.4370    3.9000 c2        1 LUF     -0.182000
     21 C16         0.5530   -0.5570    2.4230 c3        1 LUF     -0.125000
     22 C12         1.3440   -0.7530   -1.2280 c1        1 LUF     -0.115000
     23 C14         2.5930   -0.9540   -2.0850 c2        1 LUF     -0.182500
     24 C3         -0.9740   -2.1980   -3.8600 c2        1 LUF     -0.102000
     25 C1         -2.3540   -2.5820   -3.8750 c3        1 LUF     -0.012000
     26 C9         -2.5020   -4.0900   -3.6210 c3        1 LUF     -0.202000
     27 C11         1.3180   -2.0530   -5.4010 c3        1 LUF     -0.183000
     28 C2         -3.1020   -2.1550   -5.2460 c3        1 LUF     -0.149000
     29 H1         -3.0760   -2.1580   -7.0440 hc        1 LUF      0.080500
     30 H2         -2.5280   -3.4650   -6.3290 hc        1 LUF      0.080500
     31 H3         -0.8450   -1.0210   -6.7580 hc        1 LUF      0.086000
     32 H4         -0.6780   -2.4260   -7.2700 hc        1 LUF      0.086000
     33 H6          0.7530   -2.6280   -2.7550 hc        1 LUF      0.086000
     34 H7         -0.5840   -2.9560   -1.9500 hc        1 LUF      0.086000
     35 H8         -2.8700   -1.0590   -2.5820 hc        1 LUF      0.074333
     36 H9         -4.0510   -2.1250   -2.7850 hc        1 LUF      0.074333
     37 H10        -2.7920   -2.4820   -1.8640 hc        1 LUF      0.074333
     38 H11        -0.7490   -0.8920   -1.1570 hc        1 LUF      0.088500
     39 H12        -0.2360   -0.2360   -2.5170 hc        1 LUF      0.088500
     40 H13         2.3540   -0.2870    0.4960 ha        1 LUF      0.124000
     41 H14        -0.4850   -0.7830    0.6400 ha        1 LUF      0.089500
     42 H15        -0.0590    0.7270    0.9080 ha        1 LUF      0.089500
     43 H16         2.3990    2.5790    6.0540 hc        1 LUF      0.110500
     44 H17         2.6040    3.4970    4.7620 hc        1 LUF      0.110500
     45 H18        -1.4700    0.8750    4.5950 ha        1 LUF      0.080833
     46 H19        -1.5860    1.7330    3.2540 ha        1 LUF      0.080833
     47 H20        -1.8720    0.1540    3.2200 ha        1 LUF      0.080833
     48 H22         1.7070    5.7270    4.7630 ha        1 LUF      0.182000
     49 H24         1.2050    3.9680    8.2290 h5        1 LUF      0.126000
     50 H25         3.1790    4.3010    8.9440 ho        1 LUF      0.238000
     51 H26         0.1140    2.2850    5.5250 hc        1 LUF      0.090500
     52 H27         0.2460    3.2920    4.2940 hc        1 LUF      0.090500
     53 H28         2.0700    1.2710    3.7120 ha        1 LUF      0.126000
     54 H29         0.0580   -1.3650    2.6830 hc        1 LUF      0.088000
     55 H30         1.5080   -0.7190    2.5130 hc        1 LUF      0.088000
     56 H31         3.3630   -0.5130   -1.6540 ha        1 LUF      0.080833
     57 H32         2.4470   -0.5630   -2.9690 ha        1 LUF      0.080833
     58 H33         2.7740   -1.9130   -2.1780 ha        1 LUF      0.080833
     59 H35        -2.3930   -4.2730   -2.6600 hc        1 LUF      0.074333
     60 H36        -3.3910   -4.3850   -3.9110 hc        1 LUF      0.074333
     61 H37        -1.8160   -4.5750   -4.1260 hc        1 LUF      0.074333
     62 H38         1.7520   -2.6480   -4.7510 hc        1 LUF      0.080333
     63 H39         1.6330   -2.2680   -6.3020 hc        1 LUF      0.080333
     64 H40         1.5400   -1.1210   -5.1900 hc        1 LUF      0.080333
     65 H41        -3.9940   -2.5500   -5.2420 hc        1 LUF      0.080500
     66 H42        -3.1980   -1.1770   -5.2500 hc        1 LUF      0.080500
@<TRIPOS>BOND
     1    1    2 1   
     2    1   28 1   
     3    1   29 1   
     4    1   30 1   
     5    2    3 1   
     6    2   31 1   
     7    2   32 1   
     8    3   24 1   
     9    3   27 1   
    10    4    6 1   
    11    4   24 1   
    12    4   33 1   
    13    4   34 1   
    14    5   25 1   
    15    5   35 1   
    16    5   36 1   
    17    5   37 1   
    18    6   22 1   
    19    6   38 1   
    20    6   39 1   
    21    7   22 1   
    22    7   40 1   
    23    8   21 1   
    24    8   41 1   
    25    8   42 1   
    26    9   20 1   
    27    9   21 1   
    28   10   12 1   
    29   10   19 1   
    30   10   43 1   
    31   10   44 1   
    32   11   45 1   
    33   11   46 1   
    34   11   47 1   
    35   12   13 1   
    36   13   48 1   
    37   14   15 1   
    38   16   17 1   
    39   17   18 1   
    40   17   49 1   
    41   18   50 1   
    42   19   20 1   
    43   19   51 1   
    44   19   52 1   
    45   20   53 1   
    46   21   54 1   
    47   21   55 1   
    48   23   56 1   
    49   23   57 1   
    50   23   58 1   
    51   24   25 1   
    52   25   26 1   
    53   25   28 1   
    54   26   59 1   
    55   26   60 1   
    56   26   61 1   
    57   27   62 1   
    58   27   63 1   
    59   27   64 1   
    60   28   65 1   
    61   28   66 1   
@<TRIPOS>SUBSTRUCTURE
     1 LUF         1 TEMP              0 ****  ****    0 ROOT
