@<TRIPOS>MOLECULE
LUG
   39    41     1     0     0
SMALL
bcc


@<TRIPOS>ATOM
      1 F2         -2.6230    5.0770    1.5620 f         1 LUG     -0.116900
      2 C11        -2.6440    3.8030    1.1130 ca        1 LUG      0.115900
      3 C12        -1.6350    3.3620    0.2180 ca        1 LUG      0.084900
      4 F1         -0.6850    4.2460   -0.1620 f         1 LUG     -0.106900
      5 C10        -3.6610    2.9250    1.5200 ca        1 LUG     -0.155000
      6 C9         -3.6650    1.6230    1.0500 ca        1 LUG     -0.082000
      7 C8         -2.6670    1.1560    0.1810 ca        1 LUG     -0.138500
      8 C13        -2.7300   -0.2300   -0.2360 cc        1 LUG      0.474900
      9 N2         -2.1330   -0.9460   -1.2090 nd        1 LUG     -0.325000
     10 N3         -2.5390   -2.1970   -1.1770 nd        1 LUG     -0.387000
     11 C14        -3.4420   -2.3310   -0.1530 cc        1 LUG      0.684300
     12 N4         -4.2550   -3.3660    0.2610 nh        1 LUG     -0.800900
     13 C15        -3.8410   -4.7130   -0.0860 c3        1 LUG      0.184800
     14 C16        -4.9160   -5.7450    0.3260 c3        1 LUG      0.153800
     15 N5         -4.4740   -7.0930    0.0680 n3        1 LUG     -0.916800
     16 O1         -3.5960   -1.0820    0.4960 os        1 LUG     -0.414800
     17 C7         -1.6330    2.0190   -0.2650 ca        1 LUG      0.156600
     18 N1         -0.6690    1.6290   -1.2130 nh        1 LUG     -0.624000
     19 C3          0.6620    1.3870   -0.8500 ca        1 LUG      0.156600
     20 C4          1.2010    1.7760    0.3950 ca        1 LUG     -0.169000
     21 C5          2.5430    1.5740    0.6920 ca        1 LUG     -0.072000
     22 C6          3.3960    0.9730   -0.2320 ca        1 LUG      0.003900
     23 I1          5.3420    0.6820    0.2160 i         1 LUG     -0.135900
     24 C1          2.9000    0.5720   -1.4690 ca        1 LUG     -0.097000
     25 C2          1.5490    0.7700   -1.7890 ca        1 LUG      0.071900
     26 F3          1.0920    0.3650   -3.0000 f         1 LUG     -0.133900
     27 H10        -4.4430    3.2840    2.2050 ha        1 LUG      0.163000
     28 H9         -4.4640    0.9330    1.3710 ha        1 LUG      0.160000
     29 HN4        -4.6190   -3.2500    1.1850 hn        1 LUG      0.427800
     30 H15        -3.6880   -4.7520   -1.2020 h1        1 LUG      0.070200
     31 H15A       -2.8600   -4.9740    0.4090 h1        1 LUG      0.070200
     32 H16        -5.1110   -5.6620    1.4330 h1        1 LUG      0.034700
     33 H16A       -5.8800   -5.4880   -0.2060 h1        1 LUG      0.034700
     34 HN5        -5.1910   -7.7450    0.3140 hn        1 LUG      0.359300
     35 HN5A       -4.2240   -7.2180   -0.8930 hn        1 LUG      0.359300
     36 HN1        -1.0080    1.0610   -1.9650 hn        1 LUG      0.460800
     37 H4          0.5520    2.2620    1.1410 ha        1 LUG      0.144000
     38 H5          2.9240    1.8980    1.6750 ha        1 LUG      0.148000
     39 H1          3.5500    0.0930   -2.2190 ha        1 LUG      0.161000
@<TRIPOS>BOND
     1    1    2 1   
     2    2    3 ar  
     3    2    5 ar  
     4    3    4 1   
     5    3   17 ar  
     6    5    6 ar  
     7    5   27 1   
     8    6    7 ar  
     9    6   28 1   
    10    7    8 1   
    11    7   17 ar  
    12    8    9 2   
    13    8   16 1   
    14    9   10 1   
    15   10   11 2   
    16   11   12 1   
    17   11   16 1   
    18   12   13 1   
    19   12   29 1   
    20   13   14 1   
    21   13   30 1   
    22   13   31 1   
    23   14   15 1   
    24   14   32 1   
    25   14   33 1   
    26   15   34 1   
    27   15   35 1   
    28   17   18 1   
    29   18   19 1   
    30   18   36 1   
    31   19   20 ar  
    32   19   25 ar  
    33   20   21 ar  
    34   20   37 1   
    35   21   22 ar  
    36   21   38 1   
    37   22   23 1   
    38   22   24 ar  
    39   24   25 ar  
    40   24   39 1   
    41   25   26 1   
@<TRIPOS>SUBSTRUCTURE
     1 LUG         1 TEMP              0 ****  ****    0 ROOT
