@<TRIPOS>MOLECULE
LUG
   40    42     1     0     0
SMALL
bcc


@<TRIPOS>ATOM
      1 F2          0.6410   -0.2170    0.1890 f         1 LUG     -0.098900
      2 C11         1.9840   -0.1530    0.0880 ca        1 LUG      0.163900
      3 C12         2.7800   -0.3920    1.2370 ca        1 LUG      0.041900
      4 F1          2.1580   -0.6510    2.4080 f         1 LUG     -0.101900
      5 C10         2.5870    0.1670   -1.1410 ca        1 LUG     -0.171000
      6 C9          3.9660    0.2440   -1.2200 ca        1 LUG     -0.056000
      7 C8          4.7770   -0.0070   -0.1030 ca        1 LUG     -0.201500
      8 C13         6.2110    0.0830   -0.2750 cc        1 LUG      0.577900
      9 N2          7.2400    0.3890    0.5450 nd        1 LUG     -0.333000
     10 N3          8.3740    0.3440   -0.1280 nd        1 LUG     -0.455000
     11 C14         8.1070    0.0060   -1.4220 cc        1 LUG      0.619300
     12 N4          8.9410   -0.0790   -2.5370 nu        1 LUG     -0.811900
     13 C15        10.2390   -0.6760   -2.3160 c3        1 LUG      0.167800
     14 C16        11.3380    0.3690   -2.0250 c3        1 LUG      0.092800
     15 N5         11.0830    1.1850   -0.8090 nz        1 LUG     -0.829600
     16 O1          6.7190   -0.1800   -1.5740 os        1 LUG     -0.384800
     17 C7          4.2060   -0.3480    1.1560 ca        1 LUG      0.208600
     18 N1          5.0370   -0.6210    2.2420 nu        1 LUG     -0.645000
     19 C3          4.7710   -1.5890    3.2210 ca        1 LUG      0.136600
     20 C4          4.0510   -2.7680    2.9400 ca        1 LUG     -0.149000
     21 C5          3.8850   -3.7520    3.9080 ca        1 LUG     -0.072000
     22 C6          4.4310   -3.5990    5.1820 ca        1 LUG      0.015900
     23 I1          4.1850   -5.0390    6.5740 i         1 LUG     -0.107900
     24 C1          5.1460   -2.4470    5.4950 ca        1 LUG     -0.096000
     25 C2          5.3200   -1.4410    4.5320 ca        1 LUG      0.069900
     26 F3          6.0250   -0.3270    4.8570 f         1 LUG     -0.140900
     27 H10         1.9540    0.3590   -2.0210 ha        1 LUG      0.175000
     28 H9          4.4410    0.5040   -2.1810 ha        1 LUG      0.155000
     29 HN4         8.4600   -0.4100   -3.3540 hn        1 LUG      0.454800
     30 H15        10.5630   -1.2050   -3.2610 h1        1 LUG      0.097200
     31 H15A       10.2260   -1.4360   -1.4810 h1        1 LUG      0.097200
     32 H16        12.3100   -0.1850   -1.8810 hx        1 LUG      0.115700
     33 H16A       11.4430    1.0760   -2.8990 hx        1 LUG      0.115700
     34 HN5        11.9050    1.7560   -0.5910 hn        1 LUG      0.470800
     35 HN5A       10.2790    1.8080   -0.9610 hn        1 LUG      0.470800
     36 HN1         5.6670    0.1060    2.5120 hn        1 LUG      0.465800
     37 H4          3.5990   -2.9070    1.9450 ha        1 LUG      0.146000
     38 H5          3.3110   -4.6580    3.6520 ha        1 LUG      0.157000
     39 H1          5.5820   -2.2960    6.4960 ha        1 LUG      0.168000
     40 H53        10.8710    0.5800   -0.0050 hn        1 LUG      0.470800
@<TRIPOS>BOND
     1    1    2 1   
     2    2    3 ar  
     3    2    5 ar  
     4    3    4 1   
     5    3   17 ar  
     6    5    6 ar  
     7    5   27 1   
     8    6    7 ar  
     9    6   28 1   
    10    7    8 1   
    11    7   17 ar  
    12    8    9 2   
    13    8   16 1   
    14    9   10 1   
    15   10   11 2   
    16   11   12 1   
    17   11   16 1   
    18   12   13 1   
    19   12   29 1   
    20   13   14 1   
    21   13   30 1   
    22   13   31 1   
    23   14   15 1   
    24   14   32 1   
    25   14   33 1   
    26   15   34 1   
    27   15   35 1   
    28   15   40 1   
    29   17   18 1   
    30   18   19 1   
    31   18   36 1   
    32   19   20 ar  
    33   19   25 ar  
    34   20   21 ar  
    35   20   37 1   
    36   21   22 ar  
    37   21   38 1   
    38   22   23 1   
    39   22   24 ar  
    40   24   25 ar  
    41   24   39 1   
    42   25   26 1   
@<TRIPOS>SUBSTRUCTURE
     1 LUG         1 TEMP              0 ****  ****    0 ROOT
