@<TRIPOS>MOLECULE
LUG
   39    35     1     0     0
SMALL
bcc


@<TRIPOS>ATOM
      1 F2         -5.3850    0.3310   -1.6140 f         1 LUG     -0.082000
      2 C11        -4.0500    0.3950   -1.5870 c2        1 LUG      0.084000
      3 C12        -3.3750    0.3390   -0.3690 c1        1 LUG      0.047000
      4 F1         -4.0650    0.2330    0.7720 f         1 LUG     -0.073000
      5 C10        -3.3340    0.4860   -2.7730 c2        1 LUG     -0.158000
      6 C9         -1.9450    0.5210   -2.7450 c1        1 LUG     -0.080000
      7 C8         -1.2720    0.4650   -1.5290 c1        1 LUG     -0.035000
      8 C13         0.1020    0.4110   -1.5100 c1        1 LUG      0.035000
      9 N2          0.9280    1.4280   -1.1970 n2        1 LUG     -0.091500
     10 N3          2.1930    1.0150   -1.3980 n2        1 LUG     -0.091500
     11 C14         2.1520   -0.2590   -1.8360 c1        1 LUG      0.035000
     12 N4          3.2960   -1.0990   -2.1080 n2        1 LUG     -0.247000
     13 C15         4.5000   -0.9390   -1.3470 c3        1 LUG     -0.051000
     14 C16         5.5130   -2.0600   -1.7340 c3        1 LUG     -0.083000
     15 N5          6.5280   -2.1440   -0.7440 n3        1 LUG     -0.349000
     16 O1          0.8590   -0.6340   -1.9060 os        1 LUG     -0.156000
     17 C7         -1.9870    0.3740   -0.3410 c2        1 LUG      0.075000
     18 N1         -1.2860    0.4220    0.9350 n3        1 LUG     -0.246000
     19 C3         -2.0150    0.7430    2.1520 c2        1 LUG      0.073000
     20 C4         -2.1910    2.0770    2.5300 c2        1 LUG     -0.164000
     21 C5         -2.8370    2.3840    3.7290 c1        1 LUG     -0.073000
     22 C6         -3.3090    1.3600    4.5490 c1        1 LUG     -0.279000
     23 I1         -4.3200    1.8320    6.3630 i         1 LUG      0.150000
     24 C1         -3.1340    0.0310    4.1730 c1        1 LUG     -0.099000
     25 C2         -2.4840   -0.2770    2.9680 c1        1 LUG      0.042000
     26 F3         -2.3080   -1.5350    2.6170 f         1 LUG     -0.101000
     27 H10        -3.8030    0.5240   -3.6210 ha        1 LUG      0.163000
     28 H9         -1.4490    0.5840   -3.5670 ha        1 LUG      0.158000
     29 HN4         3.2730   -1.6980   -2.8210 hn        1 LUG      0.224000
     30 H15         4.9000   -0.0470   -1.5430 h1        1 LUG      0.109000
     31 H15A        4.2910   -1.0020   -0.3830 h1        1 LUG      0.109000
     32 H16         5.0350   -2.9330   -1.7960 h1        1 LUG      0.074500
     33 H16A        5.9160   -1.8490   -2.5950 h1        1 LUG      0.074500
     34 HN5         7.3450   -2.1640   -1.1470 hn        1 LUG      0.154500
     35 HN5A        6.4140   -2.8950   -0.2600 hn        1 LUG      0.154500
     36 HN1        -0.4100    0.1450    0.9860 hn        1 LUG      0.245000
     37 H4         -1.8590    2.7980    1.9530 ha        1 LUG      0.145000
     38 H5         -2.9610    3.3250    3.9940 ha        1 LUG      0.148000
     39 H1         -3.4640   -0.6870    4.7480 ha        1 LUG      0.160000
@<TRIPOS>BOND
     1    1    2 1   
     2    2    3 1   
     3    2    5 1   
     4    3   17 1   
     5    5    6 1   
     6    5   27 1   
     7    6   28 1   
     8    7   17 1   
     9    8    9 1   
    10    8   16 1   
    11    9   10 1   
    12   10   11 1   
    13   11   16 1   
    14   12   13 1   
    15   12   29 1   
    16   13   14 1   
    17   13   30 1   
    18   13   31 1   
    19   14   15 1   
    20   14   32 1   
    21   14   33 1   
    22   15   34 1   
    23   15   35 1   
    24   17   18 1   
    25   18   19 1   
    26   18   36 1   
    27   19   20 1   
    28   19   25 1   
    29   20   21 1   
    30   20   37 1   
    31   21   38 1   
    32   22   23 1   
    33   22   24 1   
    34   24   39 1   
    35   25   26 1   
@<TRIPOS>SUBSTRUCTURE
     1 LUG         1 TEMP              0 ****  ****    0 ROOT
