@<TRIPOS>MOLECULE
LUG
   42    44     1     0     0
SMALL
bcc


@<TRIPOS>ATOM
      1 F2          0.2720    0.0830   -0.3860 f         1 LUG     -0.030900
      2 C11         1.6000    0.0200   -0.2500 ca        1 LUG      0.229900
      3 C12         2.1670   -0.0100    1.0680 ca        1 LUG      0.109900
      4 F1          1.3370    0.0330    2.1300 f         1 LUG     -0.070900
      5 C10         2.4510   -0.0210   -1.3640 ca        1 LUG     -0.119000
      6 C9          3.8270   -0.0730   -1.1810 ca        1 LUG     -0.025000
      7 C8          4.4110   -0.0920    0.0990 ca        1 LUG     -0.181500
      8 C13         5.8510   -0.1030    0.1750 cc        1 LUG      0.652900
      9 N2          6.7300   -0.0460    1.2250 nd        1 LUG     -0.364000
     10 N3          7.9590   -0.0560    0.7960 nd        1 LUG     -0.170000
     11 C14         7.9340   -0.1200   -0.5640 cc        1 LUG      0.403300
     12 N4          8.9820   -0.1820   -1.5600 n4        1 LUG     -0.687700
     13 C15        10.2800    0.3430   -1.0170 c3        1 LUG      0.089800
     14 C16        11.3990    0.3190   -2.0840 c3        1 LUG      0.072800
     15 N5         12.7000    0.8110   -1.5590 n4        1 LUG     -0.833600
     16 O1          6.5890   -0.1520   -1.0210 os        1 LUG     -0.344800
     17 C7          3.5700   -0.0750    1.2470 ca        1 LUG      0.019600
     18 N1          4.0800   -0.1040    2.6240 n4        1 LUG     -0.498800
     19 C3          4.3260   -1.4520    3.1580 ca        1 LUG     -0.115400
     20 C4          3.3730   -2.4740    2.9980 ca        1 LUG     -0.076000
     21 C5          3.5810   -3.7150    3.5880 ca        1 LUG     -0.081000
     22 C6          4.7280   -3.9630    4.3520 ca        1 LUG      0.088900
     23 I1          4.9970   -5.7640    5.2200 i         1 LUG      0.003100
     24 C1          5.6790   -2.9600    4.5230 ca        1 LUG     -0.112000
     25 C2          5.4940   -1.6980    3.9310 ca        1 LUG      0.156900
     26 F3          6.4110   -0.7210    4.1100 f         1 LUG     -0.116900
     27 H10         2.0140   -0.0060   -2.3830 ha        1 LUG      0.222000
     28 H9          4.4760   -0.0960   -2.0760 ha        1 LUG      0.180000
     29 HN4         9.0860   -1.1730   -1.8490 hn        1 LUG      0.494800
     30 H15        10.5650   -0.2970   -0.1260 hx        1 LUG      0.152200
     31 H15A       10.0970    1.4000   -0.6530 hx        1 LUG      0.152200
     32 H16        11.1190    0.9740   -2.9660 hx        1 LUG      0.143200
     33 H16A       11.5630   -0.7370   -2.4620 hx        1 LUG      0.143200
     34 HN5        13.4060    0.7710   -2.3170 hn        1 LUG      0.494467
     35 HN5A       12.6300    1.7870   -1.2370 hn        1 LUG      0.494467
     36 HN1         4.9430    0.4570    2.7040 hn        1 LUG      0.486300
     37 H4          2.4470   -2.2970    2.4250 ha        1 LUG      0.164000
     38 H5          2.8140   -4.5030    3.4590 ha        1 LUG      0.198000
     39 H1          6.5840   -3.1230    5.1380 ha        1 LUG      0.201000
     40 H42         8.6760    0.3730   -2.3800 hn        1 LUG      0.494800
     41 H53        13.0340    0.2290   -0.7770 hn        1 LUG      0.494467
     42 H12         3.3650    0.3350    3.2380 hn        1 LUG      0.486300
@<TRIPOS>BOND
     1    1    2 1   
     2    2    3 ar  
     3    2    5 ar  
     4    3    4 1   
     5    3   17 ar  
     6    5    6 ar  
     7    5   27 1   
     8    6    7 ar  
     9    6   28 1   
    10    7    8 1   
    11    7   17 ar  
    12    8    9 2   
    13    8   16 1   
    14    9   10 1   
    15   10   11 2   
    16   11   12 1   
    17   11   16 1   
    18   12   13 1   
    19   12   29 1   
    20   12   40 1   
    21   13   14 1   
    22   13   30 1   
    23   13   31 1   
    24   14   15 1   
    25   14   32 1   
    26   14   33 1   
    27   15   34 1   
    28   15   35 1   
    29   15   41 1   
    30   17   18 1   
    31   18   19 1   
    32   18   36 1   
    33   18   42 1   
    34   19   20 ar  
    35   19   25 ar  
    36   20   21 ar  
    37   20   37 1   
    38   21   22 ar  
    39   21   38 1   
    40   22   23 1   
    41   22   24 ar  
    42   24   25 ar  
    43   24   39 1   
    44   25   26 1   
@<TRIPOS>SUBSTRUCTURE
     1 LUG         1 TEMP              0 ****  ****    0 ROOT
