@<TRIPOS>MOLECULE
LUI
   53    55     1     0     0
SMALL
bcc


@<TRIPOS>ATOM
      1 C4         -1.6090    0.0110   -0.0450 ca        1 LUI     -0.178000
      2 C5         -2.6070    0.9910   -0.0160 ca        1 LUI      0.159100
      3 C6         -2.2920    2.3600   -0.1080 ca        1 LUI     -0.224000
      4 C7          1.4480    2.2020   -0.4060 c         1 LUI      0.710100
      5 C10         0.8140   -0.5630   -0.2000 cc        1 LUI     -0.140400
      6 C13         0.0990   -4.1300   -1.1770 ca        1 LUI     -0.132500
      7 C15        -0.1720   -3.9140    1.2120 ca        1 LUI     -0.132500
      8 C20         4.6900    1.6380    0.6450 c3        1 LUI     -0.090700
      9 C21         6.1510    1.6270    0.2460 c3        1 LUI     -0.089600
     10 C22         4.3810    2.8500    1.4960 c3        1 LUI     -0.089600
     11 C26        -6.2800    0.7640    0.2780 c         1 LUI      0.657100
     12 O28        -7.2440    1.3940    0.7610 o         1 LUI     -0.611100
     13 N27        -6.4320   -0.5120   -0.1910 n         1 LUI     -0.652000
     14 C25        -4.9350    1.4730    0.1440 c3        1 LUI      0.053400
     15 O24        -3.8920    0.4960    0.1080 os        1 LUI     -0.339900
     16 C1         -0.9640    2.7350   -0.2330 ca        1 LUI     -0.026000
     17 C3         -0.2640    0.3970   -0.1710 ca        1 LUI      0.063200
     18 C9          2.1230   -0.1370   -0.3200 cd        1 LUI      0.095400
     19 N18         3.4300   -1.7510    1.0070 n3        1 LUI     -0.911800
     20 N8          2.4530    1.2060   -0.4550 n         1 LUI     -0.342000
     21 C19         3.8300    1.6380   -0.6290 c3        1 LUI      0.080000
     22 O23         1.7720    3.4040   -0.4970 o         1 LUI     -0.637500
     23 C2          0.0510    1.7660   -0.2680 ca        1 LUI     -0.192600
     24 C11         0.4790   -1.9870   -0.1080 ca        1 LUI     -0.039800
     25 C16         0.1670   -2.5640    1.1310 ca        1 LUI     -0.125500
     26 C14        -0.2060   -4.6990    0.0600 ca        1 LUI     -0.128000
     27 C12         0.4390   -2.7810   -1.2630 ca        1 LUI     -0.125500
     28 H4         -1.8790   -1.0520    0.0350 ha        1 LUI      0.161000
     29 H6         -3.0770    3.1280   -0.0820 ha        1 LUI      0.146000
     30 H13         0.0680   -4.7450   -2.0880 ha        1 LUI      0.135000
     31 H15        -0.4170   -4.3580    2.1880 ha        1 LUI      0.135000
     32 H17         2.8880   -1.9820   -1.0700 h1        1 LUI      0.049200
     33 H17A        4.2060   -0.8050   -0.6620 h1        1 LUI      0.049200
     34 H20         4.4770    0.7100    1.2470 hc        1 LUI      0.077700
     35 H21         6.7950    1.6810    1.1570 hc        1 LUI      0.037367
     36 H21A        6.3990    0.6890   -0.3080 hc        1 LUI      0.037367
     37 H21B        6.3900    2.5000   -0.4080 hc        1 LUI      0.037367
     38 H22         3.2840    2.9200    1.6930 hc        1 LUI      0.037367
     39 H22A        4.9190    2.7820    2.4720 hc        1 LUI      0.037367
     40 H22B        4.7000    3.7870    0.9790 hc        1 LUI      0.037367
     41 HN27       -7.2950   -0.9780   -0.0560 hn        1 LUI      0.318500
     42 HN2A       -5.6390   -1.0390   -0.4600 hn        1 LUI      0.318500
     43 H25        -4.9380    2.0700   -0.8060 h1        1 LUI      0.076700
     44 H25A       -4.7970    2.1480    1.0300 h1        1 LUI      0.076700
     45 H1         -0.6850    3.8000   -0.3070 ha        1 LUI      0.163000
     46 HN18        2.5630   -1.9780    1.4550 hn        1 LUI      0.359300
     47 HN1A        3.9950   -2.5750    0.9430 hn        1 LUI      0.359300
     48 H19         3.8120    2.6900   -1.0420 h1        1 LUI      0.069200
     49 H19A        4.3120    0.9850   -1.4120 h1        1 LUI      0.069200
     50 H16         0.1820   -1.9430    2.0400 ha        1 LUI      0.141000
     51 H14        -0.4750   -5.7630    0.1260 ha        1 LUI      0.134000
     52 H12         0.6710   -2.3320   -2.2410 ha        1 LUI      0.141000
     53 C17         3.2120   -1.2030   -0.3120 c3        1 LUI      0.187000
@<TRIPOS>BOND
     1    1    2 ar  
     2    1   17 ar  
     3    1   28 1   
     4    2    3 ar  
     5    2   15 1   
     6    3   16 ar  
     7    3   29 1   
     8    4   20 1   
     9    4   22 2   
    10    4   23 1   
    11    5   17 1   
    12    5   18 2   
    13    5   24 1   
    14    6   26 ar  
    15    6   27 ar  
    16    6   30 1   
    17    7   25 ar  
    18    7   26 ar  
    19    7   31 1   
    20    8    9 1   
    21    8   10 1   
    22    8   21 1   
    23    8   34 1   
    24    9   35 1   
    25    9   36 1   
    26    9   37 1   
    27   10   38 1   
    28   10   39 1   
    29   10   40 1   
    30   11   12 2   
    31   11   13 1   
    32   11   14 1   
    33   13   41 1   
    34   13   42 1   
    35   14   15 1   
    36   14   43 1   
    37   14   44 1   
    38   16   23 ar  
    39   16   45 1   
    40   17   23 ar  
    41   18   20 1   
    42   18   53 1   
    43   19   46 1   
    44   19   47 1   
    45   19   53 1   
    46   20   21 1   
    47   21   48 1   
    48   21   49 1   
    49   24   25 ar  
    50   24   27 ar  
    51   25   50 1   
    52   26   51 1   
    53   27   52 1   
    54   32   53 1   
    55   33   53 1   
@<TRIPOS>SUBSTRUCTURE
     1 LUI         1 TEMP              0 ****  ****    0 ROOT
