@<TRIPOS>MOLECULE
LUI
   55    54     1     0     0
SMALL
bcc


@<TRIPOS>ATOM
      1 C4          0.2840    0.3610    0.2770 c2        1 LUI     -0.112000
      2 C5          1.4600   -0.2110   -0.0300 c2        1 LUI     -0.059000
      3 C6          2.8920    0.2580    3.0390 c1        1 LUI     -0.149000
      4 C7         -0.3960   -0.1610    4.0220 c2        1 LUI      0.332000
      5 C10        -1.8140    0.1360    1.5890 c2        1 LUI     -0.179000
      6 C13        -4.2230    0.6170   -1.5830 c3        1 LUI     -0.125000
      7 C15        -3.7510    3.1090   -4.0000 c1        1 LUI     -0.224500
      8 C20        -3.2160    0.6930    5.8770 c3        1 LUI     -0.112000
      9 C21        -4.2050    0.1870    6.9070 c3        1 LUI     -0.218000
     10 C22        -2.2010    1.6130    6.5190 c3        1 LUI     -0.218000
     11 C26         4.0560   -1.1630   -1.3810 c2        1 LUI      0.211000
     12 O28         3.8410   -2.1140   -0.6530 o         1 LUI     -0.132000
     13 N27         5.1940   -1.3510   -2.3660 n4        1 LUI     -0.150000
     14 C25         3.3330    0.1780   -1.4220 c3        1 LUI     -0.016000
     15 O24         1.9440   -0.0420   -1.3350 os        1 LUI     -0.193000
     16 C1          1.7110    0.1590    2.8610 c1        1 LUI     -0.144000
     17 C3         -0.3750    0.1740    1.5630 c2        1 LUI      0.080000
     18 C9         -2.4960   -0.0710    2.8030 c2        1 LUI      0.122000
     19 N18        -4.6610    1.1240    2.3720 n3        1 LUI     -0.358000
     20 N8         -1.8270   -0.2430    3.9770 n         1 LUI     -0.197000
     21 C19        -2.5280   -0.5190    5.2290 c3        1 LUI     -0.065000
     22 O23         0.1720   -0.2880    5.1150 o         1 LUI     -0.273000
     23 C2          0.3150    0.0580    2.7440 c2        1 LUI     -0.044000
     24 C11        -2.5680    0.2990    0.4230 c1        1 LUI      0.085000
     25 C16        -3.5020    3.7200   -3.0000 c1        1 LUI     -0.224500
     26 C14        -5.5920    0.7530   -1.2080 c2        1 LUI      0.241000
     27 C12        -3.3040    0.4500   -0.5150 c1        1 LUI     -0.319000
     28 H4         -0.2520    0.9830   -0.4610 ha        1 LUI      0.156000
     29 H6          2.0630   -0.8660    0.6180 h4        1 LUI      0.173000
     30 H13        -4.0960   -0.1910   -2.3860 hc        1 LUI      0.255000
     31 H15        -6.3860    0.8010   -1.9780 ha        1 LUI      0.195000
     32 H17        -4.2680   -0.8730    1.9210 h1        1 LUI      0.122000
     33 H17A       -4.4810   -0.5050    3.6830 h1        1 LUI      0.122000
     34 H20        -3.7810    1.2690    5.0920 hc        1 LUI      0.068000
     35 H21        -4.9990   -0.4320    6.4240 hc        1 LUI      0.090167
     36 H21A       -4.6920    1.0520    7.4210 hc        1 LUI      0.090167
     37 H21B       -3.6890   -0.4340    7.6790 hc        1 LUI      0.090167
     38 H22        -1.6700    1.0910    7.3530 hc        1 LUI      0.090167
     39 H22A       -1.4380    1.9440    5.7740 hc        1 LUI      0.090167
     40 H22B       -2.7110    2.5150    6.9360 hc        1 LUI      0.090167
     41 HN27        4.8320   -1.3250   -3.3250 hn        1 LUI      0.270000
     42 HN2A        5.8870   -0.6050   -2.2540 hn        1 LUI      0.270000
     43 H25         3.4750    0.7050   -2.4070 h1        1 LUI      0.158500
     44 H25A        3.7310    0.8000   -0.5720 h1        1 LUI      0.158500
     45 H1          3.9330    0.3480    3.2310 ha        1 LUI      0.238000
     46 HN18       -5.8980    0.8300   -0.1420 ha        1 LUI      0.195000
     47 HN1A       -4.0450    1.7280    1.8620 hn        1 LUI      0.164500
     48 H19        -3.2830   -1.3340    5.0390 h1        1 LUI      0.132000
     49 H19A       -1.7730   -0.9300    5.9660 h1        1 LUI      0.132000
     50 H16        -3.2710    4.3030   -2.1410 ha        1 LUI      0.236000
     51 H14        -3.9610    2.6120   -4.9170 ha        1 LUI      0.236000
     52 H12        -3.9650    1.5790   -2.2070 hc        1 LUI      0.255000
     53 C17        -4.0240   -0.1180    2.7280 c3        1 LUI     -0.069000
     54 H273        5.6540   -2.2600   -2.2110 hn        1 LUI      0.270000
     55 H183       -4.9960    1.6090    3.1830 hn        1 LUI      0.164500
@<TRIPOS>BOND
     1    1    2 1   
     2    1   17 1   
     3    1   28 1   
     4    2   15 1   
     5    2   29 1   
     6    3   16 1   
     7    3   45 1   
     8    4   20 1   
     9    4   22 1   
    10    4   23 1   
    11    5   17 1   
    12    5   18 1   
    13    5   24 1   
    14    6   26 1   
    15    6   27 1   
    16    6   30 1   
    17    6   52 1   
    18    7   25 1   
    19    7   51 1   
    20    8    9 1   
    21    8   10 1   
    22    8   21 1   
    23    8   34 1   
    24    9   35 1   
    25    9   36 1   
    26    9   37 1   
    27   10   38 1   
    28   10   39 1   
    29   10   40 1   
    30   11   12 1   
    31   11   13 1   
    32   11   14 1   
    33   13   41 1   
    34   13   42 1   
    35   13   54 1   
    36   14   15 1   
    37   14   43 1   
    38   14   44 1   
    39   16   23 1   
    40   17   23 1   
    41   18   20 1   
    42   18   53 1   
    43   19   47 1   
    44   19   53 1   
    45   19   55 1   
    46   20   21 1   
    47   21   48 1   
    48   21   49 1   
    49   24   27 1   
    50   25   50 1   
    51   26   31 1   
    52   26   46 1   
    53   32   53 1   
    54   33   53 1   
@<TRIPOS>SUBSTRUCTURE
     1 LUI         1 TEMP              0 ****  ****    0 ROOT
