@<TRIPOS>MOLECULE
LUI
   55    54     1     0     0
SMALL
bcc


@<TRIPOS>ATOM
      1 C4          0.2640    0.4330    0.2010 c2        1 LUI     -0.112000
      2 C5          1.4400   -0.1260   -0.1300 c2        1 LUI     -0.059000
      3 C6          2.8980    0.2830    2.9360 c1        1 LUI     -0.149000
      4 C7         -0.3780   -0.1720    3.9390 c2        1 LUI      0.332000
      5 C10        -1.8200    0.1700    1.5270 c2        1 LUI     -0.179000
      6 C13        -4.2610    0.7070   -1.6110 c3        1 LUI     -0.125000
      7 C15        -3.8210    3.2480   -3.9830 c1        1 LUI     -0.224500
      8 C20        -3.1840    0.6290    5.8390 c3        1 LUI     -0.112000
      9 C21        -4.1620    0.0980    6.8670 c3        1 LUI     -0.218000
     10 C22        -2.1680    1.5400    6.4900 c3        1 LUI     -0.218000
     11 C26         4.0280   -1.0350   -1.5250 c2        1 LUI      0.211000
     12 O28         3.8270   -2.0010   -0.8130 o         1 LUI     -0.132000
     13 N27         5.1560   -1.1950   -2.5250 n4        1 LUI     -0.150000
     14 C25         3.2980    0.3030   -1.5300 c3        1 LUI     -0.016000
     15 O24         1.9110    0.0730   -1.4350 os        1 LUI     -0.193000
     16 C1          1.7160    0.1830    2.7660 c1        1 LUI     -0.144000
     17 C3         -0.3820    0.2160    1.4880 c2        1 LUI      0.080000
     18 C9         -2.4900   -0.0660    2.7420 c2        1 LUI      0.122000
     19 N18        -4.6640    1.1280    2.3570 n3        1 LUI     -0.358000
     20 N8         -1.8090   -0.2590    3.9060 n         1 LUI     -0.197000
     21 C19        -2.4970   -0.5650    5.1590 c3        1 LUI     -0.065000
     22 O23         0.2000   -0.3200    5.0240 o         1 LUI     -0.273000
     23 C2          0.3200    0.0780    2.6600 c2        1 LUI     -0.044000
     24 C11        -2.5860    0.3550    0.3720 c1        1 LUI      0.085000
     25 C16        -3.5660    3.8400   -2.9740 c1        1 LUI     -0.224500
     26 C14        -5.6280    0.8290   -1.2210 c2        1 LUI      0.241000
     27 C12        -3.3320    0.5210   -0.5560 c1        1 LUI     -0.319000
     28 H4         -0.2820    1.0690   -0.5190 ha        1 LUI      0.156000
     29 H6          2.0530   -0.7910    0.4990 h4        1 LUI      0.173000
     30 H13        -4.1380   -0.0840   -2.4320 hc        1 LUI      0.255000
     31 H15        -6.4290    0.8900   -1.9830 ha        1 LUI      0.195000
     32 H17        -4.2660   -0.8570    1.8600 h1        1 LUI      0.122000
     33 H17A       -4.4640   -0.5280    3.6320 h1        1 LUI      0.122000
     34 H20        -3.7600    1.2200    5.0720 hc        1 LUI      0.068000
     35 H21        -4.9570   -0.5150    6.3780 hc        1 LUI      0.090167
     36 H21A       -3.6350   -0.5370    7.6210 hc        1 LUI      0.090167
     37 H21B       -4.6470    0.9490    7.4040 hc        1 LUI      0.090167
     38 H22        -1.6260    1.0040    7.3080 hc        1 LUI      0.090167
     39 H22A       -1.4130    1.8910    5.7460 hc        1 LUI      0.090167
     40 H22B       -2.6780    2.4310    6.9310 hc        1 LUI      0.090167
     41 HN27        5.8470   -0.4480   -2.4060 hn        1 LUI      0.270000
     42 HN2A        5.6230   -2.1040   -2.3930 hn        1 LUI      0.270000
     43 H25         3.4270    0.8520   -2.5050 h1        1 LUI      0.158500
     44 H25A        3.7000    0.9090   -0.6710 h1        1 LUI      0.158500
     45 H1          3.9410    0.3750    3.1200 ha        1 LUI      0.238000
     46 HN18       -5.9230    0.8830   -0.1500 ha        1 LUI      0.195000
     47 HN1A       -4.9940    1.5950    3.1810 hn        1 LUI      0.164500
     48 H19        -3.2500   -1.3800    4.9580 h1        1 LUI      0.132000
     49 H19A       -1.7330   -0.9880    5.8800 h1        1 LUI      0.132000
     50 H16        -3.3310    4.4090   -2.1060 ha        1 LUI      0.236000
     51 H14        -4.0370    2.7670   -4.9080 ha        1 LUI      0.236000
     52 H12        -4.0130    1.6820   -2.2190 hc        1 LUI      0.255000
     53 C17        -4.0180   -0.1180    2.6810 c3        1 LUI     -0.069000
     54 H273        4.7830   -1.1530   -3.4800 hn        1 LUI      0.270000
     55 H183       -4.0560    1.7460    1.8550 hn        1 LUI      0.164500
@<TRIPOS>BOND
     1    1    2 1   
     2    1   17 1   
     3    1   28 1   
     4    2   15 1   
     5    2   29 1   
     6    3   16 1   
     7    3   45 1   
     8    4   20 1   
     9    4   22 1   
    10    4   23 1   
    11    5   17 1   
    12    5   18 1   
    13    5   24 1   
    14    6   26 1   
    15    6   27 1   
    16    6   30 1   
    17    6   52 1   
    18    7   25 1   
    19    7   51 1   
    20    8    9 1   
    21    8   10 1   
    22    8   21 1   
    23    8   34 1   
    24    9   35 1   
    25    9   36 1   
    26    9   37 1   
    27   10   38 1   
    28   10   39 1   
    29   10   40 1   
    30   11   12 1   
    31   11   13 1   
    32   11   14 1   
    33   13   41 1   
    34   13   42 1   
    35   13   54 1   
    36   14   15 1   
    37   14   43 1   
    38   14   44 1   
    39   16   23 1   
    40   17   23 1   
    41   18   20 1   
    42   18   53 1   
    43   19   47 1   
    44   19   53 1   
    45   19   55 1   
    46   20   21 1   
    47   21   48 1   
    48   21   49 1   
    49   24   27 1   
    50   25   50 1   
    51   26   31 1   
    52   26   46 1   
    53   32   53 1   
    54   33   53 1   
@<TRIPOS>SUBSTRUCTURE
     1 LUI         1 TEMP              0 ****  ****    0 ROOT
