@<TRIPOS>MOLECULE
LUI
   55    53     1     0     0
SMALL
bcc


@<TRIPOS>ATOM
      1 C4          0.4280   -0.0300   -0.1190 c2        1 LUI     -0.100000
      2 C5          1.6890   -0.4910   -0.1270 c2        1 LUI     -0.055000
      3 C6          2.7350    1.7080    2.3480 c1        1 LUI     -0.135000
      4 C7         -0.5000    1.0800    3.4360 c2        1 LUI      0.323000
      5 C10        -1.6920   -0.1130    1.1630 c2        1 LUI     -0.062000
      6 C13        -4.1830   -3.1250   -3.5780 c1        1 LUI     -0.223000
      7 C15        -4.4500    3.1200    2.0590 c1        1 LUI      0.236000
      8 C20        -3.2850    1.9460    5.0980 c3        1 LUI     -0.096000
      9 C21        -4.3340    1.6310    6.1460 c3        1 LUI     -0.225500
     10 C22        -2.3480    3.0210    5.6050 c3        1 LUI     -0.225500
     11 C26         4.4440   -1.6760   -1.8430 c2        1 LUI      0.227000
     12 O28         5.3970   -2.3870   -1.5860 o         1 LUI     -0.128000
     13 N27         4.7480   -0.4270   -2.6400 nz        1 LUI     -0.142000
     14 C25         2.9860   -1.9180   -1.4950 c3        1 LUI     -0.030000
     15 O24         2.3070   -0.6780   -1.3710 os        1 LUI     -0.256000
     16 C1          1.6130    1.3000    2.2480 c1        1 LUI     -0.156000
     17 C3         -0.2980    0.2670    1.1100 c2        1 LUI      0.055000
     18 C9         -2.4120    0.0320    2.3450 c2        1 LUI      0.068000
     19 N18        -4.8640    0.3970    2.6740 n8        1 LUI     -0.370000
     20 N8         -1.8550    0.6360    3.4580 n         1 LUI     -0.238000
     21 C19        -2.5260    0.6520    4.7510 c3        1 LUI     -0.053000
     22 O23        -0.0400    1.6250    4.4520 o         1 LUI     -0.302000
     23 C2          0.2800    0.8630    2.2000 c2        1 LUI     -0.034000
     24 C11        -2.2800   -0.6560    0.0070 c1        1 LUI     -0.174000
     25 C16        -4.3580    4.3850    2.0000 c2        1 LUI     -0.286000
     26 C14        -4.1870   -2.0750   -4.1510 c1        1 LUI     -0.223000
     27 C12        -2.7690   -1.1180   -0.9860 c1        1 LUI     -0.155000
     28 H4         -0.1280    0.1260   -1.0620 ha        1 LUI      0.168000
     29 H6          2.3170   -0.7020    0.7520 h4        1 LUI      0.167000
     30 H13        -3.2050   -1.5360   -1.8670 ha        1 LUI      0.253000
     31 H15        -4.2050   -1.1560   -4.6820 ha        1 LUI      0.225000
     32 H17        -4.0300   -1.0530    1.4060 h1        1 LUI      0.130000
     33 H17A       -3.7930   -1.4000    3.1670 h1        1 LUI      0.130000
     34 H20        -3.8040    2.3500    4.1790 hc        1 LUI      0.020000
     35 H21        -5.0780    0.8890    5.7670 hc        1 LUI      0.094000
     36 H21A       -3.8520    1.2080    7.0610 hc        1 LUI      0.094000
     37 H21B       -4.8780    2.5610    6.4390 hc        1 LUI      0.094000
     38 H22        -1.7660    2.6510    6.4850 hc        1 LUI      0.094000
     39 H22A       -1.6150    3.3150    4.8160 hc        1 LUI      0.094000
     40 H22B       -2.9260    3.9230    5.9210 hc        1 LUI      0.094000
     41 HN27        4.2240    0.3630   -2.2400 hn        1 LUI      0.272667
     42 HN2A        5.7550   -0.2220   -2.6270 hn        1 LUI      0.272667
     43 H25         2.9520   -2.5430   -0.5600 h1        1 LUI      0.171000
     44 H25A        2.5110   -2.4760   -2.3530 h1        1 LUI      0.171000
     45 H1          3.7260    2.0790    2.4550 ha        1 LUI      0.240000
     46 HN18       -4.5430    1.9880    2.1300 ha        1 LUI      0.344000
     47 HN1A       -5.7240    0.0840    2.2580 hn        1 LUI      0.182500
     48 H19        -3.2280   -0.2260    4.8160 h1        1 LUI      0.125000
     49 H19A       -1.7360    0.5010    5.5490 h1        1 LUI      0.125000
     50 H16        -4.7250    5.0220    1.1530 ha        1 LUI      0.299500
     51 H14        -3.9000    5.0400    2.7870 ha        1 LUI      0.299500
     52 H12        -4.1910   -4.0680   -3.0890 ha        1 LUI      0.225000
     53 C17        -3.8110   -0.5640    2.4020 c3        1 LUI     -0.080000
     54 H273        4.4470   -0.5570   -3.6120 hn        1 LUI      0.272667
     55 H183       -5.0060    0.4980    3.6650 hn        1 LUI      0.182500
@<TRIPOS>BOND
     1    1    2 1   
     2    1   17 1   
     3    1   28 1   
     4    2   15 1   
     5    2   29 1   
     6    3   16 1   
     7    3   45 1   
     8    4   20 1   
     9    4   22 1   
    10    4   23 1   
    11    5   17 1   
    12    5   18 1   
    13    5   24 1   
    14    6   26 1   
    15    6   52 1   
    16    7   25 1   
    17    7   46 1   
    18    8    9 1   
    19    8   10 1   
    20    8   21 1   
    21    8   34 1   
    22    9   35 1   
    23    9   36 1   
    24    9   37 1   
    25   10   38 1   
    26   10   39 1   
    27   10   40 1   
    28   11   12 1   
    29   11   13 1   
    30   11   14 1   
    31   13   41 1   
    32   13   42 1   
    33   13   54 1   
    34   14   15 1   
    35   14   43 1   
    36   14   44 1   
    37   16   23 1   
    38   17   23 1   
    39   18   20 1   
    40   18   53 1   
    41   19   47 1   
    42   19   53 1   
    43   19   55 1   
    44   20   21 1   
    45   21   48 1   
    46   21   49 1   
    47   24   27 1   
    48   25   50 1   
    49   25   51 1   
    50   26   31 1   
    51   27   30 1   
    52   32   53 1   
    53   33   53 1   
@<TRIPOS>SUBSTRUCTURE
     1 LUI         1 TEMP              0 ****  ****    0 ROOT
