@<TRIPOS>MOLECULE
LUM
   28    30     1     0     0
SMALL
bcc


@<TRIPOS>ATOM
      1 N1          1.4930   -0.0620   -2.4660 n         1 LUM     -0.538400
      2 C2          0.8160   -0.0310   -3.6960 c         1 LUM      0.819500
      3 C10         0.8160   -0.0330   -1.2460 ca        1 LUM      0.460900
      4 O2          1.4670   -0.0600   -4.7610 o         1 LUM     -0.623500
      5 N3         -0.5850    0.0310   -3.7060 n         1 LUM     -0.590500
      6 C4         -1.3790    0.0660   -2.5540 c         1 LUM      0.620000
      7 O4         -2.6080    0.1210   -2.6800 o         1 LUM     -0.557500
      8 C4A        -0.6530    0.0330   -1.2450 ca        1 LUM      0.229500
      9 N5         -1.3480    0.0640   -0.1150 nb        1 LUM     -0.532000
     10 C5A        -0.6460    0.0320    1.0690 ca        1 LUM      0.246300
     11 C6         -1.3440    0.0620    2.3160 ca        1 LUM     -0.137300
     12 C9A         0.7940   -0.0330    1.0750 ca        1 LUM      0.354300
     13 C7         -0.6580    0.0310    3.5070 ca        1 LUM     -0.080300
     14 C7M        -1.3900    0.0630    4.7950 c3        1 LUM     -0.056800
     15 C8          0.7700   -0.0330    3.5130 ca        1 LUM     -0.035300
     16 C8M         1.4870   -0.0650    4.8100 c3        1 LUM     -0.062800
     17 C9          1.4730   -0.0640    2.3320 ca        1 LUM     -0.187300
     18 N10         1.5150   -0.0640   -0.0960 nb        1 LUM     -0.687000
     19 HN1         2.4900   -0.1070   -2.4930 hn        1 LUM      0.367500
     20 HN3        -1.0290    0.0510   -4.6010 hn        1 LUM      0.361500
     21 HC6        -2.4460    0.1110    2.3030 ha        1 LUM      0.160000
     22 H7M1       -1.1600   -0.8550    5.3930 hc        1 LUM      0.050367
     23 H7M2       -1.0790    0.9560    5.3940 hc        1 LUM      0.050367
     24 H7M3       -2.4950    0.1130    4.6350 hc        1 LUM      0.050367
     25 H8M1        1.2480    0.8520    5.4050 hc        1 LUM      0.053367
     26 H8M2        1.1670   -0.9580    5.4040 hc        1 LUM      0.053367
     27 H8M3        2.5940   -0.1150    4.6650 hc        1 LUM      0.053367
     28 HC9         2.5740   -0.1130    2.3370 ha        1 LUM      0.157000
@<TRIPOS>BOND
     1    1    2 1   
     2    1    3 1   
     3    1   19 1   
     4    2    4 2   
     5    2    5 1   
     6    3    8 ar  
     7    3   18 ar  
     8    5    6 1   
     9    5   20 1   
    10    6    7 2   
    11    6    8 1   
    12    8    9 ar  
    13    9   10 ar  
    14   10   11 ar  
    15   10   12 ar  
    16   11   13 ar  
    17   11   21 1   
    18   12   17 ar  
    19   12   18 ar  
    20   13   14 1   
    21   13   15 ar  
    22   14   22 1   
    23   14   23 1   
    24   14   24 1   
    25   15   16 1   
    26   15   17 ar  
    27   16   25 1   
    28   16   26 1   
    29   16   27 1   
    30   17   28 1   
@<TRIPOS>SUBSTRUCTURE
     1 LUM         1 TEMP              0 ****  ****    0 ROOT
