@<TRIPOS>MOLECULE
LUN
   58    56     1     0     0
SMALL
bcc


@<TRIPOS>ATOM
      1 C1         -0.0340   -0.1040    0.9230 c3        1 LUN     -0.026000
      2 C2         -0.5620    1.3510    1.0260 c2        1 LUN     -0.111000
      3 C3         -0.6210   -0.7270   -0.3120 c3        1 LUN     -0.039000
      4 C4          1.5880   -0.1270    0.8620 c3        1 LUN     -0.068000
      5 C5         -0.3860   -0.8150    2.0250 c3        1 LUN     -0.156000
      6 C6         -1.4510    1.5710   -0.0670 c2        1 LUN      0.054000
      7 C7         -0.3650    2.3540    1.9770 c1        1 LUN     -0.083000
      8 N8         -1.4890    0.2570   -0.9400 n         1 LUN     -0.278000
      9 N9          2.0130   -0.0470    2.1310 n3        1 LUN     -0.254000
     10 C10         0.8340   -0.6790    3.0010 c3        1 LUN     -0.076000
     11 C11        -2.1220    2.7880   -0.1840 c1        1 LUN     -0.165000
     12 C12        -1.0410    3.5770    1.8560 c1        1 LUN     -0.128500
     13 C13        -2.1750    0.0970   -2.1970 c2        1 LUN      0.368000
     14 C14         3.2250   -0.8550    2.2920 c3        1 LUN     -0.014000
     15 C15        -1.9220    3.7950    0.7730 c1        1 LUN     -0.128500
     16 C16        -3.1730    1.1550   -2.6580 c2        1 LUN     -0.081000
     17 O17        -2.0490   -0.9360   -2.8300 o         1 LUN     -0.312000
     18 C18         3.4990   -1.0280    3.7380 c3        1 LUN     -0.157000
     19 C19         4.3780   -0.1690    1.5600 c3        1 LUN     -0.075000
     20 C20        -3.0610    1.4510   -4.0070 c1        1 LUN     -0.121000
     21 N21        -3.8790   -0.0160   -2.5380 n2        1 LUN     -0.189000
     22 C22         4.8050   -1.6810    3.9890 c3        1 LUN     -0.157000
     23 N23         5.6720   -0.8180    1.8170 n3        1 LUN     -0.300000
     24 C24        -3.7030    0.4530   -4.7180 c1        1 LUN     -0.084000
     25 C25        -4.2080   -0.4530   -3.8140 c1        1 LUN      0.001000
     26 C26         5.9500   -0.9920    3.2520 c3        1 LUN     -0.075000
     27 C27        -3.7980    0.1960   -6.1020 c1        1 LUN     -0.109000
     28 C28        -4.8210   -1.6390   -4.2720 c1        1 LUN     -0.124000
     29 C29        -4.4030   -0.9730   -6.5530 c1        1 LUN      0.056000
     30 C30        -4.9140   -1.8910   -5.6380 c1        1 LUN     -0.134000
     31 F31        -4.9440   -1.0720   -7.7790 f         1 LUN     -0.109000
     32 H3          0.1000   -0.9800   -0.9330 h1        1 LUN      0.107500
     33 H3A        -1.1430   -1.5220   -0.0670 h1        1 LUN      0.107500
     34 H4          1.9180    0.6440    0.3460 h1        1 LUN      0.091500
     35 H4A         1.8990   -0.9650    0.4540 h1        1 LUN      0.091500
     36 H5         -1.1960   -0.4330    2.4350 hc        1 LUN      0.096500
     37 H5A        -0.5330   -1.7600    1.7910 hc        1 LUN      0.096500
     38 H7          0.2460    2.2040    2.7280 ha        1 LUN      0.148000
     39 H10         0.6060   -0.0820    3.7470 h1        1 LUN      0.080500
     40 H10A        1.0980   -1.5630    3.3400 h1        1 LUN      0.080500
     41 H11        -2.7330    2.9400   -0.9350 ha        1 LUN      0.149000
     42 H12        -0.9030    4.2830    2.5260 ha        1 LUN      0.136000
     43 H14         3.0740   -1.7400    1.8890 h1        1 LUN      0.076000
     44 H15        -2.3950    4.6520    0.6900 ha        1 LUN      0.136000
     45 H18         3.4960   -0.1450    4.1700 hc        1 LUN      0.086500
     46 H18A        2.7860   -1.5780    4.1340 hc        1 LUN      0.086500
     47 H19         4.1980   -0.1900    0.5940 h1        1 LUN      0.075000
     48 H19A        4.4280    0.7700    1.8550 h1        1 LUN      0.075000
     49 H20        -2.6520    2.2600   -4.3880 DU        1 LUN      0.219000
     50 H22         4.7540   -2.6190    3.6940 hc        1 LUN      0.087500
     51 H22A        4.9900   -1.6610    4.9550 hc        1 LUN      0.087500
     52 HN23        6.3450   -0.3230    1.4320 hn        1 LUN      0.160000
     53 H26         6.7650   -1.5330    3.3550 h1        1 LUN      0.067500
     54 H26A        6.1020   -0.1090    3.6560 h1        1 LUN      0.067500
     55 H27        -3.4370    0.8430   -6.7470 ha        1 LUN      0.155000
     56 H28        -5.1810   -2.2860   -3.6280 ha        1 LUN      0.142000
     57 H30        -5.3410   -2.7160   -5.9570 ha        1 LUN      0.149000
     58 HN21       -4.1340   -0.4130   -1.7500 DU        1 LUN      0.219000
@<TRIPOS>BOND
     1    1    2 1   
     2    1    3 1   
     3    1    4 1   
     4    1    5 1   
     5    2    6 1   
     6    2    7 1   
     7    3    8 1   
     8    3   32 1   
     9    3   33 1   
    10    4    9 1   
    11    4   34 1   
    12    4   35 1   
    13    5   10 1   
    14    5   36 1   
    15    5   37 1   
    16    6    8 1   
    17    6   11 1   
    18    7   38 1   
    19    8   13 1   
    20    9   10 1   
    21    9   14 1   
    22   10   39 1   
    23   10   40 1   
    24   11   41 1   
    25   12   15 1   
    26   12   42 1   
    27   13   16 1   
    28   13   17 1   
    29   14   18 1   
    30   14   19 1   
    31   14   43 1   
    32   15   44 1   
    33   16   20 1   
    34   16   21 1   
    35   18   22 1   
    36   18   45 1   
    37   18   46 1   
    38   19   23 1   
    39   19   47 1   
    40   19   48 1   
    41   20   24 1   
    42   21   25 1   
    43   22   26 1   
    44   22   50 1   
    45   22   51 1   
    46   23   26 1   
    47   23   52 1   
    48   24   27 1   
    49   25   28 1   
    50   26   53 1   
    51   26   54 1   
    52   27   55 1   
    53   28   56 1   
    54   29   30 1   
    55   29   31 1   
    56   30   57 1   
@<TRIPOS>SUBSTRUCTURE
     1 LUN         1 TEMP              0 ****  ****    0 ROOT
