@<TRIPOS>MOLECULE
LUN
   58    63     1     0     0
SMALL
bcc


@<TRIPOS>ATOM
      1 C1         -0.2230    0.3870    0.2640 c3        1 LUN     -0.019700
      2 C2         -0.9800    1.6580    0.0040 ca        1 LUN     -0.122300
      3 C3         -0.7670   -0.5700   -0.8480 c3        1 LUN      0.088000
      4 C4          1.3080    0.5920    0.1560 c3        1 LUN      0.168800
      5 C5         -0.4530   -0.1710    1.6720 c3        1 LUN     -0.077400
      6 C6         -1.8150    1.5060   -1.1440 ca        1 LUN      0.041600
      7 C7         -0.9560    2.8520    0.6990 ca        1 LUN     -0.090000
      8 N8         -1.7150    0.1910   -1.6700 n         1 LUN     -0.364000
      9 N9          1.9380    0.1960    1.4160 n3        1 LUN     -0.728600
     10 C10         0.9390   -0.4860    2.2370 c3        1 LUN      0.160800
     11 C11        -2.6130    2.5630   -1.5830 ca        1 LUN     -0.130000
     12 C12        -1.7630    3.9100    0.2580 ca        1 LUN     -0.151000
     13 C13        -1.9600   -0.1170   -3.0090 c         1 LUN      0.690300
     14 C14         3.1870   -0.5500    1.2490 c3        1 LUN      0.183500
     15 C15        -2.5740    3.7630   -0.8630 ca        1 LUN     -0.109000
     16 C16        -1.6460   -1.4900   -3.4740 cc        1 LUN     -0.131300
     17 O17        -2.4730    0.7060   -3.7880 o         1 LUN     -0.560100
     18 C18         3.8080   -0.9570    2.5960 c3        1 LUN     -0.078400
     19 C19         4.2360    0.3020    0.4780 c3        1 LUN      0.161800
     20 C20        -1.0310   -1.8220   -4.6820 cd        1 LUN     -0.110200
     21 N21        -1.9510   -2.6550   -2.7450 na        1 LUN     -0.173400
     22 C22         5.0970   -1.7150    2.3620 c3        1 LUN     -0.078400
     23 N23         5.4840   -0.4110    0.2900 n3        1 LUN     -0.821200
     24 C24        -0.9770   -3.2640   -4.7450 ca        1 LUN     -0.088800
     25 C25        -1.5950   -3.7530   -3.5330 ca        1 LUN     -0.049200
     26 C26         6.0740   -0.8980    1.5210 c3        1 LUN      0.161800
     27 C27        -0.4810   -4.1630   -5.6880 ca        1 LUN     -0.110000
     28 C28        -1.7180   -5.1310   -3.2880 ca        1 LUN     -0.122000
     29 C29        -0.6110   -5.5310   -5.4260 ca        1 LUN      0.094900
     30 C30        -1.2260   -6.0070   -4.2370 ca        1 LUN     -0.135000
     31 F31        -0.1420   -6.4350   -6.3230 f         1 LUN     -0.142900
     32 H3         -1.3190   -1.4290   -0.3780 h1        1 LUN      0.058200
     33 H3A         0.0650   -0.9800   -1.4800 h1        1 LUN      0.058200
     34 H4          1.5400    1.6820    0.0010 h1        1 LUN      0.052700
     35 H4A         1.7150    0.0230   -0.7270 h1        1 LUN      0.052700
     36 H5         -1.0900   -1.0880    1.6640 hc        1 LUN      0.057200
     37 H5A        -0.9640    0.5950    2.3090 hc        1 LUN      0.057200
     38 H7         -0.3100    2.9710    1.5820 ha        1 LUN      0.144000
     39 H10         1.0900   -1.6030    2.2620 h1        1 LUN      0.041700
     40 H10A        1.0430   -0.1010    3.2870 h1        1 LUN      0.041700
     41 H11        -3.2460    2.4620   -2.4780 ha        1 LUN      0.167000
     42 H12        -1.7500    4.8630    0.8060 ha        1 LUN      0.134000
     43 H14         3.0050   -1.4990    0.6550 h1        1 LUN      0.034700
     44 H15        -3.2000    4.6040   -1.1990 ha        1 LUN      0.136000
     45 H18         4.0090   -0.0410    3.2100 hc        1 LUN      0.046700
     46 H18A        3.0980   -1.6040    3.1740 hc        1 LUN      0.046700
     47 H19         3.8400    0.5460   -0.5480 h1        1 LUN      0.036200
     48 H19A        4.3780    1.2750    1.0340 h1        1 LUN      0.036200
     49 H20        -0.6670   -1.1280   -5.4350 ha        1 LUN      0.174000
     50 H22         5.5810   -1.9490    3.3450 hc        1 LUN      0.048200
     51 H22A        4.8780   -2.6870    1.8490 hc        1 LUN      0.048200
     52 HN23        6.1370    0.1780   -0.1920 hn        1 LUN      0.364800
     53 H26         6.4710   -0.0550    2.1620 h1        1 LUN      0.028200
     54 H26A        6.9490   -1.5480    1.2360 h1        1 LUN      0.028200
     55 H27        -0.0020   -3.8100   -6.6120 ha        1 LUN      0.155000
     56 H28        -2.1920   -5.5040   -2.3700 ha        1 LUN      0.141000
     57 H30        -1.3040   -7.0940   -4.0850 ha        1 LUN      0.150000
     58 HN21       -2.5900   -2.6850   -1.9930 hn        1 LUN      0.302700
@<TRIPOS>BOND
     1    1    2 1   
     2    1    3 1   
     3    1    4 1   
     4    1    5 1   
     5    2    6 ar  
     6    2    7 ar  
     7    3    8 1   
     8    3   32 1   
     9    3   33 1   
    10    4    9 1   
    11    4   34 1   
    12    4   35 1   
    13    5   10 1   
    14    5   36 1   
    15    5   37 1   
    16    6    8 1   
    17    6   11 ar  
    18    7   12 ar  
    19    7   38 1   
    20    8   13 1   
    21    9   10 1   
    22    9   14 1   
    23   10   39 1   
    24   10   40 1   
    25   11   15 ar  
    26   11   41 1   
    27   12   15 ar  
    28   12   42 1   
    29   13   16 1   
    30   13   17 2   
    31   14   18 1   
    32   14   19 1   
    33   14   43 1   
    34   15   44 1   
    35   16   20 2   
    36   16   21 1   
    37   18   22 1   
    38   18   45 1   
    39   18   46 1   
    40   19   23 1   
    41   19   47 1   
    42   19   48 1   
    43   20   24 1   
    44   20   49 1   
    45   21   25 1   
    46   21   58 1   
    47   22   26 1   
    48   22   50 1   
    49   22   51 1   
    50   23   26 1   
    51   23   52 1   
    52   24   25 ar  
    53   24   27 ar  
    54   25   28 ar  
    55   26   53 1   
    56   26   54 1   
    57   27   29 ar  
    58   27   55 1   
    59   28   30 ar  
    60   28   56 1   
    61   29   30 ar  
    62   29   31 1   
    63   30   57 1   
@<TRIPOS>SUBSTRUCTURE
     1 LUN         1 TEMP              0 ****  ****    0 ROOT
