@<TRIPOS>MOLECULE
LUN
   58    63     1     0     0
SMALL
bcc


@<TRIPOS>ATOM
      1 C1         -0.2290    0.3790    0.2650 c3        1 LUN     -0.019700
      2 C2         -0.9870    1.6490    0.0080 ca        1 LUN     -0.122300
      3 C3         -0.7670   -0.5760   -0.8520 c3        1 LUN      0.088000
      4 C4          1.3030    0.5880    0.1610 c3        1 LUN      0.168800
      5 C5         -0.4610   -0.1850    1.6700 c3        1 LUN     -0.077400
      6 C6         -1.8190    1.5000   -1.1420 ca        1 LUN      0.041600
      7 C7         -0.9680    2.8400    0.7080 ca        1 LUN     -0.090000
      8 N8         -1.7160    0.1870   -1.6740 n         1 LUN     -0.364000
      9 N9          1.9300    0.1910    1.4230 n3        1 LUN     -0.728600
     10 C10         0.9310   -0.4970    2.2390 c3        1 LUN      0.160800
     11 C11        -2.6190    2.5560   -1.5790 ca        1 LUN     -0.130000
     12 C12        -1.7760    3.8980    0.2700 ca        1 LUN     -0.151000
     13 C13        -1.9560   -0.1160   -3.0140 c         1 LUN      0.690300
     14 C14         3.1830   -0.5500    1.2590 c3        1 LUN      0.183500
     15 C15        -2.5840    3.7530   -0.8540 ca        1 LUN     -0.109000
     16 C16        -1.6380   -1.4870   -3.4850 cc        1 LUN     -0.131300
     17 O17        -2.4690    0.7080   -3.7910 o         1 LUN     -0.560100
     18 C18         3.8010   -0.9570    2.6070 c3        1 LUN     -0.078400
     19 C19         4.2300    0.3080    0.4920 c3        1 LUN      0.161800
     20 C20        -1.0200   -1.8130   -4.6920 cd        1 LUN     -0.110200
     21 N21        -1.9420   -2.6550   -2.7600 na        1 LUN     -0.173400
     22 C22         5.0930   -1.7090    2.3750 c3        1 LUN     -0.078400
     23 N23         5.4810   -0.3990    0.3070 n3        1 LUN     -0.821200
     24 C24        -0.9620   -3.2540   -4.7610 ca        1 LUN     -0.088800
     25 C25        -1.5810   -3.7490   -3.5520 ca        1 LUN     -0.049200
     26 C26         6.0700   -0.8860    1.5380 c3        1 LUN      0.161800
     27 C27        -0.4630   -4.1480   -5.7070 ca        1 LUN     -0.110000
     28 C28        -1.7010   -5.1290   -3.3130 ca        1 LUN     -0.122000
     29 C29        -0.5900   -5.5170   -5.4510 ca        1 LUN      0.094900
     30 C30        -1.2060   -6.0000   -4.2650 ca        1 LUN     -0.135000
     31 F31        -0.1170   -6.4170   -6.3500 f         1 LUN     -0.142900
     32 H3         -1.3180   -1.4380   -0.3870 h1        1 LUN      0.058200
     33 H3A         0.0680   -0.9810   -1.4840 h1        1 LUN      0.058200
     34 H4          1.5320    1.6790    0.0090 h1        1 LUN      0.052700
     35 H4A         1.7140    0.0210   -0.7210 h1        1 LUN      0.052700
     36 H5         -1.0930   -1.1050    1.6570 hc        1 LUN      0.057200
     37 H5A        -0.9770    0.5760    2.3080 hc        1 LUN      0.057200
     38 H7         -0.3240    2.9580    1.5930 ha        1 LUN      0.144000
     39 H10         1.0300   -0.1140    3.2900 h1        1 LUN      0.041700
     40 H10A        1.0860   -1.6130    2.2620 h1        1 LUN      0.041700
     41 H11        -3.2500    2.4580   -2.4760 ha        1 LUN      0.167000
     42 H12        -1.7660    4.8490    0.8210 ha        1 LUN      0.134000
     43 H14         3.0060   -1.4980    0.6620 h1        1 LUN      0.034700
     44 H15        -3.2110    4.5940   -1.1880 ha        1 LUN      0.136000
     45 H18         3.9960   -0.0410    3.2230 hc        1 LUN      0.046700
     46 H18A        3.0920   -1.6070    3.1810 hc        1 LUN      0.046700
     47 H19         3.8360    0.5520   -0.5350 h1        1 LUN      0.036200
     48 H19A        4.3670    1.2810    1.0500 h1        1 LUN      0.036200
     49 H20        -0.6560   -1.1150   -5.4420 ha        1 LUN      0.174000
     50 H22         4.8800   -2.6810    1.8590 hc        1 LUN      0.048200
     51 H22A        5.5760   -1.9430    3.3590 hc        1 LUN      0.048200
     52 HN23        6.1340    0.1930   -0.1720 hn        1 LUN      0.364800
     53 H26         6.4620   -0.0430    2.1830 h1        1 LUN      0.028200
     54 H26A        6.9490   -1.5320    1.2550 h1        1 LUN      0.028200
     55 H27         0.0170   -3.7900   -6.6280 ha        1 LUN      0.155000
     56 H28        -2.1750   -5.5060   -2.3970 ha        1 LUN      0.141000
     57 H30        -1.2810   -7.0880   -4.1170 ha        1 LUN      0.150000
     58 HN21       -2.5810   -2.6900   -2.0090 hn        1 LUN      0.302700
@<TRIPOS>BOND
     1    1    2 1   
     2    1    3 1   
     3    1    4 1   
     4    1    5 1   
     5    2    6 ar  
     6    2    7 ar  
     7    3    8 1   
     8    3   32 1   
     9    3   33 1   
    10    4    9 1   
    11    4   34 1   
    12    4   35 1   
    13    5   10 1   
    14    5   36 1   
    15    5   37 1   
    16    6    8 1   
    17    6   11 ar  
    18    7   12 ar  
    19    7   38 1   
    20    8   13 1   
    21    9   10 1   
    22    9   14 1   
    23   10   39 1   
    24   10   40 1   
    25   11   15 ar  
    26   11   41 1   
    27   12   15 ar  
    28   12   42 1   
    29   13   16 1   
    30   13   17 2   
    31   14   18 1   
    32   14   19 1   
    33   14   43 1   
    34   15   44 1   
    35   16   20 2   
    36   16   21 1   
    37   18   22 1   
    38   18   45 1   
    39   18   46 1   
    40   19   23 1   
    41   19   47 1   
    42   19   48 1   
    43   20   24 1   
    44   20   49 1   
    45   21   25 1   
    46   21   58 1   
    47   22   26 1   
    48   22   50 1   
    49   22   51 1   
    50   23   26 1   
    51   23   52 1   
    52   24   25 ar  
    53   24   27 ar  
    54   25   28 ar  
    55   26   53 1   
    56   26   54 1   
    57   27   29 ar  
    58   27   55 1   
    59   28   30 ar  
    60   28   56 1   
    61   29   30 ar  
    62   29   31 1   
    63   30   57 1   
@<TRIPOS>SUBSTRUCTURE
     1 LUN         1 TEMP              0 ****  ****    0 ROOT
