@<TRIPOS>MOLECULE
LUN
   58    63     1     0     0
SMALL
bcc


@<TRIPOS>ATOM
      1 C1          1.6900    1.1530    0.7860 c3        1 LUN     -0.019700
      2 C2          1.6880    2.6330    0.5300 ca        1 LUN     -0.122300
      3 C3          0.1690    0.7920    0.7310 c3        1 LUN      0.088000
      4 C4          2.5090    0.3820   -0.2790 c3        1 LUN      0.169800
      5 C5          2.3260    0.7760    2.1280 c3        1 LUN     -0.077400
      6 C6          0.3550    3.0880    0.2920 ca        1 LUN      0.041600
      7 C7          2.7460    3.5220    0.5050 ca        1 LUN     -0.089000
      8 N8         -0.5710    2.0180    0.4090 n         1 LUN     -0.364000
      9 N9          3.5440   -0.4090    0.3870 n3        1 LUN     -0.723600
     10 C10         3.2960   -0.3760    1.8280 c3        1 LUN      0.159800
     11 C11         0.1040    4.4340    0.0250 ca        1 LUN     -0.130000
     12 C12         2.4890    4.8740    0.2420 ca        1 LUN     -0.151000
     13 C13        -1.8040    1.9980   -0.2450 c         1 LUN      0.690300
     14 C14         3.7150   -1.7530   -0.1620 c3        1 LUN      0.149500
     15 C15         1.1910    5.3160    0.0060 ca        1 LUN     -0.108000
     16 C16        -2.5950    0.7430   -0.1940 cc        1 LUN     -0.131300
     17 O17        -2.2620    3.0050   -0.8130 o         1 LUN     -0.559100
     18 C18         4.8040   -2.5500    0.5770 c3        1 LUN     -0.077400
     19 C19         4.1090   -1.6960   -1.6700 c3        1 LUN      0.151800
     20 C20        -3.2750    0.1620   -1.2640 cd        1 LUN     -0.111200
     21 N21        -2.7690   -0.0250    0.9730 na        1 LUN     -0.173400
     22 C22         4.9750   -3.9210   -0.0430 c3        1 LUN     -0.115400
     23 N23         4.3190   -2.9910   -2.2800 n3        1 LUN     -0.796200
     24 C24        -3.9500   -1.0070   -0.7490 ca        1 LUN     -0.088800
     25 C25        -3.6410   -1.0720    0.6620 ca        1 LUN     -0.050200
     26 C26         5.2580   -3.8130   -1.5420 c3        1 LUN      0.148800
     27 C27        -4.7650   -1.9760   -1.3310 ca        1 LUN     -0.111000
     28 C28        -4.1630   -2.0970    1.4700 ca        1 LUN     -0.122000
     29 C29        -5.2720   -2.9890   -0.5120 ca        1 LUN      0.094900
     30 C30        -4.9740   -3.0460    0.8760 ca        1 LUN     -0.136000
     31 F31        -6.0710   -3.9480   -1.0450 f         1 LUN     -0.142900
     32 H3         -0.0360   -0.0060   -0.0320 h1        1 LUN      0.057700
     33 H3A        -0.1760    0.4260    1.7360 h1        1 LUN      0.057700
     34 H4          1.8260   -0.2480   -0.9140 h1        1 LUN      0.052700
     35 H4A         3.0370    1.1090   -0.9570 h1        1 LUN      0.052700
     36 H5          2.8830    1.6520    2.5460 hc        1 LUN      0.057700
     37 H5A         1.5660    0.4630    2.8830 hc        1 LUN      0.057700
     38 H7          3.7730    3.1720    0.6850 ha        1 LUN      0.144000
     39 H10         4.2830   -0.2120    2.3390 h1        1 LUN      0.041700
     40 H10A        2.8630   -1.3420    2.2150 h1        1 LUN      0.041700
     41 H11        -0.9170    4.7910   -0.1790 ha        1 LUN      0.167000
     42 H12         3.3250    5.5880    0.2200 ha        1 LUN      0.135000
     43 H14         2.7470   -2.3410   -0.0790 h1        1 LUN      0.014700
     44 H15         1.0060    6.3810   -0.2030 ha        1 LUN      0.136000
     45 H18         5.7750   -1.9900    0.5260 hc        1 LUN      0.049200
     46 H18A        4.5350   -2.6650    1.6590 hc        1 LUN      0.049200
     47 H19         3.3070   -1.1640   -2.2520 h1        1 LUN      0.060700
     48 H19A        5.0640   -1.1080   -1.7700 h1        1 LUN      0.060700
     49 H20        -3.3010    0.5240   -2.2880 ha        1 LUN      0.174000
     50 H22         5.8270   -4.4530    0.4530 hc        1 LUN      0.044700
     51 H22A        4.0510   -4.5330    0.1270 hc        1 LUN      0.044700
     52 HN23        3.4420   -3.4740   -2.3650 hn        1 LUN      0.348800
     53 H26         6.2820   -3.3650   -1.6850 h1        1 LUN      0.053700
     54 H26A        5.2630   -4.8420   -1.9970 h1        1 LUN      0.053700
     55 H27        -5.0050   -1.9460   -2.4030 ha        1 LUN      0.156000
     56 H28        -3.9340   -2.1450    2.5430 ha        1 LUN      0.141000
     57 H30        -5.4050   -3.8630    1.4730 ha        1 LUN      0.150000
     58 HN21       -2.5960    0.3100    1.8850 hn        1 LUN      0.302700
@<TRIPOS>BOND
     1    1    2 1   
     2    1    3 1   
     3    1    4 1   
     4    1    5 1   
     5    2    6 ar  
     6    2    7 ar  
     7    3    8 1   
     8    3   32 1   
     9    3   33 1   
    10    4    9 1   
    11    4   34 1   
    12    4   35 1   
    13    5   10 1   
    14    5   36 1   
    15    5   37 1   
    16    6    8 1   
    17    6   11 ar  
    18    7   12 ar  
    19    7   38 1   
    20    8   13 1   
    21    9   10 1   
    22    9   14 1   
    23   10   39 1   
    24   10   40 1   
    25   11   15 ar  
    26   11   41 1   
    27   12   15 ar  
    28   12   42 1   
    29   13   16 1   
    30   13   17 2   
    31   14   18 1   
    32   14   19 1   
    33   14   43 1   
    34   15   44 1   
    35   16   20 2   
    36   16   21 1   
    37   18   22 1   
    38   18   45 1   
    39   18   46 1   
    40   19   23 1   
    41   19   47 1   
    42   19   48 1   
    43   20   24 1   
    44   20   49 1   
    45   21   25 1   
    46   21   58 1   
    47   22   26 1   
    48   22   50 1   
    49   22   51 1   
    50   23   26 1   
    51   23   52 1   
    52   24   25 ar  
    53   24   27 ar  
    54   25   28 ar  
    55   26   53 1   
    56   26   54 1   
    57   27   29 ar  
    58   27   55 1   
    59   28   30 ar  
    60   28   56 1   
    61   29   30 ar  
    62   29   31 1   
    63   30   57 1   
@<TRIPOS>SUBSTRUCTURE
     1 LUN         1 TEMP              0 ****  ****    0 ROOT
