@<TRIPOS>MOLECULE
LUN
   58    63     1     0     0
SMALL
bcc


@<TRIPOS>ATOM
      1 C1         -0.2260    0.3840    0.2630 c3        1 LUN     -0.019700
      2 C2         -0.9840    1.6540    0.0030 ca        1 LUN     -0.122300
      3 C3         -0.7670   -0.5730   -0.8500 c3        1 LUN      0.088000
      4 C4          1.3060    0.5920    0.1560 c3        1 LUN      0.168800
      5 C5         -0.4560   -0.1740    1.6710 c3        1 LUN     -0.077400
      6 C6         -1.8180    1.5020   -1.1460 ca        1 LUN      0.041600
      7 C7         -0.9620    2.8490    0.6990 ca        1 LUN     -0.090000
      8 N8         -1.7160    0.1870   -1.6720 n         1 LUN     -0.364000
      9 N9          1.9350    0.1980    1.4170 n3        1 LUN     -0.728600
     10 C10         0.9370   -0.4870    2.2370 c3        1 LUN      0.160800
     11 C11        -2.6170    2.5580   -1.5850 ca        1 LUN     -0.130000
     12 C12        -1.7700    3.9050    0.2570 ca        1 LUN     -0.151000
     13 C13        -1.9590   -0.1210   -3.0110 c         1 LUN      0.690300
     14 C14         3.1860   -0.5460    1.2520 c3        1 LUN      0.183500
     15 C15        -2.5800    3.7570   -0.8650 ca        1 LUN     -0.109000
     16 C16        -1.6430   -1.4940   -3.4770 cc        1 LUN     -0.131300
     17 O17        -2.4720    0.7020   -3.7910 o         1 LUN     -0.560100
     18 C18         3.8060   -0.9510    2.6000 c3        1 LUN     -0.078400
     19 C19         4.2330    0.3080    0.4810 c3        1 LUN      0.161800
     20 C20        -1.0270   -1.8250   -4.6850 cd        1 LUN     -0.110200
     21 N21        -1.9470   -2.6590   -2.7480 na        1 LUN     -0.173400
     22 C22         5.0970   -1.7060    2.3680 c3        1 LUN     -0.078400
     23 N23         5.4830   -0.4030    0.2950 n7        1 LUN     -0.821200
     24 C24        -0.9710   -3.2660   -4.7480 ca        1 LUN     -0.088800
     25 C25        -1.5890   -3.7560   -3.5360 ca        1 LUN     -0.049200
     26 C26         6.0740   -0.8880    1.5270 c3        1 LUN      0.161800
     27 C27        -0.4740   -4.1650   -5.6910 ca        1 LUN     -0.110000
     28 C28        -1.7100   -5.1350   -3.2920 ca        1 LUN     -0.122000
     29 C29        -0.6020   -5.5320   -5.4300 ca        1 LUN      0.094900
     30 C30        -1.2160   -6.0100   -4.2410 ca        1 LUN     -0.135000
     31 F31        -0.1320   -6.4350   -6.3270 f         1 LUN     -0.142900
     32 H3          0.0660   -0.9820   -1.4810 h1        1 LUN      0.058200
     33 H3A        -1.3180   -1.4330   -0.3810 h1        1 LUN      0.058200
     34 H4          1.5360    1.6820    0.0010 h1        1 LUN      0.052700
     35 H4A         1.7140    0.0230   -0.7250 h1        1 LUN      0.052700
     36 H5         -0.9690    0.5910    2.3070 hc        1 LUN      0.057200
     37 H5A        -1.0910   -1.0930    1.6620 hc        1 LUN      0.057200
     38 H7         -0.3170    2.9680    1.5810 ha        1 LUN      0.144000
     39 H10         1.0380   -0.1010    3.2880 h1        1 LUN      0.041700
     40 H10A        1.0900   -1.6030    2.2640 h1        1 LUN      0.041700
     41 H11        -3.2490    2.4560   -2.4810 ha        1 LUN      0.167000
     42 H12        -1.7580    4.8590    0.8050 ha        1 LUN      0.134000
     43 H14         3.0060   -1.4960    0.6580 h1        1 LUN      0.034700
     44 H15        -3.2070    4.5980   -1.2010 ha        1 LUN      0.136000
     45 H18         3.0970   -1.5990    3.1780 hc        1 LUN      0.046700
     46 H18A        4.0050   -0.0340    3.2140 hc        1 LUN      0.046700
     47 H19         3.8380    0.5500   -0.5450 h1        1 LUN      0.036200
     48 H19A        4.3730    1.2810    1.0360 h1        1 LUN      0.036200
     49 H20        -0.6640   -1.1300   -5.4380 ha        1 LUN      0.174000
     50 H22         4.8800   -2.6790    1.8550 hc        1 LUN      0.048200
     51 H22A        5.5810   -1.9390    3.3510 hc        1 LUN      0.048200
     52 HN23        6.1360    0.1870   -0.1870 hn        1 LUN      0.364800
     53 H26         6.9500   -1.5360    1.2430 h1        1 LUN      0.028200
     54 H26A        6.4680   -0.0440    2.1680 h1        1 LUN      0.028200
     55 H27         0.0040   -3.8100   -6.6150 ha        1 LUN      0.155000
     56 H28        -2.1830   -5.5080   -2.3730 ha        1 LUN      0.141000
     57 H30        -1.2930   -7.0970   -4.0900 ha        1 LUN      0.150000
     58 HN21       -2.5850   -2.6900   -1.9960 hn        1 LUN      0.302700
@<TRIPOS>BOND
     1    1    2 1   
     2    1    3 1   
     3    1    4 1   
     4    1    5 1   
     5    2    6 ar  
     6    2    7 ar  
     7    3    8 1   
     8    3   32 1   
     9    3   33 1   
    10    4    9 1   
    11    4   34 1   
    12    4   35 1   
    13    5   10 1   
    14    5   36 1   
    15    5   37 1   
    16    6    8 1   
    17    6   11 ar  
    18    7   12 ar  
    19    7   38 1   
    20    8   13 1   
    21    9   10 1   
    22    9   14 1   
    23   10   39 1   
    24   10   40 1   
    25   11   15 ar  
    26   11   41 1   
    27   12   15 ar  
    28   12   42 1   
    29   13   16 1   
    30   13   17 2   
    31   14   18 1   
    32   14   19 1   
    33   14   43 1   
    34   15   44 1   
    35   16   20 2   
    36   16   21 1   
    37   18   22 1   
    38   18   45 1   
    39   18   46 1   
    40   19   23 1   
    41   19   47 1   
    42   19   48 1   
    43   20   24 1   
    44   20   49 1   
    45   21   25 1   
    46   21   58 1   
    47   22   26 1   
    48   22   50 1   
    49   22   51 1   
    50   23   26 1   
    51   23   52 1   
    52   24   25 ar  
    53   24   27 ar  
    54   25   28 ar  
    55   26   53 1   
    56   26   54 1   
    57   27   29 ar  
    58   27   55 1   
    59   28   30 ar  
    60   28   56 1   
    61   29   30 ar  
    62   29   31 1   
    63   30   57 1   
@<TRIPOS>SUBSTRUCTURE
     1 LUN         1 TEMP              0 ****  ****    0 ROOT
