@<TRIPOS>MOLECULE
LUR
   32    33     1     0     0
SMALL
bcc


@<TRIPOS>ATOM
      1 OAB         1.1760    0.9380    0.6090 o         1 LUR     -0.835300
      2 CAN         0.9150   -0.2830    0.3810 c         1 LUR      0.918600
      3 OAC         0.1510   -0.9840    1.0940 o         1 LUR     -0.835300
      4 CAL         1.6210   -0.9650   -0.8150 c3        1 LUR     -0.176100
      5 CAR         1.0410   -0.5890   -2.1280 ca        1 LUR     -0.041300
      6 CAK         0.2210   -1.4980   -2.7940 ca        1 LUR     -0.115000
      7 CAO        -0.3400   -1.2150   -4.0450 ca        1 LUR     -0.122300
      8 CAA        -1.2140   -2.2100   -4.7060 c3        1 LUR     -0.035800
      9 CAI        -0.0700    0.0160   -4.6410 ca        1 LUR     -0.126000
     10 CAJ         0.7320    0.9520   -3.9960 ca        1 LUR     -0.181000
     11 CAS         1.3000    0.6760   -2.7360 ca        1 LUR      0.159600
     12 NAM         2.0960    1.6090   -2.0480 nh        1 LUR     -0.636000
     13 CAT         2.5900    2.7680   -2.6250 ca        1 LUR      0.173600
     14 CAQ         2.5020    4.0220   -1.9520 ca        1 LUR     -0.036600
     15 CLE         1.6790    4.1350   -0.4720 cl        1 LUR     -0.055400
     16 CAH         3.0800    5.1790   -2.4730 ca        1 LUR     -0.118000
     17 CAF         3.7540    5.1470   -3.6890 ca        1 LUR     -0.162000
     18 CAG         3.8690    3.9490   -4.3820 ca        1 LUR     -0.150000
     19 CAP         3.3160    2.7690   -3.8620 ca        1 LUR      0.069900
     20 FAD         3.4970    1.6210   -4.5610 f         1 LUR     -0.137900
     21 H2          2.7070   -0.6900   -0.7770 hc        1 LUR      0.042700
     22 H3          1.5440   -2.0740   -0.6700 hc        1 LUR      0.042700
     23 H4          0.0030   -2.4660   -2.3140 ha        1 LUR      0.132000
     24 H5         -0.7300   -3.2180   -4.7100 hc        1 LUR      0.028367
     25 H6         -1.4320   -1.9200   -5.7630 hc        1 LUR      0.028367
     26 H7         -2.1860   -2.2950   -4.1580 hc        1 LUR      0.028367
     27 H8         -0.4980    0.2580   -5.6240 ha        1 LUR      0.110000
     28 H9          0.9250    1.9180   -4.4860 ha        1 LUR      0.122000
     29 H10         1.9370    1.6210   -1.0380 hn        1 LUR      0.513800
     30 H14         2.9940    6.1260   -1.9180 ha        1 LUR      0.135000
     31 H15         4.1970    6.0650   -4.0990 ha        1 LUR      0.124000
     32 H16         4.4080    3.9040   -5.3400 ha        1 LUR      0.133000
@<TRIPOS>BOND
     1    1    2 1   
     2    2    3 1   
     3    2    4 1   
     4    4    5 1   
     5    4   21 1   
     6    4   22 1   
     7    5    6 ar  
     8    5   11 ar  
     9    6    7 ar  
    10    6   23 1   
    11    7    8 1   
    12    7    9 ar  
    13    8   24 1   
    14    8   25 1   
    15    8   26 1   
    16    9   10 ar  
    17    9   27 1   
    18   10   11 ar  
    19   10   28 1   
    20   11   12 1   
    21   12   13 1   
    22   12   29 1   
    23   13   14 ar  
    24   13   19 ar  
    25   14   15 1   
    26   14   16 ar  
    27   16   17 ar  
    28   16   30 1   
    29   17   18 ar  
    30   17   31 1   
    31   18   19 ar  
    32   18   32 1   
    33   19   20 1   
@<TRIPOS>SUBSTRUCTURE
     1 LUR         1 TEMP              0 ****  ****    0 ROOT
