@<TRIPOS>MOLECULE
LUR
   32    33     1     0     0
SMALL
bcc


@<TRIPOS>ATOM
      1 OAB         1.1740    0.9430    0.6080 o         1 LUR     -0.835300
      2 CAN         0.9020   -0.2750    0.3820 c         1 LUR      0.918600
      3 OAC         0.1310   -0.9680    1.0950 o         1 LUR     -0.835300
      4 CAL         1.6020   -0.9650   -0.8130 c3        1 LUR     -0.176100
      5 CAR         1.0260   -0.5840   -2.1260 ca        1 LUR     -0.041300
      6 CAK         0.1980   -1.4870   -2.7930 ca        1 LUR     -0.115000
      7 CAO        -0.3600   -1.2000   -4.0430 ca        1 LUR     -0.122300
      8 CAA        -1.2440   -2.1870   -4.7050 c3        1 LUR     -0.035800
      9 CAI        -0.0780    0.0280   -4.6410 ca        1 LUR     -0.126000
     10 CAJ         0.7320    0.9570   -3.9970 ca        1 LUR     -0.181000
     11 CAS         1.2970    0.6770   -2.7360 ca        1 LUR      0.159600
     12 NAM         2.1010    1.6030   -2.0490 nu        1 LUR     -0.636000
     13 CAT         2.6070    2.7580   -2.6260 ca        1 LUR      0.173600
     14 CAQ         2.5300    4.0120   -1.9550 ca        1 LUR     -0.036600
     15 ClE         1.7070    4.1350   -0.4750 cl        1 LUR     -0.055400
     16 CAH         3.1190    5.1630   -2.4760 ca        1 LUR     -0.118000
     17 CAF         3.7920    5.1250   -3.6920 ca        1 LUR     -0.162000
     18 CAG         3.8970    3.9250   -4.3840 ca        1 LUR     -0.150000
     19 CAP         3.3320    2.7510   -3.8630 ca        1 LUR      0.069900
     20 FAD         3.5040    1.6000   -4.5610 f         1 LUR     -0.137900
     21 H2          2.6900   -0.7000   -0.7750 hc        1 LUR      0.042700
     22 H3          1.5140   -2.0730   -0.6670 hc        1 LUR      0.042700
     23 H4         -0.0300   -2.4520   -2.3120 ha        1 LUR      0.132000
     24 H5         -0.7770   -3.2030   -4.6930 hc        1 LUR      0.028367
     25 H6         -1.4460   -1.9040   -5.7670 hc        1 LUR      0.028367
     26 H7         -2.2230   -2.2490   -4.1660 hc        1 LUR      0.028367
     27 H8         -0.5030    0.2730   -5.6250 ha        1 LUR      0.110000
     28 H9          0.9340    1.9210   -4.4870 ha        1 LUR      0.122000
     29 H10         1.9420    1.6180   -1.0390 hn        1 LUR      0.513800
     30 H14         3.0410    6.1120   -1.9220 ha        1 LUR      0.135000
     31 H15         4.2440    6.0380   -4.1020 ha        1 LUR      0.124000
     32 H16         4.4350    3.8740   -5.3410 ha        1 LUR      0.133000
@<TRIPOS>BOND
     1    1    2 1   
     2    2    3 1   
     3    2    4 1   
     4    4    5 1   
     5    4   21 1   
     6    4   22 1   
     7    5    6 ar  
     8    5   11 ar  
     9    6    7 ar  
    10    6   23 1   
    11    7    8 1   
    12    7    9 ar  
    13    8   24 1   
    14    8   25 1   
    15    8   26 1   
    16    9   10 ar  
    17    9   27 1   
    18   10   11 ar  
    19   10   28 1   
    20   11   12 1   
    21   12   13 1   
    22   12   29 1   
    23   13   14 ar  
    24   13   19 ar  
    25   14   15 1   
    26   14   16 ar  
    27   16   17 ar  
    28   16   30 1   
    29   17   18 ar  
    30   17   31 1   
    31   18   19 ar  
    32   18   32 1   
    33   19   20 1   
@<TRIPOS>SUBSTRUCTURE
     1 LUR         1 TEMP              0 ****  ****    0 ROOT
