@<TRIPOS>MOLECULE
LUR
   32    25     1     0     0
SMALL
bcc


@<TRIPOS>ATOM
      1 OAB        -1.1400    0.6770    4.3530 o         1 LUR     -0.574500
      2 CAN        -0.0080    0.9440    3.8690 c1        1 LUR      0.333000
      3 OAC         1.0130    0.9240    4.6050 o         1 LUR     -0.574500
      4 CAL         0.1290    1.2550    2.3940 c2        1 LUR     -0.214000
      5 CAR        -0.2460    0.0350    1.5840 c2        1 LUR     -0.033000
      6 CAK        -0.4330   -1.1840    2.2160 c2        1 LUR     -0.088000
      7 CAO        -0.8440   -2.2880    1.4850 c1        1 LUR     -0.108000
      8 CAA        -0.9990   -3.6310    2.1670 c2        1 LUR     -0.165000
      9 CAI        -1.0680   -2.1730    0.1220 c2        1 LUR     -0.133000
     10 CAJ        -0.8810   -0.9530   -0.5100 c1        1 LUR     -0.176000
     11 CAS        -0.4700    0.1500    0.2210 c1        1 LUR      0.018000
     12 NAM        -0.2140    1.3800   -0.4370 n2        1 LUR     -0.231000
     13 CAT         0.3480    1.3840   -1.7380 c2        1 LUR      0.047000
     14 CAQ        -0.1960    2.1900   -2.7250 c1        1 LUR     -0.095000
     15 CLE        -1.5830    3.1860   -2.3710 cl        1 LUR     -0.007000
     16 CAH         0.3840    2.2320   -3.9830 c1        1 LUR     -0.127000
     17 CAF         1.5090    1.4690   -4.2540 c1        1 LUR     -0.147500
     18 CAG         2.0530    0.6630   -3.2670 c1        1 LUR     -0.147500
     19 CAP         1.4730    0.6210   -2.0090 c1        1 LUR      0.088000
     20 FAD         2.0180   -0.1340   -1.0460 f         1 LUR     -0.089000
     21 H2         -0.4650    1.9970    2.1600 ha        1 LUR      0.080000
     22 H3          1.0550    1.5050    2.1980 ha        1 LUR      0.080000
     23 H4         -0.2550   -1.2700    3.1720 ha        1 LUR      0.191000
     24 H5         -1.2040   -3.4950    3.1150 ha        1 LUR      0.071667
     25 H6         -1.7290   -4.1300    1.7430 ha        1 LUR      0.071667
     26 H7         -0.1650   -4.1390    2.0820 ha        1 LUR      0.071667
     27 H8         -1.3840   -2.9430   -0.3870 ha        1 LUR      0.110000
     28 H9         -1.0640   -0.8660   -1.4650 ha        1 LUR      0.115000
     29 H10        -0.3980    2.1690   -0.0170 hn        1 LUR      0.220000
     30 H14         0.0000    2.8000   -4.6780 ha        1 LUR      0.141000
     31 H15         1.9170    1.4990   -5.1400 ha        1 LUR      0.136500
     32 H16         2.8450    0.1260   -3.4580 ha        1 LUR      0.136500
@<TRIPOS>BOND
     1    1    2 1   
     2    2    3 1   
     3    4    5 1   
     4    4   21 1   
     5    4   22 1   
     6    5    6 1   
     7    5   11 1   
     8    6    7 1   
     9    6   23 1   
    10    7    9 1   
    11    8   24 1   
    12    8   25 1   
    13    8   26 1   
    14    9   10 1   
    15    9   27 1   
    16   10   28 1   
    17   12   13 1   
    18   12   29 1   
    19   13   14 1   
    20   13   19 1   
    21   14   16 1   
    22   16   30 1   
    23   17   18 1   
    24   17   31 1   
    25   18   32 1   
@<TRIPOS>SUBSTRUCTURE
     1 LUR         1 TEMP              0 ****  ****    0 ROOT
