@<TRIPOS>MOLECULE
LUR
   33    34     1     0     0
SMALL
bcc


@<TRIPOS>ATOM
      1 OAB         0.2680    0.9600    0.3720 oh        1 LUR     -0.580100
      2 CAN         1.1610    0.0140   -0.0310 c         1 LUR      0.634100
      3 OAC         1.3070   -0.9100    0.7700 o         1 LUR     -0.503000
      4 CAL         1.8890    0.1760   -1.3390 c3        1 LUR     -0.129100
      5 CAR         0.9590    0.1110   -2.5010 ca        1 LUR     -0.088300
      6 CAK         0.5550   -1.1590   -2.9300 ca        1 LUR     -0.105000
      7 CAO        -0.3330   -1.3270   -3.9930 ca        1 LUR     -0.079300
      8 CAA        -0.7380   -2.6830   -4.4300 c3        1 LUR     -0.054800
      9 CAI        -0.8280   -0.1910   -4.6440 ca        1 LUR     -0.105000
     10 CAJ        -0.4290    1.0770   -4.2470 ca        1 LUR     -0.154000
     11 CAS         0.4720    1.2570   -3.1710 ca        1 LUR      0.102600
     12 NAM         0.7730    2.5730   -2.7200 nh        1 LUR     -0.606000
     13 CAT         2.1090    3.0500   -2.8430 ca        1 LUR      0.052600
     14 CAQ         2.6970    3.7170   -1.7420 ca        1 LUR      0.039400
     15 CLE         1.8190    3.9540   -0.3070 cl        1 LUR     -0.063400
     16 CAH         4.0040    4.2070   -1.8030 ca        1 LUR     -0.137000
     17 CAF         4.7590    4.0460   -2.9620 ca        1 LUR     -0.096000
     18 CAG         4.2140    3.4140   -4.0720 ca        1 LUR     -0.159000
     19 CAP         2.8940    2.9300   -4.0250 ca        1 LUR      0.115900
     20 FAD         2.3770    2.3490   -5.1330 f         1 LUR     -0.128900
     21 H2          2.6470   -0.6520   -1.4170 hc        1 LUR      0.086700
     22 H3          2.4570    1.1440   -1.3050 hc        1 LUR      0.086700
     23 H4          0.9420   -2.0470   -2.4020 ha        1 LUR      0.146000
     24 H5         -0.7160   -3.4030   -3.5750 hc        1 LUR      0.048367
     25 H6         -0.0350   -3.0540   -5.2180 hc        1 LUR      0.048367
     26 H7         -1.7700   -2.6730   -4.8590 hc        1 LUR      0.048367
     27 H8         -1.5340   -0.3040   -5.4800 ha        1 LUR      0.138000
     28 H9         -0.8250    1.9530   -4.7840 ha        1 LUR      0.135000
     29 H10         0.1920    1.6510   -0.3040 ho        1 LUR      0.443000
     30 H14         4.4380    4.7200   -0.9300 ha        1 LUR      0.158000
     31 H15         5.7920    4.4270   -3.0000 ha        1 LUR      0.149000
     32 H16         4.7960    3.2910   -4.9970 ha        1 LUR      0.157000
     33 HAM2        0.1330    3.2470   -3.1030 hn        1 LUR      0.403800
@<TRIPOS>BOND
     1    1    2 1   
     2    1   29 1   
     3    2    3 2   
     4    2    4 1   
     5    4    5 1   
     6    4   21 1   
     7    4   22 1   
     8    5    6 ar  
     9    5   11 ar  
    10    6    7 ar  
    11    6   23 1   
    12    7    8 1   
    13    7    9 ar  
    14    8   24 1   
    15    8   25 1   
    16    8   26 1   
    17    9   10 ar  
    18    9   27 1   
    19   10   11 ar  
    20   10   28 1   
    21   11   12 1   
    22   12   13 1   
    23   12   33 1   
    24   13   14 ar  
    25   13   19 ar  
    26   14   15 1   
    27   14   16 ar  
    28   16   17 ar  
    29   16   30 1   
    30   17   18 ar  
    31   17   31 1   
    32   18   19 ar  
    33   18   32 1   
    34   19   20 1   
@<TRIPOS>SUBSTRUCTURE
     1 LUR         1 TEMP              0 ****  ****    0 ROOT
