@<TRIPOS>MOLECULE
LUR
   32    33     1     0     0
SMALL
bcc


@<TRIPOS>ATOM
      1 OAB        -0.2250   -2.9750    0.1960 o         1 LUR     -0.835300
      2 CAN         0.9660   -3.0790    0.6210 c         1 LUR      0.918600
      3 OAC         1.7110   -4.0680    0.3940 o         1 LUR     -0.835300
      4 CAL         1.5180   -1.9460    1.5180 c3        1 LUR     -0.176100
      5 CAR         1.8890   -0.7270    0.7570 ca        1 LUR     -0.041300
      6 CAK         3.2370   -0.4570    0.5210 ca        1 LUR     -0.115000
      7 CAO         3.6560    0.6860   -0.1700 ca        1 LUR     -0.122300
      8 CAA         5.0980    0.9210   -0.4070 c3        1 LUR     -0.035800
      9 CAI         2.6940    1.5810   -0.6370 ca        1 LUR     -0.126000
     10 CAJ         1.3410    1.3330   -0.4320 ca        1 LUR     -0.181000
     11 CAS         0.9090    0.1850    0.2620 ca        1 LUR      0.159600
     12 NAM        -0.4510   -0.1060    0.4660 nh        1 LUR     -0.636000
     13 CAT        -1.4730    0.8000    0.2270 ca        1 LUR      0.173600
     14 CAQ        -2.6460    0.4160   -0.4860 ca        1 LUR     -0.036600
     15 CLE        -2.7600   -1.1370   -1.1610 cl        1 LUR     -0.055400
     16 CAH        -3.7240    1.2840   -0.6500 ca        1 LUR     -0.118000
     17 CAF        -3.6800    2.5740   -0.1320 ca        1 LUR     -0.162000
     18 CAG        -2.5590    2.9950    0.5730 ca        1 LUR     -0.150000
     19 CAP        -1.4740    2.1270    0.7700 ca        1 LUR      0.069900
     20 FAD        -0.4260    2.5780    1.5040 f         1 LUR     -0.137900
     21 H2          0.7390   -1.7020    2.2850 hc        1 LUR      0.042700
     22 H3          2.4170   -2.3440    2.0570 hc        1 LUR      0.042700
     23 H4          3.9920   -1.1720    0.8840 ha        1 LUR      0.132000
     24 H5          5.4810    0.2120   -1.1840 hc        1 LUR      0.028367
     25 H6          5.2850    1.9640   -0.7620 hc        1 LUR      0.028367
     26 H7          5.6830    0.7570    0.5310 hc        1 LUR      0.028367
     27 H8          3.0000    2.4860   -1.1800 ha        1 LUR      0.110000
     28 H9          0.6010    2.0520   -0.8150 ha        1 LUR      0.122000
     29 H10        -0.6780   -1.0990    0.3800 hn        1 LUR      0.513800
     30 H14        -4.6140    0.9460   -1.2030 ha        1 LUR      0.135000
     31 H15        -4.5280    3.2570   -0.2750 ha        1 LUR      0.124000
     32 H16        -2.5110    4.0070    0.9990 ha        1 LUR      0.133000
@<TRIPOS>BOND
     1    1    2 1   
     2    2    3 1   
     3    2    4 1   
     4    4    5 1   
     5    4   21 1   
     6    4   22 1   
     7    5    6 ar  
     8    5   11 ar  
     9    6    7 ar  
    10    6   23 1   
    11    7    8 1   
    12    7    9 ar  
    13    8   24 1   
    14    8   25 1   
    15    8   26 1   
    16    9   10 ar  
    17    9   27 1   
    18   10   11 ar  
    19   10   28 1   
    20   11   12 1   
    21   12   13 1   
    22   12   29 1   
    23   13   14 ar  
    24   13   19 ar  
    25   14   15 1   
    26   14   16 ar  
    27   16   17 ar  
    28   16   30 1   
    29   17   18 ar  
    30   17   31 1   
    31   18   19 ar  
    32   18   32 1   
    33   19   20 1   
@<TRIPOS>SUBSTRUCTURE
     1 LUR         1 TEMP              0 ****  ****    0 ROOT
