@<TRIPOS>MOLECULE
LUT
   98    95     1     0     0
SMALL
bcc


@<TRIPOS>ATOM
      1 C1         -0.1930    0.5360    0.0730 c2        1 LUT     -0.090000
      2 C2          0.8740   -0.4960   -0.0390 c3        1 LUT     -0.157000
      3 C3          1.3690   -1.0240    1.3100 c3        1 LUT      0.062000
      4 C4          1.3160   -0.0100    2.4050 c2        1 LUT     -0.215000
      5 C5          0.4720    1.0380    2.3670 c2        1 LUT     -0.056000
      6 C6         -0.3660    1.2560    1.1980 c2        1 LUT     -0.154000
      7 C7         -3.3870    2.6380    0.5540 c1        1 LUT      0.173000
      8 C8         -4.5340    2.1190    0.9390 c2        1 LUT     -0.424000
      9 C9         -5.8160    2.7920    1.0490 c2        1 LUT     -0.055000
     10 C10        -6.9180    2.1190    1.4310 c2        1 LUT     -0.137000
     11 C11        -8.2510    2.7550    1.5620 c3        1 LUT     -0.202000
     12 C12        -9.2240    1.8800    2.2080 c1        1 LUT      0.006000
     13 C13       -10.4810    2.4590    2.7170 c3        1 LUT     -0.209000
     14 C14       -10.7590    3.7960    2.2020 c1        1 LUT     -0.104000
     15 C15       -12.0430    4.1920    1.7430 c2        1 LUT     -0.185000
     16 C16        -1.0080    0.7570   -1.1420 c3        1 LUT     -0.194000
     17 C17         1.6390    1.4230   -3.6750 c3        1 LUT     -0.276000
     18 C18         0.3520    2.0140    3.4740 c3        1 LUT     -0.179000
     19 C19        -5.8460    4.2440    0.7340 c3        1 LUT     -0.185000
     20 C20       -11.5970    1.4310    2.6450 c3        1 LUT     -0.205000
     21 O3          2.6730   -1.5720    1.1730 oh        1 LUT     -0.324000
     22 C21       -19.9720   12.0050   -6.7770 c2        1 LUT     -0.101000
     23 C22       -20.8650   12.5880   -7.5820 c2        1 LUT     -0.218000
     24 C23       -22.0320   12.6520   -3.5020 c2        1 LUT      0.057000
     25 C24       -21.2350   11.7640   -4.0360 c1        1 LUT     -0.323000
     26 C25       -20.4050   10.9090   -4.5690 c2        1 LUT      0.012000
     27 C26       -20.2710   10.7350   -6.0510 c3        1 LUT     -0.101000
     28 C27       -18.1240   10.4610   -3.6710 c3        1 LUT     -0.193000
     29 C28       -17.2520    9.4180   -3.1540 c1        1 LUT     -0.081000
     30 C29       -15.9900    9.7180   -2.5590 c2        1 LUT     -0.206000
     31 C30       -15.3510    8.6780   -1.9620 c2        1 LUT      0.030000
     32 C31       -14.0530    8.8090   -1.2560 c3        1 LUT     -0.229000
     33 C32       -13.6910    7.5960   -0.5330 c1        1 LUT     -0.026000
     34 C33       -12.4380    7.5300    0.2240 c3        1 LUT     -0.122000
     35 C34       -12.6430    6.7250    1.4700 c2        1 LUT     -0.119000
     36 C35       -12.3360    5.4660    1.5750 c1        1 LUT      0.022000
     37 C37       -18.3660    6.9270   -5.3640 c3        1 LUT     -0.276000
     38 C38       -19.5710    9.9960   -3.7270 c3        1 LUT     -0.114000
     39 C39       -15.4110   11.0860   -2.5760 c3        1 LUT     -0.203000
     40 C40       -11.7650    8.8450    0.5710 c3        1 LUT     -0.233000
     41 O23       -23.3480   12.4390   -3.1660 oh        1 LUT     -0.263000
     42 H21         1.9470    0.8520   -2.7720 hc        1 LUT      0.069125
     43 H22         1.7380   -0.0480   -0.6050 hc        1 LUT      0.095500
     44 H3          0.5050   -1.3650   -0.6460 hc        1 LUT      0.095500
     45 H41         0.7440   -1.9170    1.6190 h1        1 LUT      0.119000
     46 H42         1.9790   -0.2040    3.2610 ha        1 LUT      0.136000
     47 H7         -1.1370    2.0440    1.2650 ha        1 LUT      0.147000
     48 H8         -4.5320    1.0400    1.2140 ha        1 LUT      0.194000
     49 H10        -6.8800    1.0430    1.6680 ha        1 LUT      0.144000
     50 H11        -8.1660    3.7540    2.0860 hc        1 LUT      0.136000
     51 H12        -8.6550    2.9950    0.5300 hc        1 LUT      0.136000
     52 H14       -10.2350    2.6370    3.8240 hc        1 LUT      0.186000
     53 H15       -12.8210    3.4380    1.4940 ha        1 LUT      0.129000
     54 H161       -1.7640    1.5690   -0.9820 hc        1 LUT      0.088333
     55 H162       -1.5480   -0.1820   -1.4220 hc        1 LUT      0.088333
     56 H163       -0.3470    1.0470   -1.9990 hc        1 LUT      0.088333
     57 H171        0.8450    0.8600   -4.2150 hc        1 LUT      0.069125
     58 H172        2.5150    1.5610   -4.3440 hc        1 LUT      0.069125
     59 H173        1.2450    2.4160   -3.3690 hc        1 LUT      0.069125
     60 H181        0.5720    3.0460    3.1020 hc        1 LUT      0.083667
     61 H182       -0.6910    2.0060    3.8800 hc        1 LUT      0.083667
     62 H183        1.0580    1.7770    4.3060 hc        1 LUT      0.083667
     63 H191       -6.7280    4.4860    0.0890 hc        1 LUT      0.084333
     64 H192       -5.9370    4.8380    1.6790 hc        1 LUT      0.084333
     65 H193       -4.9200    4.5710    0.2000 hc        1 LUT      0.084333
     66 H201      -11.2560    0.4620    3.0840 hc        1 LUT      0.081000
     67 H202      -12.4910    1.7920    3.2070 hc        1 LUT      0.081000
     68 H203      -11.8920    1.2500    1.5840 hc        1 LUT      0.081000
     69 HO3         3.2730   -0.8410    0.9820 ho        1 LUT      0.197000
     70 H221      -19.1720    6.2910   -4.9390 hc        1 LUT      0.069125
     71 H222      -20.6450   13.5130   -8.1300 ha        1 LUT      0.113000
     72 H23       -21.8710   12.1800   -7.7410 ha        1 LUT      0.113000
     73 H24       -21.7490   13.6880   -3.2490 h4        1 LUT      0.171000
     74 H26       -21.2280   10.2870   -6.4390 hc        1 LUT      0.096500
     75 H27       -17.7600   10.6760   -4.7230 hc        1 LUT      0.103500
     76 H28       -18.0650   11.4330   -3.1060 hc        1 LUT      0.103500
     77 H30       -15.8020    7.6680   -1.9690 ha        1 LUT      0.173000
     78 H31       -14.0930    9.6910   -0.5460 hc        1 LUT      0.135000
     79 H32       -13.2490    9.0630   -2.0130 hc        1 LUT      0.135000
     80 H34       -11.7540    6.9500   -0.4810 hc        1 LUT      0.154000
     81 H35       -13.0880    7.2720    2.3210 ha        1 LUT      0.160000
     82 H361      -18.4390   12.7460   -5.4780 hc        1 LUT      0.080000
     83 H362      -18.4710   13.5200   -7.1200 hc        1 LUT      0.080000
     84 H363      -17.8410   11.8300   -6.9240 hc        1 LUT      0.080000
     85 H371      -18.8010    7.6160   -6.1220 hc        1 LUT      0.069125
     86 H372      -17.8940    7.5240   -4.5470 hc        1 LUT      0.069125
     87 H373      -17.6010    6.2820   -5.8470 hc        1 LUT      0.069125
     88 H381      -19.4500    9.9960   -6.2680 hc        1 LUT      0.096500
     89 H382      -19.6100    8.9560   -4.1550 hc        1 LUT      0.102500
     90 H383      -19.9800    9.9470   -2.6840 hc        1 LUT      0.102500
     91 H391      -15.7820   11.6610   -3.4600 hc        1 LUT      0.077000
     92 H392      -14.2940   11.0590   -2.6280 hc        1 LUT      0.077000
     93 H393      -15.7040   11.6420   -1.6510 hc        1 LUT      0.077000
     94 H401      -12.4250    9.4650    1.2240 hc        1 LUT      0.083667
     95 H402      -11.5400    9.4210   -0.3590 hc        1 LUT      0.083667
     96 H403      -10.8070    8.6600    1.1140 hc        1 LUT      0.083667
     97 H1        -23.5900   11.5320   -3.4000 ho        1 LUT      0.216000
     98 C36       -18.6120   12.5590   -6.5680 c3        1 LUT     -0.184000
@<TRIPOS>BOND
     1    1    2 1   
     2    1    6 1   
     3    1   16 1   
     4    2    3 1   
     5    2   43 1   
     6    2   44 1   
     7    3    4 1   
     8    3   21 1   
     9    3   45 1   
    10    4    5 1   
    11    4   46 1   
    12    5    6 1   
    13    5   18 1   
    14    6   47 1   
    15    7    8 1   
    16    8    9 1   
    17    8   48 1   
    18    9   10 1   
    19    9   19 1   
    20   10   11 1   
    21   10   49 1   
    22   11   12 1   
    23   11   50 1   
    24   11   51 1   
    25   12   13 1   
    26   13   14 1   
    27   13   20 1   
    28   13   52 1   
    29   14   15 1   
    30   15   36 1   
    31   15   53 1   
    32   16   54 1   
    33   16   55 1   
    34   16   56 1   
    35   17   42 1   
    36   17   57 1   
    37   17   58 1   
    38   17   59 1   
    39   18   60 1   
    40   18   61 1   
    41   18   62 1   
    42   19   63 1   
    43   19   64 1   
    44   19   65 1   
    45   20   66 1   
    46   20   67 1   
    47   20   68 1   
    48   21   69 1   
    49   22   23 1   
    50   22   27 1   
    51   22   98 1   
    52   23   71 1   
    53   23   72 1   
    54   24   25 1   
    55   24   41 1   
    56   24   73 1   
    57   25   26 1   
    58   26   27 1   
    59   26   38 1   
    60   27   74 1   
    61   27   88 1   
    62   28   29 1   
    63   28   38 1   
    64   28   75 1   
    65   28   76 1   
    66   29   30 1   
    67   30   31 1   
    68   30   39 1   
    69   31   32 1   
    70   31   77 1   
    71   32   33 1   
    72   32   78 1   
    73   32   79 1   
    74   33   34 1   
    75   34   35 1   
    76   34   40 1   
    77   34   80 1   
    78   35   36 1   
    79   35   81 1   
    80   37   70 1   
    81   37   85 1   
    82   37   86 1   
    83   37   87 1   
    84   38   89 1   
    85   38   90 1   
    86   39   91 1   
    87   39   92 1   
    88   39   93 1   
    89   40   94 1   
    90   40   95 1   
    91   40   96 1   
    92   41   97 1   
    93   82   98 1   
    94   83   98 1   
    95   84   98 1   
@<TRIPOS>SUBSTRUCTURE
     1 LUT         1 TEMP              0 ****  ****    0 ROOT
