@<TRIPOS>MOLECULE
LUT
   98    99     1     0     0
SMALL
bcc


@<TRIPOS>ATOM
      1 C1         -9.7440   22.5710   98.1610 c3        1 LUT     -0.007800
      2 C2         -9.4250   22.0770   96.7490 c3        1 LUT     -0.069400
      3 C3         -9.3980   20.5580   96.6890 c3        1 LUT      0.142100
      4 C4         -8.3190   20.0070   97.6130 c3        1 LUT     -0.078200
      5 C5         -8.3020   20.6680   98.9470 c2        1 LUT     -0.096400
      6 C6         -8.9220   21.8420   99.1980 ce        1 LUT     -0.082200
      7 C7         -8.8910   22.4930  100.5040 ce        1 LUT     -0.113000
      8 C8         -7.7780   22.6920  101.2300 cf        1 LUT     -0.134000
      9 C9         -7.7440   23.3630  102.5230 cf        1 LUT     -0.065200
     10 C10        -6.5590   23.8080  103.0000 ce        1 LUT     -0.133000
     11 C11        -6.3590   24.5130  104.2430 ce        1 LUT     -0.124000
     12 C12        -5.1360   24.8950  104.6610 cf        1 LUT     -0.126000
     13 C13        -4.8680   25.6150  105.8970 cf        1 LUT     -0.065200
     14 C14        -3.6110   26.0600  106.1340 ce        1 LUT     -0.130000
     15 C15        -3.1700   26.8000  107.2890 ce        1 LUT     -0.123000
     16 C16       -11.2280   22.3690   98.4540 c3        1 LUT     -0.085100
     17 C17        -9.4340   24.0660   98.2040 c3        1 LUT     -0.085100
     18 C18        -7.5180   19.9280   99.9670 c3        1 LUT     -0.064900
     19 C19        -9.0330   23.5220  103.2380 c3        1 LUT     -0.062900
     20 C20        -6.0090   25.8170  106.8220 c3        1 LUT     -0.062900
     21 O3         -9.1310   20.2090   95.3350 oh        1 LUT     -0.599800
     22 C21         4.1010   34.3420  114.9500 c3        1 LUT     -0.041000
     23 C22         4.4040   34.9950  116.2970 c3        1 LUT     -0.068400
     24 C23         5.6150   34.3560  116.9670 c3        1 LUT      0.178300
     25 C24         5.5300   32.8660  116.9570 c2        1 LUT     -0.217200
     26 C25         4.7400   32.1790  116.1210 c2        1 LUT     -0.085400
     27 C26         3.7960   32.8420  115.1610 c3        1 LUT      0.006700
     28 C27         3.7760   32.1230  113.8520 c2        1 LUT     -0.145200
     29 C28         2.6450   31.7550  113.2350 ce        1 LUT     -0.141000
     30 C29         2.5920   31.0600  111.9540 ce        1 LUT     -0.065200
     31 C30         1.4620   30.4050  111.6060 cf        1 LUT     -0.134000
     32 C31         1.2660   29.6490  110.3930 cf        1 LUT     -0.124000
     33 C32         0.0870   29.0720  110.0880 ce        1 LUT     -0.125000
     34 C33        -0.1730   28.2990  108.8830 ce        1 LUT     -0.066200
     35 C34        -1.4440   27.9190  108.6110 cf        1 LUT     -0.130000
     36 C35        -1.8840   27.1730  107.4600 cf        1 LUT     -0.123000
     37 C37         2.8680   35.0180  114.3600 c3        1 LUT     -0.090100
     38 C38         4.7040   30.6950  116.1330 c3        1 LUT     -0.061900
     39 C39         3.8060   31.1140  111.1040 c3        1 LUT     -0.062900
     40 C40         0.9910   27.9790  108.0220 c3        1 LUT     -0.062900
     41 O23         5.6630   34.8800  118.2910 oh        1 LUT     -0.597800
     42 H21       -10.1910   22.4640   96.0290 hc        1 LUT      0.058200
     43 H22        -8.4270   22.4710   96.4250 hc        1 LUT      0.058200
     44 H3        -10.4030   20.1390   96.9810 h1        1 LUT      0.037700
     45 H41        -8.4720   18.9010   97.7370 hc        1 LUT      0.055200
     46 H42        -7.3140   20.1510   97.1300 hc        1 LUT      0.055200
     47 H7         -9.8720   22.8520  100.8630 ha        1 LUT      0.128000
     48 H8         -6.7980   22.3580  100.8430 ha        1 LUT      0.127000
     49 H10        -5.6450   23.6370  102.4000 ha        1 LUT      0.122000
     50 H11        -7.2550   24.7430  104.8430 ha        1 LUT      0.127000
     51 H12        -4.2490   24.6680  104.0430 ha        1 LUT      0.123000
     52 H14        -2.8250   25.8520  105.3830 ha        1 LUT      0.121000
     53 H15        -3.9260   27.0680  108.0470 ha        1 LUT      0.125000
     54 H161      -11.4970   22.8200   99.4390 hc        1 LUT      0.037533
     55 H162      -11.8420   22.8600   97.6610 hc        1 LUT      0.037533
     56 H163      -11.4790   21.2820   98.4820 hc        1 LUT      0.037533
     57 H171       -9.7450   24.5040   99.1830 hc        1 LUT      0.037533
     58 H172       -8.3410   24.2410   98.0670 hc        1 LUT      0.037533
     59 H173       -9.9870   24.5900   97.3880 hc        1 LUT      0.037533
     60 H181       -7.8500   20.1800  101.0050 hc        1 LUT      0.045033
     61 H182       -7.6250   18.8240   99.8250 hc        1 LUT      0.045033
     62 H183       -6.4330   20.1870   99.8730 hc        1 LUT      0.045033
     63 H191       -8.8860   23.6810  104.3340 hc        1 LUT      0.045033
     64 H192       -9.5920   24.4000  102.8260 hc        1 LUT      0.045033
     65 H193       -9.6690   22.6100  103.1090 hc        1 LUT      0.045033
     66 H201       -5.6900   26.2330  107.8070 hc        1 LUT      0.045033
     67 H202       -6.7480   26.5230  106.3660 hc        1 LUT      0.045033
     68 H203       -6.5260   24.8420  107.0130 hc        1 LUT      0.045033
     69 HO3        -9.0590   19.2480   95.3060 ho        1 LUT      0.398000
     70 H221        4.5970   36.0890  116.1530 hc        1 LUT      0.057700
     71 H222        3.5170   34.8940  116.9750 hc        1 LUT      0.057700
     72 H23         6.5600   34.6660  116.4280 h1        1 LUT      0.038700
     73 H24         6.1740   32.3500  117.6870 ha        1 LUT      0.123000
     74 H26         2.7710   32.7790  115.6370 hc        1 LUT      0.063700
     75 H27         4.7680   31.9160  113.4180 ha        1 LUT      0.128000
     76 H28         1.6650   31.9640  113.7000 ha        1 LUT      0.124000
     77 H30         0.5970   30.4260  112.2960 ha        1 LUT      0.122000
     78 H31         2.1310   29.5540  109.7140 ha        1 LUT      0.127000
     79 H32        -0.7710   29.1800  110.7760 ha        1 LUT      0.123000
     80 H34        -2.2440   28.2010  109.3220 ha        1 LUT      0.121000
     81 H35        -1.1290   26.9100  106.7000 ha        1 LUT      0.125000
     82 H361        4.9760   34.2500  112.9570 hc        1 LUT      0.038033
     83 H362        5.5940   35.6020  113.9950 hc        1 LUT      0.038033
     84 H363        6.1350   33.8970  114.3070 hc        1 LUT      0.038033
     85 H371        2.5440   34.4840  113.4340 hc        1 LUT      0.038033
     86 H372        2.0250   35.0050  115.0920 hc        1 LUT      0.038033
     87 H373        3.1000   36.0790  114.1030 hc        1 LUT      0.038033
     88 H381        3.6500   30.3370  116.2470 hc        1 LUT      0.045033
     89 H382        5.1060   30.2920  115.1700 hc        1 LUT      0.045033
     90 H383        5.3130   30.2770  116.9720 hc        1 LUT      0.045033
     91 H391        3.5630   30.9680  110.0230 hc        1 LUT      0.044700
     92 H392        4.3160   32.1040  111.2090 hc        1 LUT      0.044700
     93 H393        4.5260   30.3140  111.4150 hc        1 LUT      0.044700
     94 H401        0.7430   27.2290  107.2340 hc        1 LUT      0.045367
     95 H402        1.3590   28.9090  107.5180 hc        1 LUT      0.045367
     96 H403        1.8260   27.5620  108.6410 hc        1 LUT      0.045367
     97 H1          6.3470   34.3910  118.7630 ho        1 LUT      0.399000
     98 C36         5.2710   34.5330  113.9970 c3        1 LUT     -0.090100
@<TRIPOS>BOND
     1    1    2 1   
     2    1    6 1   
     3    1   16 1   
     4    1   17 1   
     5    2    3 1   
     6    2   42 1   
     7    2   43 1   
     8    3    4 1   
     9    3   21 1   
    10    3   44 1   
    11    4    5 1   
    12    4   45 1   
    13    4   46 1   
    14    5    6 2   
    15    5   18 1   
    16    6    7 1   
    17    7    8 2   
    18    7   47 1   
    19    8    9 1   
    20    8   48 1   
    21    9   10 2   
    22    9   19 1   
    23   10   11 1   
    24   10   49 1   
    25   11   12 2   
    26   11   50 1   
    27   12   13 1   
    28   12   51 1   
    29   13   14 2   
    30   13   20 1   
    31   14   15 1   
    32   14   52 1   
    33   15   36 2   
    34   15   53 1   
    35   16   54 1   
    36   16   55 1   
    37   16   56 1   
    38   17   57 1   
    39   17   58 1   
    40   17   59 1   
    41   18   60 1   
    42   18   61 1   
    43   18   62 1   
    44   19   63 1   
    45   19   64 1   
    46   19   65 1   
    47   20   66 1   
    48   20   67 1   
    49   20   68 1   
    50   21   69 1   
    51   22   23 1   
    52   22   27 1   
    53   22   37 1   
    54   22   98 1   
    55   23   24 1   
    56   23   70 1   
    57   23   71 1   
    58   24   25 1   
    59   24   41 1   
    60   24   72 1   
    61   25   26 2   
    62   25   73 1   
    63   26   27 1   
    64   26   38 1   
    65   27   28 1   
    66   27   74 1   
    67   28   29 2   
    68   28   75 1   
    69   29   30 1   
    70   29   76 1   
    71   30   31 2   
    72   30   39 1   
    73   31   32 1   
    74   31   77 1   
    75   32   33 2   
    76   32   78 1   
    77   33   34 1   
    78   33   79 1   
    79   34   35 2   
    80   34   40 1   
    81   35   36 1   
    82   35   80 1   
    83   36   81 1   
    84   37   85 1   
    85   37   86 1   
    86   37   87 1   
    87   38   88 1   
    88   38   89 1   
    89   38   90 1   
    90   39   91 1   
    91   39   92 1   
    92   39   93 1   
    93   40   94 1   
    94   40   95 1   
    95   40   96 1   
    96   41   97 1   
    97   82   98 1   
    98   83   98 1   
    99   84   98 1   
@<TRIPOS>SUBSTRUCTURE
     1 LUT         1 TEMP              0 ****  ****    0 ROOT
