@<TRIPOS>MOLECULE
LUT
   98   122     1     0     0
SMALL
bcc


@<TRIPOS>ATOM
      1 C1          0.0000    0.0000    0.0000 DU        1 LUT      0.147000
      2 C2          1.5450    0.0000    0.0000 DU        1 LUT     -0.389000
      3 C3          2.2830    0.0000    1.3390 DU        1 LUT     -0.018000
      4 C4          1.5200    0.6860    2.4710 c3        1 LUT     -0.566000
      5 C5          0.0290    0.6070    2.4860 c3        1 LUT     -0.023000
      6 C6         -0.7060    0.2950    1.3610 c3        1 LUT     -0.302000
      7 C7         -2.1800    0.2220    1.4080 c3        1 LUT     -0.304000
      8 C8         -3.0570    1.2450    1.4070 c2        1 LUT     -0.256000
      9 C9         -4.5060    1.1430    1.5940 c3        1 LUT     -0.090000
     10 C10        -5.2470    2.2650    1.4530 c3        1 LUT     -0.209000
     11 C11        -6.6790    2.3720    1.5810 c3        1 LUT     -0.011000
     12 C12        -7.3060    3.5010    1.2180 c2        1 LUT     -0.005000
     13 C13        -8.7390    3.8290    1.2150 c2        1 LUT     -0.159000
     14 C14        -9.0930    5.0180    0.6800 c3        1 LUT     -0.136000
     15 C15       -10.4070    5.5570    0.4730 c2        1 LUT     -0.012000
     16 C16        -0.4610   -1.3570   -0.5650 c3        1 LUT     -0.367000
     17 C17        -0.3630    1.0850   -1.0310 c3        1 LUT     -0.391000
     18 C18        -0.4210    0.9040    3.8730 c3        1 LUT     -0.312000
     19 C19        -5.0760   -0.2200    1.8790 c3        1 LUT     -0.484000
     20 C20        -9.7080    2.8050    1.7270 c3        1 LUT     -0.121000
     21 O3          3.5700    0.5820    1.1950 oh        1 LUT     -0.397000
     22 C21       -20.9450   10.2650   -6.0460 DU        1 LUT     -0.006000
     23 C22       -22.4480   10.4320   -6.3550 DU        1 LUT     -0.253000
     24 C23       -23.1600   11.5340   -5.5670 DU        1 LUT     -0.085000
     25 C24       -22.6340   11.7060   -4.1370 c2        1 LUT     -0.459000
     26 C25       -21.4790   11.1640   -3.6930 DU        1 LUT     -0.227000
     27 C26       -20.5440   10.3040   -4.5340 c2        1 LUT     -0.540000
     28 C27       -18.6070   11.9420   -2.6760 c2        1 LUT      0.010000
     29 C28       -17.7050   11.0150   -2.2560 c2        1 LUT     -0.318000
     30 C29       -16.2320   11.1050   -2.2850 DU        1 LUT     -0.111000
     31 C30       -15.5210   10.0620   -1.8040 c3        1 LUT     -0.282000
     32 C31       -14.0880    9.9340   -1.7380 c3        1 LUT     -0.300000
     33 C32       -13.5240    8.8350   -1.1990 c2        1 LUT     -0.062000
     34 C33       -12.1050    8.4970   -1.0080 c2        1 LUT     -0.146000
     35 C34       -11.8230    7.3150   -0.4190 c3        1 LUT     -0.110000
     36 C35       -10.5360    6.7510   -0.1280 c2        1 LUT     -0.039000
     37 C37       -20.5300    8.9120   -6.6400 c3        1 LUT     -0.281000
     38 C38       -21.1940   11.4600   -2.2640 c3        1 LUT     -0.160000
     39 C39       -15.6130   12.3560   -2.8380 c3        1 LUT     -0.450000
     40 C40       -11.0720    9.4890   -1.4740 c3        1 LUT     -0.166000
     41 O23       -24.5620   11.2960   -5.5560 oh        1 LUT     -0.425000
     42 H21         0.6440    0.5580   -0.2240 DU        1 LUT      0.296000
     43 H22         1.8690   -0.8760   -0.5480 ha        1 LUT      0.178000
     44 H3          2.0730    0.4490    0.3750 DU        1 LUT      0.224000
     45 H41         1.9800   -0.1960    2.0410 DU        1 LUT      0.178000
     46 H42         1.8760    0.2640    3.4030 hc        1 LUT      0.154000
     47 H7         -1.1970    0.5980    1.6670 DU        1 LUT      0.189000
     48 H8         -2.1960    0.8620    0.8730 DU        1 LUT      0.138000
     49 H10        -4.5120    1.5630    1.0770 DU        1 LUT      0.153000
     50 H11        -5.9080    2.0130    2.2520 DU        1 LUT      0.056000
     51 H12        -6.5270    3.0920    1.8510 DU        1 LUT      0.135000
     52 H14        -8.6020    4.2590    1.2780 hc        1 LUT      0.057000
     53 H15        -9.8950    5.1860    1.3520 DU        1 LUT      0.118000
     54 H161       -1.3070   -0.7030   -0.3940 hc        1 LUT      0.176000
     55 H162       -1.5430   -1.3960   -0.5730 hc        1 LUT      0.176000
     56 H163       -0.0880   -1.4730   -1.5750 hc        1 LUT      0.176000
     57 H171       -0.2720    0.0620   -0.6870 DU        1 LUT      0.200000
     58 H172        0.3370    1.0480   -1.8570 hc        1 LUT      0.133000
     59 H173       -0.3160    2.0600   -0.5610 hc        1 LUT      0.133000
     60 H181       -0.6130    0.9050    2.8070 DU        1 LUT      0.190000
     61 H182       -0.0940    0.1120    4.5360 hc        1 LUT      0.110000
     62 H183        0.0050    1.8450    4.1980 hc        1 LUT      0.110000
     63 H191       -4.1700    0.0820    2.3910 hc        1 LUT      0.190333
     64 H192       -5.0010   -0.4280    2.9400 hc        1 LUT      0.190333
     65 H193       -6.1170   -0.2460    1.5790 hc        1 LUT      0.190333
     66 H201       -8.8340    2.1690    1.6590 hc        1 LUT      0.078333
     67 H202       -9.9150    2.9940    2.7740 hc        1 LUT      0.078333
     68 H203      -10.6290    2.8640    1.1610 hc        1 LUT      0.078333
     69 HO3         2.6320    0.6720    1.2260 DU        1 LUT      0.300000
     70 H221      -21.4740   10.0600   -6.0610 ha        1 LUT      0.212500
     71 H222      -22.9430    9.4920   -6.1440 ha        1 LUT      0.212500
     72 H23       -22.8530   11.0860   -6.5040 DU        1 LUT      0.201000
     73 H24       -22.8130   12.0960   -5.1320 DU        1 LUT      0.221000
     74 H26       -21.5510   10.3160   -4.1340 DU        1 LUT      0.086000
     75 H27       -18.9050   11.0040   -3.1290 ha        1 LUT      0.293000
     76 H28       -18.1110   12.0190   -2.2900 DU        1 LUT      0.128000
     77 H30       -16.6050   10.0730   -1.8220 DU        1 LUT      0.246000
     78 H31       -14.7610   10.2070   -2.5420 DU        1 LUT      0.271000
     79 H32       -14.2220    9.1830   -1.9510 DU        1 LUT      0.212000
     80 H34       -12.2280    8.0690   -1.0820 hc        1 LUT      0.076000
     81 H35       -10.9290    7.2560   -1.0020 DU        1 LUT      0.132000
     82 H361      -19.4070   10.9300   -6.2420 hc        1 LUT      0.126000
     83 H362      -20.0140   12.3480   -6.4030 hc        1 LUT      0.126000
     84 H363      -19.1430   11.3210   -7.0940 hc        1 LUT      0.126000
     85 H371      -20.5170    9.9090   -7.0630 DU        1 LUT      0.223000
     86 H372      -20.9370    8.1110   -6.0340 hc        1 LUT      0.106500
     87 H373      -19.4490    8.8400   -6.6550 hc        1 LUT      0.106500
     88 H381      -21.1430   10.9850   -3.2370 DU        1 LUT      0.296000
     89 H382      -22.1200   11.4580   -1.7030 hc        1 LUT      0.109000
     90 H383      -20.7240   12.4330   -2.1830 hc        1 LUT      0.109000
     91 H391      -16.5330   12.2690   -2.2730 DU        1 LUT      0.282000
     92 H392      -14.5670   12.3960   -2.5560 hc        1 LUT      0.139000
     93 H393      -16.1280   13.2210   -2.4380 hc        1 LUT      0.139000
     94 H401      -11.9120   10.0090   -1.9190 hc        1 LUT      0.086333
     95 H402      -10.1720    9.3780   -0.8820 hc        1 LUT      0.086333
     96 H403      -10.8420    9.3080   -2.5170 hc        1 LUT      0.086333
     97 H1        -23.6530   11.1820   -5.3340 DU        1 LUT      0.314000
     98 C36       -20.1950   11.3730   -6.8380 c3        1 LUT     -0.324000
@<TRIPOS>BOND
     1    1    2 1   
     2    1    6 1   
     3    1   16 1   
     4    1   17 1   
     5    1   42 1   
     6    1   57 1   
     7    2    3 1   
     8    2   42 1   
     9    2   43 1   
    10    2   44 1   
    11    3    4 1   
    12    3   21 1   
    13    3   44 1   
    14    3   45 1   
    15    3   69 1   
    16    4    5 1   
    17    4   45 1   
    18    4   46 1   
    19    5    6 1   
    20    5   18 1   
    21    5   60 1   
    22    6    7 1   
    23    6   47 1   
    24    7    8 1   
    25    7   47 1   
    26    7   48 1   
    27    8    9 1   
    28    8   48 1   
    29    9   10 1   
    30    9   19 1   
    31    9   49 1   
    32   10   11 1   
    33   10   49 1   
    34   10   50 1   
    35   11   12 1   
    36   11   50 1   
    37   11   51 1   
    38   12   13 1   
    39   12   51 1   
    40   13   14 1   
    41   13   20 1   
    42   14   15 1   
    43   14   52 1   
    44   14   53 1   
    45   15   36 1   
    46   15   53 1   
    47   16   54 1   
    48   16   55 1   
    49   16   56 1   
    50   17   57 1   
    51   17   58 1   
    52   17   59 1   
    53   18   60 1   
    54   18   61 1   
    55   18   62 1   
    56   19   63 1   
    57   19   64 1   
    58   19   65 1   
    59   20   66 1   
    60   20   67 1   
    61   20   68 1   
    62   21   69 1   
    63   22   23 1   
    64   22   27 1   
    65   22   37 1   
    66   22   85 1   
    67   22   98 1   
    68   23   24 1   
    69   23   70 1   
    70   23   71 1   
    71   23   72 1   
    72   24   25 1   
    73   24   41 1   
    74   24   72 1   
    75   24   73 1   
    76   24   97 1   
    77   25   26 1   
    78   25   73 1   
    79   26   27 1   
    80   26   38 1   
    81   26   74 1   
    82   26   88 1   
    83   27   74 1   
    84   28   29 1   
    85   28   75 1   
    86   28   76 1   
    87   29   30 1   
    88   29   76 1   
    89   30   31 1   
    90   30   39 1   
    91   30   77 1   
    92   30   91 1   
    93   31   32 1   
    94   31   77 1   
    95   31   78 1   
    96   32   33 1   
    97   32   78 1   
    98   32   79 1   
    99   33   34 1   
   100   33   79 1   
   101   34   35 1   
   102   34   40 1   
   103   35   36 1   
   104   35   80 1   
   105   35   81 1   
   106   36   81 1   
   107   37   85 1   
   108   37   86 1   
   109   37   87 1   
   110   38   88 1   
   111   38   89 1   
   112   38   90 1   
   113   39   91 1   
   114   39   92 1   
   115   39   93 1   
   116   40   94 1   
   117   40   95 1   
   118   40   96 1   
   119   41   97 1   
   120   82   98 1   
   121   83   98 1   
   122   84   98 1   
@<TRIPOS>SUBSTRUCTURE
     1 LUT         1 TEMP              0 ****  ****    0 ROOT
