@<TRIPOS>MOLECULE
LUV
   75    79     1     0     0
SMALL
bcc


@<TRIPOS>ATOM
      1 O2          2.3310   -6.8000   -4.9550 o         1 LUV     -0.683500
      2 C30         3.1100   -5.9790   -4.4200 c         1 LUV      0.771500
      3 N3          4.5240   -6.0260   -4.5530 n         1 LUV     -0.546900
      4 C           5.1060   -4.8630   -3.8770 c3        1 LUV      0.048700
      5 N2          2.6910   -4.7800   -3.8050 n         1 LUV     -0.554900
      6 C29         3.8530   -4.0110   -3.3690 c3        1 LUV      0.055700
      7 C2          3.9280   -2.6020   -3.9650 c3        1 LUV      0.024400
      8 S           4.9070   -2.7300   -5.4770 ss        1 LUV     -0.332200
      9 C1          5.9490   -4.0130   -4.8200 c3        1 LUV     -0.008300
     10 C3          2.6050   -1.9320   -4.2440 c3        1 LUV     -0.074400
     11 C4          2.7790   -0.5540   -4.8600 c3        1 LUV     -0.105400
     12 C5          1.8840   -0.3210   -6.0580 c3        1 LUV     -0.085400
     13 C6          2.3430   -1.0520   -7.3110 c3        1 LUV     -0.151400
     14 C7          1.7990   -2.4520   -7.3550 c         1 LUV      0.553100
     15 O           0.6350   -2.8060   -7.2670 o         1 LUV     -0.415100
     16 N           2.8320   -3.5570   -7.5330 n4        1 LUV     -0.725800
     17 C8          2.2160   -4.9030   -7.5770 c3        1 LUV      0.072800
     18 C9          3.2010   -5.9990   -8.0260 c3        1 LUV      0.094800
     19 N1          2.6440   -7.3600   -7.8480 n4        1 LUV     -0.694800
     20 C10         3.6600   -8.4220   -8.3300 c         1 LUV      0.617700
     21 O1          4.6160   -8.5570   -7.5880 o         1 LUV     -0.414100
     22 C11         3.2830   -9.0790   -9.5810 ca        1 LUV     -0.210600
     23 C16         2.0490   -9.7640   -9.6530 cp        1 LUV      0.032000
     24 C17         1.1270   -9.8000   -8.5140 cp        1 LUV     -0.129500
     25 C22        -0.0880   -9.1000   -8.5770 ca        1 LUV     -0.124500
     26 C21        -1.0020   -9.1900   -7.5290 ca        1 LUV     -0.122750
     27 C20        -0.7150   -9.9830   -6.4160 ca        1 LUV     -0.098500
     28 C19         0.4880  -10.6860   -6.3520 ca        1 LUV     -0.122750
     29 C18         1.4090  -10.5980   -7.3970 ca        1 LUV     -0.124500
     30 C15         1.7120  -10.4400  -10.8280 ca        1 LUV     -0.113500
     31 C14         2.5840  -10.4320  -11.9190 ca        1 LUV     -0.052000
     32 C13         3.7910   -9.7430  -11.8490 ca        1 LUV     -0.113500
     33 C12         4.1630   -9.0620  -10.6800 cp        1 LUV      0.032000
     34 C23         5.4390   -8.3420  -10.6710 cp        1 LUV     -0.129500
     35 C28         6.4730   -8.7120   -9.8020 ca        1 LUV     -0.124500
     36 C27         7.7080   -8.0660   -9.8700 ca        1 LUV     -0.122750
     37 C26         7.9180   -7.0500  -10.8020 ca        1 LUV     -0.098500
     38 C25         6.8910   -6.6790  -11.6710 ca        1 LUV     -0.122750
     39 C24         5.6580   -7.3250  -11.6130 ca        1 LUV     -0.124500
     40 H3          4.9650   -6.9090   -4.4120 hn        1 LUV      0.345500
     41 H2          1.8670   -4.7820   -3.2470 hn        1 LUV      0.356500
     42 H           5.7330   -5.1770   -2.9950 h1        1 LUV      0.109700
     43 H29         3.8790   -3.9280   -2.2440 h1        1 LUV      0.108700
     44 H11C        6.3950   -4.5960   -5.6600 h1        1 LUV      0.115200
     45 H12C        6.7870   -3.5360   -4.2510 h1        1 LUV      0.115200
     46 HA          4.5220   -1.9580   -3.2590 h1        1 LUV      0.123700
     47 H31C        2.0430   -1.8430   -3.2720 hc        1 LUV      0.061200
     48 H32C        1.9710   -2.5710   -4.9160 hc        1 LUV      0.061200
     49 H41C        2.5350    0.2260   -4.0870 hc        1 LUV      0.080700
     50 H42C        3.8520   -0.3850   -5.1540 hc        1 LUV      0.080700
     51 H51C        0.8240   -0.6000   -5.8160 hc        1 LUV      0.092700
     52 H52C        1.8910    0.7800   -6.2960 hc        1 LUV      0.092700
     53 H61C        1.9240   -0.5270   -8.2190 hc        1 LUV      0.110200
     54 H62C        3.4640   -1.0260   -7.3820 hc        1 LUV      0.110200
     55 HB          3.5500   -3.4730   -6.7110 hn        1 LUV      0.471300
     56 H81C        1.8160   -5.1310   -6.5410 hx        1 LUV      0.129200
     57 H82C        1.3330   -4.8710   -8.2840 hx        1 LUV      0.129200
     58 H91C        3.4590   -5.8650   -9.1170 hx        1 LUV      0.116700
     59 H92C        4.1550   -5.9490   -7.4200 hx        1 LUV      0.116700
     60 H1          1.7650   -7.4720   -8.3730 hn        1 LUV      0.480300
     61 H15         0.7580  -10.9910  -10.8830 ha        1 LUV      0.177000
     62 H22        -0.3410   -8.5210   -9.4790 ha        1 LUV      0.146000
     63 H18         2.3400  -11.1850   -7.3580 ha        1 LUV      0.146000
     64 H21        -1.9630   -8.6560   -7.5920 ha        1 LUV      0.157250
     65 H20        -1.4490  -10.0690   -5.5980 ha        1 LUV      0.160000
     66 H19         0.7060  -11.3300   -5.4850 ha        1 LUV      0.157250
     67 H14         2.3140  -10.9790  -12.8400 ha        1 LUV      0.176000
     68 H13         4.4790   -9.7370  -12.7130 ha        1 LUV      0.177000
     69 H28         6.3210   -9.5290   -9.0780 ha        1 LUV      0.146000
     70 H24         4.8640   -7.0590  -12.3260 ha        1 LUV      0.146000
     71 H27         8.5240   -8.3790   -9.2000 ha        1 LUV      0.157250
     72 H26         8.9010   -6.5550  -10.8670 ha        1 LUV      0.160000
     73 H25         7.0630   -5.8920  -12.4220 ha        1 LUV      0.157250
     74 HN3         3.3390   -3.3760   -8.4030 hn        1 LUV      0.471300
     75 H12         2.4460   -7.5270   -6.8450 hn        1 LUV      0.480300
@<TRIPOS>BOND
     1    1    2 2   
     2    2    3 1   
     3    2    5 1   
     4    3    4 1   
     5    3   40 1   
     6    4    6 1   
     7    4    9 1   
     8    4   42 1   
     9    5    6 1   
    10    5   41 1   
    11    6    7 1   
    12    6   43 1   
    13    7    8 1   
    14    7   10 1   
    15    7   46 1   
    16    8    9 1   
    17    9   44 1   
    18    9   45 1   
    19   10   11 1   
    20   10   47 1   
    21   10   48 1   
    22   11   12 1   
    23   11   49 1   
    24   11   50 1   
    25   12   13 1   
    26   12   51 1   
    27   12   52 1   
    28   13   14 1   
    29   13   53 1   
    30   13   54 1   
    31   14   15 2   
    32   14   16 1   
    33   16   17 1   
    34   16   55 1   
    35   16   74 1   
    36   17   18 1   
    37   17   56 1   
    38   17   57 1   
    39   18   19 1   
    40   18   58 1   
    41   18   59 1   
    42   19   20 1   
    43   19   60 1   
    44   19   75 1   
    45   20   21 2   
    46   20   22 1   
    47   22   23 ar  
    48   22   33 ar  
    49   23   24 1   
    50   23   30 ar  
    51   24   25 ar  
    52   24   29 ar  
    53   25   26 ar  
    54   25   62 1   
    55   26   27 ar  
    56   26   64 1   
    57   27   28 ar  
    58   27   65 1   
    59   28   29 ar  
    60   28   66 1   
    61   29   63 1   
    62   30   31 ar  
    63   30   61 1   
    64   31   32 ar  
    65   31   67 1   
    66   32   33 ar  
    67   32   68 1   
    68   33   34 1   
    69   34   35 ar  
    70   34   39 ar  
    71   35   36 ar  
    72   35   69 1   
    73   36   37 ar  
    74   36   71 1   
    75   37   38 ar  
    76   37   72 1   
    77   38   39 ar  
    78   38   73 1   
    79   39   70 1   
@<TRIPOS>SUBSTRUCTURE
     1 LUV         1 TEMP              0 ****  ****    0 ROOT
