@<TRIPOS>MOLECULE
LUV
   75    79     1     0     0
SMALL
bcc


@<TRIPOS>ATOM
      1 O2          2.2920   -6.7720   -4.9940 o         1 LUV     -0.695500
      2 C30         2.9920   -5.9550   -4.3540 c         1 LUV      0.772500
      3 N3          4.3670   -6.0780   -4.1440 n         1 LUV     -0.561900
      4 C           4.8990   -4.8770   -3.5110 c3        1 LUV      0.073700
      5 N2          2.5110   -4.6680   -3.9350 n         1 LUV     -0.544900
      6 C29         3.6150   -3.9540   -3.2750 c3        1 LUV      0.027700
      7 C2          3.9000   -2.5700   -3.8660 c3        1 LUV      0.016400
      8 S           4.9630   -2.8850   -5.2880 ss        1 LUV     -0.345200
      9 C1          5.8830   -4.1330   -4.4110 c3        1 LUV     -0.014300
     10 C3          2.6960   -1.7130   -4.1730 c3        1 LUV     -0.073400
     11 C4          2.9990   -0.5570   -5.1120 c3        1 LUV     -0.107400
     12 C5          2.3360   -0.6480   -6.4750 c3        1 LUV     -0.093400
     13 C6          3.1880   -1.3000   -7.5480 c3        1 LUV     -0.163400
     14 C7          2.7220   -2.6490   -8.0120 c         1 LUV      0.550100
     15 O           2.5530   -3.0330   -9.1590 o         1 LUV     -0.424100
     16 N           2.4850   -3.6710   -6.9190 n4        1 LUV     -0.706800
     17 C8          1.9080   -4.9570   -7.3790 c3        1 LUV      0.078800
     18 C9          2.9590   -5.9350   -7.9380 c3        1 LUV      0.098800
     19 N1          2.4870   -7.3390   -7.9230 n4        1 LUV     -0.691800
     20 C10         3.5950   -8.2940   -8.4340 c         1 LUV      0.619700
     21 O1          4.5960   -8.2970   -7.7410 o         1 LUV     -0.422100
     22 C11         3.2300   -9.0220   -9.6470 ca        1 LUV     -0.212600
     23 C16         2.0430   -9.7900   -9.6660 cp        1 LUV      0.037000
     24 C17         1.1550   -9.8630   -8.5040 cp        1 LUV     -0.126000
     25 C22        -0.2290   -9.7040   -8.6730 ca        1 LUV     -0.124750
     26 C21        -1.0890   -9.8450   -7.5840 ca        1 LUV     -0.122000
     27 C20        -0.5790  -10.1540   -6.3230 ca        1 LUV     -0.100000
     28 C19         0.7970  -10.3180   -6.1500 ca        1 LUV     -0.122000
     29 C18         1.6620  -10.1720   -7.2320 ca        1 LUV     -0.124750
     30 C15         1.7260  -10.5210  -10.8140 ca        1 LUV     -0.116500
     31 C14         2.5660  -10.4850  -11.9290 ca        1 LUV     -0.049000
     32 C13         3.7250   -9.7160  -11.9110 ca        1 LUV     -0.116500
     33 C12         4.0800   -8.9790  -10.7700 cp        1 LUV      0.037000
     34 C23         5.3030   -8.1750  -10.8160 cp        1 LUV     -0.126000
     35 C28         6.3930   -8.4670   -9.9860 ca        1 LUV     -0.124750
     36 C27         7.5770   -7.7400  -10.1060 ca        1 LUV     -0.122000
     37 C26         7.6820   -6.7200  -11.0510 ca        1 LUV     -0.100000
     38 C25         6.5990   -6.4260  -11.8810 ca        1 LUV     -0.122000
     39 C24         5.4160   -7.1530  -11.7720 ca        1 LUV     -0.124750
     40 H3          4.8090   -6.9600   -4.0430 hn        1 LUV      0.369500
     41 H2          1.6530   -4.6970   -3.4220 hn        1 LUV      0.329500
     42 H           5.3890   -5.1240   -2.5280 h1        1 LUV      0.113700
     43 H29         3.4250   -3.8450   -2.1690 h1        1 LUV      0.109700
     44 H11C        6.6680   -3.6370   -3.7860 h1        1 LUV      0.117200
     45 H12C        6.4000   -4.7930   -5.1480 h1        1 LUV      0.117200
     46 HA          4.5410   -2.0150   -3.1230 h1        1 LUV      0.120700
     47 H31C        2.3390   -1.2890   -3.1890 hc        1 LUV      0.061700
     48 H32C        1.8340   -2.3140   -4.5590 hc        1 LUV      0.061700
     49 H41C        4.1110   -0.4320   -5.2320 hc        1 LUV      0.087200
     50 H42C        2.6300    0.3890   -4.6240 hc        1 LUV      0.087200
     51 H51C        1.3310   -1.1380   -6.3940 hc        1 LUV      0.075700
     52 H52C        2.1330    0.4080   -6.8180 hc        1 LUV      0.075700
     53 H61C        4.2590   -1.4100   -7.1990 hc        1 LUV      0.129700
     54 H62C        3.2070   -0.6440   -8.4670 hc        1 LUV      0.129700
     55 HB          1.8250   -3.2560   -6.2460 hn        1 LUV      0.483300
     56 H81C        1.1430   -4.7360   -8.1820 hx        1 LUV      0.128200
     57 H82C        1.3770   -5.4210   -6.4900 hx        1 LUV      0.128200
     58 H91C        3.9090   -5.9040   -7.3250 hx        1 LUV      0.122700
     59 H92C        3.2070   -5.6490   -9.0040 hx        1 LUV      0.122700
     60 H1          2.2420   -7.6210   -6.9570 hn        1 LUV      0.476800
     61 H15         0.8130  -11.1410  -10.8290 ha        1 LUV      0.175500
     62 H22        -0.6390   -9.4950   -9.6740 ha        1 LUV      0.146250
     63 H18         2.7390  -10.3640   -7.1020 ha        1 LUV      0.146250
     64 H21        -2.1760   -9.7360   -7.7280 ha        1 LUV      0.157250
     65 H20        -1.2620  -10.2900   -5.4690 ha        1 LUV      0.159500
     66 H19         1.1990  -10.5890   -5.1600 ha        1 LUV      0.157250
     67 H14         2.3090  -11.0740  -12.8270 ha        1 LUV      0.175000
     68 H13         4.3880   -9.6870  -12.7930 ha        1 LUV      0.175500
     69 H28         6.3210   -9.2830   -9.2490 ha        1 LUV      0.146250
     70 H24         4.5760   -6.9420  -12.4520 ha        1 LUV      0.146250
     71 H27         8.4380   -7.9900   -9.4660 ha        1 LUV      0.157250
     72 H26         8.6250   -6.1600  -11.1560 ha        1 LUV      0.159500
     73 H25         6.6860   -5.6330  -12.6410 ha        1 LUV      0.157250
     74 HN3         3.4100   -3.7950   -6.3950 hn        1 LUV      0.483300
     75 H12         1.6540   -7.4530   -8.5130 hn        1 LUV      0.476800
@<TRIPOS>BOND
     1    1    2 2   
     2    2    3 1   
     3    2    5 1   
     4    3    4 1   
     5    3   40 1   
     6    4    6 1   
     7    4    9 1   
     8    4   42 1   
     9    5    6 1   
    10    5   41 1   
    11    6    7 1   
    12    6   43 1   
    13    7    8 1   
    14    7   10 1   
    15    7   46 1   
    16    8    9 1   
    17    9   44 1   
    18    9   45 1   
    19   10   11 1   
    20   10   47 1   
    21   10   48 1   
    22   11   12 1   
    23   11   49 1   
    24   11   50 1   
    25   12   13 1   
    26   12   51 1   
    27   12   52 1   
    28   13   14 1   
    29   13   53 1   
    30   13   54 1   
    31   14   15 2   
    32   14   16 1   
    33   16   17 1   
    34   16   55 1   
    35   16   74 1   
    36   17   18 1   
    37   17   56 1   
    38   17   57 1   
    39   18   19 1   
    40   18   58 1   
    41   18   59 1   
    42   19   20 1   
    43   19   60 1   
    44   19   75 1   
    45   20   21 2   
    46   20   22 1   
    47   22   23 ar  
    48   22   33 ar  
    49   23   24 1   
    50   23   30 ar  
    51   24   25 ar  
    52   24   29 ar  
    53   25   26 ar  
    54   25   62 1   
    55   26   27 ar  
    56   26   64 1   
    57   27   28 ar  
    58   27   65 1   
    59   28   29 ar  
    60   28   66 1   
    61   29   63 1   
    62   30   31 ar  
    63   30   61 1   
    64   31   32 ar  
    65   31   67 1   
    66   32   33 ar  
    67   32   68 1   
    68   33   34 1   
    69   34   35 ar  
    70   34   39 ar  
    71   35   36 ar  
    72   35   69 1   
    73   36   37 ar  
    74   36   71 1   
    75   37   38 ar  
    76   37   72 1   
    77   38   39 ar  
    78   38   73 1   
    79   39   70 1   
@<TRIPOS>SUBSTRUCTURE
     1 LUV         1 TEMP              0 ****  ****    0 ROOT
