@<TRIPOS>MOLECULE
LUV
   75    79     1     0     0
SMALL
bcc


@<TRIPOS>ATOM
      1 O2          2.3820   -6.7670   -4.9580 o         1 LUV     -0.695500
      2 C30         3.1020   -5.9440   -4.3480 c         1 LUV      0.772500
      3 N3          4.4850   -6.0580   -4.1880 ns        1 LUV     -0.561900
      4 C           5.0320   -4.8520   -3.5800 c3        1 LUV      0.073700
      5 N2          2.6290   -4.6580   -3.9150 ns        1 LUV     -0.544900
      6 C29         3.7520   -3.9350   -3.2990 c3        1 LUV      0.027700
      7 C2          4.0070   -2.5520   -3.9050 c3        1 LUV      0.016400
      8 S           5.0180   -2.8650   -5.3640 ss        1 LUV     -0.345200
      9 C1          5.9780   -4.1040   -4.5180 c3        1 LUV     -0.014300
     10 C3          2.7870   -1.7030   -4.1700 c3        1 LUV     -0.073400
     11 C4          3.0480   -0.5490   -5.1230 c3        1 LUV     -0.107400
     12 C5          2.3350   -0.6480   -6.4600 c3        1 LUV     -0.093400
     13 C6          3.1520   -1.3000   -7.5620 c3        1 LUV     -0.163400
     14 C7          2.6770   -2.6530   -8.0040 c         1 LUV      0.550100
     15 O           2.4690   -3.0420   -9.1430 o         1 LUV     -0.424100
     16 N           2.4870   -3.6720   -6.9000 ny        1 LUV     -0.706800
     17 C8          1.9020   -4.9640   -7.3340 c3        1 LUV      0.078800
     18 C9          2.9380   -5.9370   -7.9270 c3        1 LUV      0.098800
     19 N1          2.4760   -7.3440   -7.8900 ny        1 LUV     -0.691800
     20 C10         3.5710   -8.2940   -8.4350 c         1 LUV      0.619700
     21 O1          4.5960   -8.2890   -7.7770 o         1 LUV     -0.422100
     22 C11         3.1690   -9.0290   -9.6330 ca        1 LUV     -0.212600
     23 C16         1.9870   -9.8030   -9.6090 cp        1 LUV      0.037000
     24 C17         1.1390   -9.8780   -8.4170 cp        1 LUV     -0.126000
     25 C22        -0.2500   -9.7280   -8.5390 ca        1 LUV     -0.124750
     26 C21        -1.0720   -9.8690   -7.4210 ca        1 LUV     -0.122000
     27 C20        -0.5170  -10.1710   -6.1770 ca        1 LUV     -0.100000
     28 C19         0.8650  -10.3270   -6.0500 ca        1 LUV     -0.122000
     29 C18         1.6910  -10.1800   -7.1620 ca        1 LUV     -0.124750
     30 C15         1.6350  -10.5400  -10.7430 ca        1 LUV     -0.116500
     31 C14         2.4360  -10.5030  -11.8860 ca        1 LUV     -0.049000
     32 C13         3.5910   -9.7270  -11.9100 ca        1 LUV     -0.116500
     33 C12         3.9800   -8.9840  -10.7850 cp        1 LUV      0.037000
     34 C23         5.1960   -8.1730  -10.8750 cp        1 LUV     -0.126000
     35 C28         6.3150   -8.4560  -10.0810 ca        1 LUV     -0.124750
     36 C27         7.4900   -7.7240  -10.2440 ca        1 LUV     -0.122000
     37 C26         7.5570   -6.7060  -11.1960 ca        1 LUV     -0.100000
     38 C25         6.4440   -6.4200  -11.9890 ca        1 LUV     -0.122000
     39 C24         5.2700   -7.1550  -11.8380 ca        1 LUV     -0.124750
     40 H3          4.9350   -6.9370   -4.1000 hn        1 LUV      0.369500
     41 H2          1.7910   -4.6900   -3.3700 hn        1 LUV      0.329500
     42 H           5.5600   -5.0930   -2.6140 h1        1 LUV      0.113700
     43 H29         3.6020   -3.8240   -2.1870 h1        1 LUV      0.109700
     44 H11C        6.7820   -3.6020   -3.9240 h1        1 LUV      0.117200
     45 H12C        6.4710   -4.7640   -5.2710 h1        1 LUV      0.117200
     46 HA          4.6700   -1.9900   -3.1880 h1        1 LUV      0.120700
     47 H31C        1.9150   -2.3110   -4.5220 hc        1 LUV      0.061700
     48 H32C        2.4630   -1.2780   -3.1750 hc        1 LUV      0.061700
     49 H41C        4.1530   -0.4170   -5.2840 hc        1 LUV      0.087200
     50 H42C        2.6910    0.3960   -4.6250 hc        1 LUV      0.087200
     51 H51C        1.3370   -1.1440   -6.3420 hc        1 LUV      0.075700
     52 H52C        2.1130    0.4050   -6.7990 hc        1 LUV      0.075700
     53 H61C        4.2350   -1.4020   -7.2520 hc        1 LUV      0.129700
     54 H62C        3.1320   -0.6470   -8.4840 hc        1 LUV      0.129700
     55 HB          1.8490   -3.2590   -6.2040 hn        1 LUV      0.483300
     56 H81C        1.4060   -5.4280   -6.4240 hx        1 LUV      0.128200
     57 H82C        1.1070   -4.7510   -8.1100 hx        1 LUV      0.128200
     58 H91C        3.9090   -5.8980   -7.3480 hx        1 LUV      0.122700
     59 H92C        3.1460   -5.6540   -9.0020 hx        1 LUV      0.122700
     60 H1          2.2660   -7.6240   -6.9150 hn        1 LUV      0.476800
     61 H15         0.7260  -11.1660  -10.7240 ha        1 LUV      0.175500
     62 H22        -0.6960   -9.5240   -9.5260 ha        1 LUV      0.146250
     63 H18         2.7740  -10.3650   -7.0680 ha        1 LUV      0.146250
     64 H21        -2.1640   -9.7670   -7.5280 ha        1 LUV      0.157250
     65 H20        -1.1700  -10.3080   -5.3000 ha        1 LUV      0.159500
     66 H19         1.3020  -10.5920   -5.0740 ha        1 LUV      0.157250
     67 H14         2.1530  -11.0970  -12.7730 ha        1 LUV      0.175000
     68 H13         4.2230   -9.6980  -12.8150 ha        1 LUV      0.175500
     69 H28         6.2740   -9.2700   -9.3400 ha        1 LUV      0.146250
     70 H24         4.4060   -6.9510  -12.4890 ha        1 LUV      0.146250
     71 H27         8.3740   -7.9660   -9.6330 ha        1 LUV      0.157250
     72 H26         8.4920   -6.1400  -11.3350 ha        1 LUV      0.159500
     73 H25         6.5010   -5.6290  -12.7540 ha        1 LUV      0.157250
     74 HN3         3.4310   -3.7890   -6.4100 hn        1 LUV      0.483300
     75 H12         1.6230   -7.4650   -8.4500 hn        1 LUV      0.476800
@<TRIPOS>BOND
     1    1    2 2   
     2    2    3 1   
     3    2    5 1   
     4    3    4 1   
     5    3   40 1   
     6    4    6 1   
     7    4    9 1   
     8    4   42 1   
     9    5    6 1   
    10    5   41 1   
    11    6    7 1   
    12    6   43 1   
    13    7    8 1   
    14    7   10 1   
    15    7   46 1   
    16    8    9 1   
    17    9   44 1   
    18    9   45 1   
    19   10   11 1   
    20   10   47 1   
    21   10   48 1   
    22   11   12 1   
    23   11   49 1   
    24   11   50 1   
    25   12   13 1   
    26   12   51 1   
    27   12   52 1   
    28   13   14 1   
    29   13   53 1   
    30   13   54 1   
    31   14   15 2   
    32   14   16 1   
    33   16   17 1   
    34   16   55 1   
    35   16   74 1   
    36   17   18 1   
    37   17   56 1   
    38   17   57 1   
    39   18   19 1   
    40   18   58 1   
    41   18   59 1   
    42   19   20 1   
    43   19   60 1   
    44   19   75 1   
    45   20   21 2   
    46   20   22 1   
    47   22   23 ar  
    48   22   33 ar  
    49   23   24 1   
    50   23   30 ar  
    51   24   25 ar  
    52   24   29 ar  
    53   25   26 ar  
    54   25   62 1   
    55   26   27 ar  
    56   26   64 1   
    57   27   28 ar  
    58   27   65 1   
    59   28   29 ar  
    60   28   66 1   
    61   29   63 1   
    62   30   31 ar  
    63   30   61 1   
    64   31   32 ar  
    65   31   67 1   
    66   32   33 ar  
    67   32   68 1   
    68   33   34 1   
    69   34   35 ar  
    70   34   39 ar  
    71   35   36 ar  
    72   35   69 1   
    73   36   37 ar  
    74   36   71 1   
    75   37   38 ar  
    76   37   72 1   
    77   38   39 ar  
    78   38   73 1   
    79   39   70 1   
@<TRIPOS>SUBSTRUCTURE
     1 LUV         1 TEMP              0 ****  ****    0 ROOT
