@<TRIPOS>MOLECULE
LUZ
   16    16     1     0     0
SMALL
bcc


@<TRIPOS>ATOM
      1 N1          0.1870   -0.0030   -1.7550 n         1 LUZ     -0.453100
      2 C2          1.6320   -0.0030   -1.7550 c         1 LUZ      0.816500
      3 C10        -0.5430   -0.0030   -0.4920 cc        1 LUZ      0.614300
      4 O2          2.2390    0.0830   -2.8040 o         1 LUZ     -0.621500
      5 N3          2.3460   -0.0030   -0.5180 n         1 LUZ     -0.589500
      6 C4          1.6450   -0.0030    0.6960 c         1 LUZ      0.733700
      7 O4          2.2510   -0.0370    1.7480 o         1 LUZ     -0.558500
      8 C4A         0.1360   -0.0030    0.6930 cd        1 LUZ      0.306500
      9 N5         -0.5500   -0.0030    1.8700 n1        1 LUZ     -0.826500
     10 C5A        -1.8940   -0.0030    1.8640 c1        1 LUZ      0.220300
     11 C9A        -2.5840   -0.0030    0.6580 c1        1 LUZ      0.338300
     12 N10        -1.9090   -0.0030   -0.5020 n1        1 LUZ     -0.967500
     13 HN1        -0.2690   -0.0020   -2.5450 hn        1 LUZ      0.369500
     14 HN3         3.2580   -0.0030   -0.5180 hn        1 LUZ      0.361500
     15 H5A        -2.3850   -0.0030    2.7080 ha        1 LUZ      0.128500
     16 H9A        -3.5600   -0.0030    0.6550 ha        1 LUZ      0.124500
@<TRIPOS>BOND
     1    1    2 1   
     2    1    3 1   
     3    1   13 1   
     4    2    4 2   
     5    2    5 1   
     6    3    8 2   
     7    3   12 1   
     8    5    6 1   
     9    5   14 1   
    10    6    7 2   
    11    6    8 1   
    12    8    9 1   
    13    9   10 3   
    14   10   15 1   
    15   11   12 3   
    16   11   16 1   
@<TRIPOS>SUBSTRUCTURE
     1 LUZ         1 TEMP              0 ****  ****    0 ROOT
