@<TRIPOS>MOLECULE
LUZ
   16    17     1     0     0
SMALL
bcc


@<TRIPOS>ATOM
      1 N1         -0.8200   -1.4540    0.0010 n         1 LUZ     -0.530400
      2 C2         -1.9950   -0.6770    0.0010 c         1 LUZ      0.816500
      3 C10         0.4410   -0.8670    0.0000 ca        1 LUZ      0.464900
      4 O2         -3.1060   -1.2450    0.0010 o         1 LUZ     -0.621500
      5 N3         -1.8860    0.7190    0.0000 n         1 LUZ     -0.589500
      6 C4         -0.6670    1.4110   -0.0000 c         1 LUZ      0.625000
      7 O4         -0.6870    2.6480   -0.0010 o         1 LUZ     -0.558500
      8 C4A         0.5650    0.5710   -0.0000 ca        1 LUZ      0.188500
      9 N5          1.7800    1.1760   -0.0010 nb        1 LUZ     -0.537000
     10 C5A         2.8550    0.3800   -0.0010 ca        1 LUZ      0.236900
     11 C9A         2.7400   -1.0430    0.0000 ca        1 LUZ      0.354900
     12 N10         1.5630   -1.6720    0.0010 nb        1 LUZ     -0.678000
     13 HN1        -0.9240   -2.4470    0.0010 hn        1 LUZ      0.369500
     14 HN3        -2.7390    1.2390    0.0000 hn        1 LUZ      0.361500
     15 H5A         3.8400    0.8750   -0.0010 h4        1 LUZ      0.049100
     16 H9A         3.6380   -1.6880    0.0000 h4        1 LUZ      0.045100
@<TRIPOS>BOND
     1    1    2 1   
     2    1    3 1   
     3    1   13 1   
     4    2    4 2   
     5    2    5 1   
     6    3    8 ar  
     7    3   12 ar  
     8    5    6 1   
     9    5   14 1   
    10    6    7 2   
    11    6    8 1   
    12    8    9 ar  
    13    9   10 ar  
    14   10   11 ar  
    15   10   15 1   
    16   11   12 ar  
    17   11   16 1   
@<TRIPOS>SUBSTRUCTURE
     1 LUZ         1 TEMP              0 ****  ****    0 ROOT
