@<TRIPOS>MOLECULE
LUZ
   16    17     1     0     0
SMALL
bcc


@<TRIPOS>ATOM
      1 N1         -0.0260    0.0000   -0.0260 n         1 LUZ     -0.530400
      2 C2          1.3830    0.0000   -0.0650 c         1 LUZ      0.816500
      3 C10        -0.7200    0.0000    1.1780 ca        1 LUZ      0.464900
      4 O2          1.9660    0.0000   -1.1680 o         1 LUZ     -0.621500
      5 N3          2.0950   -0.0000    1.1410 n         1 LUZ     -0.589500
      6 C4          1.4940   -0.0000    2.4080 c         1 LUZ      0.625000
      7 O4          2.2210   -0.0000    3.4090 o         1 LUZ     -0.558500
      8 C4A         0.0030   -0.0000    2.4270 ca        1 LUZ      0.188500
      9 N5         -0.6440   -0.0000    3.6200 nb        1 LUZ     -0.537000
     10 C5A        -1.9810    0.0000    3.5850 ca        1 LUZ      0.236900
     11 C9A        -2.7040    0.0000    2.3550 ca        1 LUZ      0.354900
     12 N10        -2.1020    0.0000    1.1630 nb        1 LUZ     -0.678000
     13 HN1        -0.5110    0.0000   -0.8990 hn        1 LUZ      0.369500
     14 HN3         3.0920   -0.0000    1.0770 hn        1 LUZ      0.361500
     15 H5A        -2.5040   -0.0000    4.5570 h4        1 LUZ      0.049100
     16 H9A        -3.8090    0.0000    2.3420 h4        1 LUZ      0.045100
@<TRIPOS>BOND
     1    1    2 1   
     2    1    3 1   
     3    1   13 1   
     4    2    4 2   
     5    2    5 1   
     6    3    8 ar  
     7    3   12 ar  
     8    5    6 1   
     9    5   14 1   
    10    6    7 2   
    11    6    8 1   
    12    8    9 ar  
    13    9   10 ar  
    14   10   11 ar  
    15   10   15 1   
    16   11   12 ar  
    17   11   16 1   
@<TRIPOS>SUBSTRUCTURE
     1 LUZ         1 TEMP              0 ****  ****    0 ROOT
