@<TRIPOS>MOLECULE
LVA
   67    63     1     0     0
SMALL
bcc


@<TRIPOS>ATOM
      1 O1          5.1430    2.7310   -0.5030 o         1 LVA     -0.585500
      2 O2          5.4980   -1.4540    0.2330 oh        1 LVA     -0.403000
      3 O3          6.3220    0.9010   -0.9530 o         1 LVA     -0.585500
      4 O8          5.6650   -2.7240    2.6350 oh        1 LVA     -0.175000
      5 O4         10.2290    1.3030    2.0090 os        1 LVA     -0.260000
      6 C5         12.6950   -0.1050    6.7950 c2        1 LVA     -0.431000
      7 C6         12.1410    0.8570    5.8660 c2        1 LVA     -0.046000
      8 C7          4.4570   -2.3050    2.7800 c1        1 LVA     -0.012000
      9 C8         13.9590   -0.3350    7.0840 c1        1 LVA      0.178000
     10 C9          9.4500   -0.4080    3.3790 c3        1 LVA     -0.240000
     11 C10         5.3010    1.4780   -0.4640 c2        1 LVA      0.326000
     12 C11         4.7720   -4.5050    5.4900 c2        1 LVA     -0.229000
     13 C12         8.1290   -0.4820    4.0520 c2        1 LVA     -0.124000
     14 C13         4.8550   -0.4780    1.0480 c3        1 LVA      0.043000
     15 C14        12.8270    1.4960    4.9400 cu        1 LVA     -0.175000
     16 C15         9.3200    0.3370    2.0820 c1        1 LVA      0.063000
     17 C16         3.0030   -0.3400    2.7580 c3        1 LVA     -0.180000
     18 C17         3.8460   -1.2620    1.9020 c3        1 LVA     -0.219000
     19 C18         7.9300   -0.1270    5.3190 c2        1 LVA     -0.238000
     20 C19        12.8120    2.4560    3.8350 cx        1 LVA     -0.161000
     21 C20         5.9700   -4.9840    5.7960 c2        1 LVA     -0.229000
     22 C21         4.2240    0.6180    0.2060 c3        1 LVA     -0.252000
     23 C22        14.0940    1.7490    4.2350 cx        1 LVA     -0.128000
     24 C23        15.1900    2.5070    4.9010 c3        1 LVA     -0.186000
     25 C25         8.9640    2.3950    0.1290 c3        1 LVA     -0.123000
     26 O26        11.3980    2.4980    0.6390 o         1 LVA     -0.313000
     27 C27         9.2340    3.1410   -1.1730 c3        1 LVA     -0.136000
     28 C28         8.0330    3.1780    1.0350 c3        1 LVA     -0.220000
     29 C29         8.1100    2.9390   -2.1560 c3        1 LVA     -0.230000
     30 HO2         6.0390   -0.9710   -0.4190 ho        1 LVA      0.267000
     31 HO8         6.2100   -2.3360    1.9100 ho        1 LVA      0.201000
     32 H5         11.9380   -0.7210    7.3300 ha        1 LVA      0.187000
     33 H7          2.4650   -0.9270    3.5410 hc        1 LVA      0.074333
     34 H8          4.6020   -3.8280    4.6330 ha        1 LVA      0.113250
     35 H9          9.7700   -1.4520    3.0930 hc        1 LVA      0.104000
     36 H11         7.7850   -3.7260    3.3100 ha        1 LVA      0.001500
     37 H12         3.8730   -4.7520    6.0700 ha        1 LVA      0.113250
     38 H13         5.6310   -0.0180    1.7280 h1        1 LVA      0.069000
     39 H14        11.0550    1.0380    5.9710 ha        1 LVA      0.137000
     40 H15        10.2340    0.0110    4.0680 hc        1 LVA      0.104000
     41 H161        7.3060   -0.8650    3.4210 ha        1 LVA      0.142000
     42 H162        3.6460    0.4230    3.2600 hc        1 LVA      0.074333
     43 H171        2.2500    0.1910    2.1290 hc        1 LVA      0.074333
     44 H172        3.1710   -1.8330    1.1980 hc        1 LVA      0.128000
     45 H181        6.9460   -0.2040    5.7980 ha        1 LVA      0.106500
     46 H182        8.7310    0.2640    5.9610 ha        1 LVA      0.106500
     47 H191       12.3130    2.1830    2.8800 hc        1 LVA      0.135500
     48 H192       12.7010    3.5330    4.0620 hc        1 LVA      0.135500
     49 H201        8.0330   -3.0950    3.3120 ha        1 LVA      0.001500
     50 H202        6.8670   -4.7340    5.2120 ha        1 LVA      0.113250
     51 H203        6.1480   -5.6570    6.6450 ha        1 LVA      0.113250
     52 H211        3.5890    0.1620   -0.5930 hc        1 LVA      0.084500
     53 H212        3.5830    1.2750    0.8420 hc        1 LVA      0.084500
     54 H22        14.4730    0.9520    3.5600 hc        1 LVA      0.125000
     55 H231       15.8730    2.9420    4.1310 hc        1 LVA      0.075667
     56 H232       15.7840    1.8280    5.5610 hc        1 LVA      0.075667
     57 H233       14.7860    3.3410    5.5250 hc        1 LVA      0.075667
     58 H25         9.3640    4.2330   -0.9540 hc        1 LVA      0.066000
     59 H271        8.4540    1.4040   -0.1040 hc        1 LVA      0.201000
     60 H272       10.1990    2.7780   -1.6170 hc        1 LVA      0.066000
     61 H281        8.4220    4.2060    1.2230 hc        1 LVA      0.095333
     62 H282        7.9150    2.6500    2.0120 hc        1 LVA      0.095333
     63 H283        7.0260    3.2420    0.5380 hc        1 LVA      0.095333
     64 H291        7.1130    3.1290   -1.6740 hc        1 LVA      0.094667
     65 H292        8.0880    1.8800   -2.5130 hc        1 LVA      0.094667
     66 H293        8.2400    3.6180   -3.0310 hc        1 LVA      0.094667
     67 C24        10.2500    2.1120    0.8370 c2        1 LVA      0.343000
@<TRIPOS>BOND
     1    1   11 1   
     2    2   14 1   
     3    2   30 1   
     4    3   11 1   
     5    4    8 1   
     6    4   31 1   
     7    5   16 1   
     8    5   67 1   
     9    6    7 1   
    10    6    9 1   
    11    6   32 1   
    12    7   15 1   
    13    7   39 1   
    14    8   18 1   
    15   10   13 1   
    16   10   16 1   
    17   10   35 1   
    18   10   40 1   
    19   11   22 1   
    20   12   21 1   
    21   12   34 1   
    22   12   37 1   
    23   13   19 1   
    24   13   41 1   
    25   14   18 1   
    26   14   22 1   
    27   14   38 1   
    28   15   20 1   
    29   15   23 1   
    30   17   18 1   
    31   17   33 1   
    32   17   42 1   
    33   17   43 1   
    34   18   44 1   
    35   19   45 1   
    36   19   46 1   
    37   20   23 1   
    38   20   47 1   
    39   20   48 1   
    40   21   50 1   
    41   21   51 1   
    42   22   52 1   
    43   22   53 1   
    44   23   24 1   
    45   23   54 1   
    46   24   55 1   
    47   24   56 1   
    48   24   57 1   
    49   25   27 1   
    50   25   28 1   
    51   25   59 1   
    52   25   67 1   
    53   26   67 1   
    54   27   29 1   
    55   27   58 1   
    56   27   60 1   
    57   28   61 1   
    58   28   62 1   
    59   28   63 1   
    60   29   64 1   
    61   29   65 1   
    62   29   66 1   
    63   36   49 1   
@<TRIPOS>SUBSTRUCTURE
     1 LVA         1 TEMP              0 ****  ****    0 ROOT
