@<TRIPOS>MOLECULE
LVA
   67    68     1     0     0
SMALL
bcc


@<TRIPOS>ATOM
      1 O1          0.7330    3.1490    1.5600 o         1 LVA     -0.846300
      2 O2          3.3470   -0.0990    0.5700 oh        1 LVA     -0.674800
      3 O3          1.5160    1.8740   -0.0960 o         1 LVA     -0.846300
      4 O8          5.8230   -1.2860    1.4800 oh        1 LVA     -0.634800
      5 O4         10.2150    0.5630    1.9190 os        1 LVA     -0.425900
      6 C5         10.8940   -1.8100    6.1360 ce        1 LVA     -0.147000
      7 C6         11.2210   -0.6750    5.2830 ce        1 LVA     -0.077200
      8 C7          5.7130   -0.1550    2.3380 c3        1 LVA      0.154100
      9 C8          9.7150   -2.4370    6.0160 c2        1 LVA     -0.146200
     10 C9         10.4790   -0.6890    3.9700 c3        1 LVA     -0.020500
     11 C10         1.4060    2.1720    1.1330 c         1 LVA      0.909600
     12 C11         8.6770   -2.0620    5.0100 c3        1 LVA     -0.036500
     13 C12         8.9850   -0.7120    4.3350 c3        1 LVA     -0.036700
     14 C13         3.4770    0.8180    1.6500 c3        1 LVA      0.171100
     15 C14        12.0010    0.3360    5.6970 c2        1 LVA     -0.166200
     16 C15        11.0460    0.4230    3.0800 c3        1 LVA      0.157100
     17 C16         6.5890   -0.4490    3.5560 c3        1 LVA     -0.081400
     18 C17         4.2680    0.1060    2.7480 c3        1 LVA     -0.122400
     19 C18         8.0550   -0.4160    3.1760 c3        1 LVA     -0.073400
     20 C19        11.1740    1.7440    3.8240 c3        1 LVA     -0.097400
     21 C20         8.5050   -3.2030    4.0230 c3        1 LVA     -0.091100
     22 C21         2.1230    1.2810    2.1600 c3        1 LVA     -0.234400
     23 C22        12.2250    1.5850    4.9170 c3        1 LVA     -0.028500
     24 C23        12.2270    2.7960    5.8270 c3        1 LVA     -0.085100
     25 C24        10.7740    1.0760    0.7800 c         1 LVA      0.634100
     26 C25         9.7830    1.1420   -0.3550 c3        1 LVA     -0.107700
     27 O26        11.9650    1.3980    0.7930 o         1 LVA     -0.559000
     28 C27        10.5040    1.4630   -1.6570 c3        1 LVA     -0.077400
     29 C28         8.7050    2.1580   -0.0360 c3        1 LVA     -0.092100
     30 C29         9.6810    1.0810   -2.8600 c3        1 LVA     -0.094100
     31 HO2         2.7040    0.2920   -0.0500 ho        1 LVA      0.465000
     32 HO8         5.1070   -1.2170    0.8320 ho        1 LVA      0.436000
     33 H5         11.6360   -2.1020    6.8940 ha        1 LVA      0.121000
     34 H7          6.1180    0.7450    1.7900 h1        1 LVA      0.028700
     35 H8          9.4520   -3.2870    6.6650 ha        1 LVA      0.118000
     36 H9         10.7040   -1.6570    3.4330 hc        1 LVA      0.065700
     37 H11         7.7000   -1.9350    5.5640 hc        1 LVA      0.058700
     38 H12         8.8130    0.0910    5.1100 hc        1 LVA      0.045700
     39 H13         4.0600    1.7130    1.2840 h1        1 LVA      0.027700
     40 H14        12.5100    0.2900    6.6730 ha        1 LVA      0.120000
     41 H15        12.0750    0.1000    2.7400 h1        1 LVA      0.062700
     42 H161        6.3840    0.3170    4.3480 hc        1 LVA      0.041200
     43 H162        6.3050   -1.4530    3.9650 hc        1 LVA      0.041200
     44 H171        3.7710   -0.8690    2.9880 hc        1 LVA      0.049200
     45 H172        4.2500    0.7480    3.6640 hc        1 LVA      0.049200
     46 H181        8.2430   -1.1300    2.3320 hc        1 LVA      0.058200
     47 H182        8.2800    0.6180    2.7950 hc        1 LVA      0.058200
     48 H191       10.1860    2.0290    4.2670 hc        1 LVA      0.059200
     49 H192       11.4830    2.5480    3.1080 hc        1 LVA      0.059200
     50 H201        7.6350   -3.0110    3.3480 hc        1 LVA      0.040700
     51 H202        8.3220   -4.1580    4.5740 hc        1 LVA      0.040700
     52 H203        9.4180   -3.3290    3.3930 hc        1 LVA      0.040700
     53 H211        2.2500    1.8500    3.1140 hc        1 LVA      0.036700
     54 H212        1.4730    0.3930    2.3610 hc        1 LVA      0.036700
     55 H22        13.2390    1.5080    4.4240 hc        1 LVA      0.056700
     56 H231       11.2510    2.8900    6.3600 hc        1 LVA      0.034700
     57 H232       12.3930    3.7230    5.2270 hc        1 LVA      0.034700
     58 H233       13.0400    2.7110    6.5870 hc        1 LVA      0.034700
     59 H25         9.3050    0.1230   -0.4340 hc        1 LVA      0.090700
     60 H271       10.7410    2.5590   -1.6860 hc        1 LVA      0.051200
     61 H272       11.4830    0.9150   -1.6800 hc        1 LVA      0.051200
     62 H281        8.1830    1.8760    0.9130 hc        1 LVA      0.051367
     63 H282        7.9540    2.1840   -0.8610 hc        1 LVA      0.051367
     64 H283        9.1420    3.1780    0.0810 hc        1 LVA      0.051367
     65 H291        9.4620   -0.0140   -2.8590 hc        1 LVA      0.036700
     66 H292       10.2380    1.3290   -3.7960 hc        1 LVA      0.036700
     67 H293        8.7100    1.6330   -2.8710 hc        1 LVA      0.036700
@<TRIPOS>BOND
     1    1   11 1   
     2    2   14 1   
     3    2   31 1   
     4    3   11 1   
     5    4    8 1   
     6    4   32 1   
     7    5   16 1   
     8    5   25 1   
     9    6    7 1   
    10    6    9 2   
    11    6   33 1   
    12    7   10 1   
    13    7   15 2   
    14    8   17 1   
    15    8   18 1   
    16    8   34 1   
    17    9   12 1   
    18    9   35 1   
    19   10   13 1   
    20   10   16 1   
    21   10   36 1   
    22   11   22 1   
    23   12   13 1   
    24   12   21 1   
    25   12   37 1   
    26   13   19 1   
    27   13   38 1   
    28   14   18 1   
    29   14   22 1   
    30   14   39 1   
    31   15   23 1   
    32   15   40 1   
    33   16   20 1   
    34   16   41 1   
    35   17   19 1   
    36   17   42 1   
    37   17   43 1   
    38   18   44 1   
    39   18   45 1   
    40   19   46 1   
    41   19   47 1   
    42   20   23 1   
    43   20   48 1   
    44   20   49 1   
    45   21   50 1   
    46   21   51 1   
    47   21   52 1   
    48   22   53 1   
    49   22   54 1   
    50   23   24 1   
    51   23   55 1   
    52   24   56 1   
    53   24   57 1   
    54   24   58 1   
    55   25   26 1   
    56   25   27 2   
    57   26   28 1   
    58   26   29 1   
    59   26   59 1   
    60   28   30 1   
    61   28   60 1   
    62   28   61 1   
    63   29   62 1   
    64   29   63 1   
    65   29   64 1   
    66   30   65 1   
    67   30   66 1   
    68   30   67 1   
@<TRIPOS>SUBSTRUCTURE
     1 LVA         1 TEMP              0 ****  ****    0 ROOT
