@<TRIPOS>MOLECULE
LVA
   67    68     1     0     0
SMALL
bcc


@<TRIPOS>ATOM
      1 O1         -0.4360   -3.7400    6.8050 o         1 LVA     -0.846300
      2 O2         -0.3710    0.0890    4.8810 oh        1 LVA     -0.674800
      3 O3          0.5000   -1.7130    6.8000 o         1 LVA     -0.846300
      4 O8         -0.8030    1.2430    2.2640 oh        1 LVA     -0.634800
      5 O4          1.3430    0.4050   -1.9330 os        1 LVA     -0.425900
      6 C5         -2.9330    0.6990   -4.2800 ce        1 LVA     -0.147000
      7 C6         -1.5730    0.1740   -4.2340 ce        1 LVA     -0.077200
      8 C7         -0.9480   -0.1470    1.9930 c3        1 LVA      0.154100
      9 C8         -3.5710    1.0370   -3.1510 c2        1 LVA     -0.146200
     10 C9         -0.8090    0.6180   -3.0130 c3        1 LVA     -0.020500
     11 C10        -0.3550   -2.5540    6.3830 c         1 LVA      0.909600
     12 C11        -2.9590    0.9400   -1.7920 c3        1 LVA     -0.036500
     13 C12        -1.6390    0.1450   -1.8060 c3        1 LVA     -0.036700
     14 C13        -0.7100   -1.1650    4.3010 c3        1 LVA      0.171100
     15 C14        -1.1150   -0.7160   -5.1290 c2        1 LVA     -0.166200
     16 C15         0.6520    0.1830   -3.1700 c3        1 LVA      0.157100
     17 C16        -1.7450   -0.2540    0.6920 c3        1 LVA     -0.081400
     18 C17        -1.6520   -0.8750    3.1320 c3        1 LVA     -0.122400
     19 C18        -0.9070    0.2100   -0.4820 c3        1 LVA     -0.073400
     20 C19         0.7740   -1.2670   -3.6130 c3        1 LVA     -0.097400
     21 C20        -2.8150    2.3350   -1.2110 c3        1 LVA     -0.091100
     22 C21        -1.3590   -2.0950    5.3130 c3        1 LVA     -0.234400
     23 C22         0.2060   -1.3940   -5.0220 c3        1 LVA     -0.028500
     24 C23         0.0990   -2.8530   -5.4180 c3        1 LVA     -0.085100
     25 C25         3.2730    0.8380   -0.5980 c3        1 LVA     -0.107700
     26 O26         3.2720    0.5750   -3.0630 o         1 LVA     -0.559000
     27 C27         4.7170    1.3060   -0.7140 c3        1 LVA     -0.077400
     28 C28         3.1480   -0.4200    0.2370 c3        1 LVA     -0.092100
     29 C29         5.1820    2.0010    0.5390 c3        1 LVA     -0.094100
     30 HO2         0.0860   -0.1080    5.7200 ho        1 LVA      0.465000
     31 HO8        -0.5120    1.3210    3.1840 ho        1 LVA      0.436000
     32 H5         -3.4130    0.7700   -5.2670 ha        1 LVA      0.121000
     33 H7          0.0810   -0.5870    1.8430 h1        1 LVA      0.028700
     34 H8         -4.6030    1.4200   -3.1730 ha        1 LVA      0.118000
     35 H9         -0.7920    1.7460   -2.9820 hc        1 LVA      0.065700
     36 H11        -3.6790    0.3650   -1.1370 hc        1 LVA      0.058700
     37 H12        -1.9080   -0.9370   -1.9840 hc        1 LVA      0.045700
     38 H13         0.2370   -1.6420    3.9140 h1        1 LVA      0.027700
     39 H14        -1.7260   -1.0070   -5.9980 ha        1 LVA      0.120000
     40 H15         1.1240    0.8420   -3.9590 h1        1 LVA      0.062700
     41 H161       -2.6720    0.3650    0.7910 hc        1 LVA      0.041200
     42 H162       -2.0550   -1.3200    0.5390 hc        1 LVA      0.041200
     43 H171       -2.5090   -0.2520    3.4940 hc        1 LVA      0.049200
     44 H172       -2.0560   -1.8510    2.7590 hc        1 LVA      0.049200
     45 H181       -0.0070   -0.4630   -0.5400 hc        1 LVA      0.058200
     46 H182       -0.5340    1.2500   -0.2920 hc        1 LVA      0.058200
     47 H191        1.8530   -1.5720   -3.6050 hc        1 LVA      0.059200
     48 H192        0.2180   -1.9310   -2.9030 hc        1 LVA      0.059200
     49 H201       -3.7930    2.8720   -1.2630 hc        1 LVA      0.040700
     50 H202       -2.4950    2.2840   -0.1410 hc        1 LVA      0.040700
     51 H203       -2.0580    2.9280   -1.7760 hc        1 LVA      0.040700
     52 H211       -2.1960   -1.5630    5.8300 hc        1 LVA      0.036700
     53 H212       -1.7760   -2.9910    4.7920 hc        1 LVA      0.036700
     54 H22         0.9170   -0.8820   -5.7370 hc        1 LVA      0.056700
     55 H231       -0.2550   -2.9450   -6.4730 hc        1 LVA      0.034700
     56 H232        1.0960   -3.3460   -5.3300 hc        1 LVA      0.034700
     57 H233       -0.6220   -3.3890   -4.7550 hc        1 LVA      0.034700
     58 H25         2.6540    1.6510   -0.1190 hc        1 LVA      0.090700
     59 H271        4.8090    2.0040   -1.5890 hc        1 LVA      0.051200
     60 H272        5.3750    0.4230   -0.9300 hc        1 LVA      0.051200
     61 H281        3.7230   -1.2600   -0.2210 hc        1 LVA      0.051367
     62 H282        3.5450   -0.2340    1.2640 hc        1 LVA      0.051367
     63 H283        2.0730   -0.7190    0.3190 hc        1 LVA      0.051367
     64 H291        6.2420    2.3320    0.4210 hc        1 LVA      0.036700
     65 H292        4.5530    2.9000    0.7500 hc        1 LVA      0.036700
     66 H293        5.1220    1.3180    1.4210 hc        1 LVA      0.036700
     67 C24         2.6970    0.5990   -1.9720 c         1 LVA      0.634100
@<TRIPOS>BOND
     1    1   11 1   
     2    2   14 1   
     3    2   30 1   
     4    3   11 1   
     5    4    8 1   
     6    4   31 1   
     7    5   16 1   
     8    5   67 1   
     9    6    7 1   
    10    6    9 2   
    11    6   32 1   
    12    7   10 1   
    13    7   15 2   
    14    8   17 1   
    15    8   18 1   
    16    8   33 1   
    17    9   12 1   
    18    9   34 1   
    19   10   13 1   
    20   10   16 1   
    21   10   35 1   
    22   11   22 1   
    23   12   13 1   
    24   12   21 1   
    25   12   36 1   
    26   13   19 1   
    27   13   37 1   
    28   14   18 1   
    29   14   22 1   
    30   14   38 1   
    31   15   23 1   
    32   15   39 1   
    33   16   20 1   
    34   16   40 1   
    35   17   19 1   
    36   17   41 1   
    37   17   42 1   
    38   18   43 1   
    39   18   44 1   
    40   19   45 1   
    41   19   46 1   
    42   20   23 1   
    43   20   47 1   
    44   20   48 1   
    45   21   49 1   
    46   21   50 1   
    47   21   51 1   
    48   22   52 1   
    49   22   53 1   
    50   23   24 1   
    51   23   54 1   
    52   24   55 1   
    53   24   56 1   
    54   24   57 1   
    55   25   27 1   
    56   25   28 1   
    57   25   58 1   
    58   25   67 1   
    59   26   67 2   
    60   27   29 1   
    61   27   59 1   
    62   27   60 1   
    63   28   61 1   
    64   28   62 1   
    65   28   63 1   
    66   29   64 1   
    67   29   65 1   
    68   29   66 1   
@<TRIPOS>SUBSTRUCTURE
     1 LVA         1 TEMP              0 ****  ****    0 ROOT
