@<TRIPOS>MOLECULE
LVG
   13    12     1     0     0
SMALL
bcc


@<TRIPOS>ATOM
      1 N           1.8190    0.4990   -0.6120 n3        1 LVG     -0.883800
      2 CA          0.3660    0.3970   -0.4890 c3        1 LVG      0.031700
      3 C          -0.0860   -0.1780    0.9040 c         1 LVG      0.892600
      4 O           0.6240   -1.0940    1.4080 o         1 LVG     -0.836300
      5 CB         -0.2290   -0.4730   -1.5510 c2        1 LVG     -0.087200
      6 OXT        -1.1050    0.3290    1.4420 o         1 LVG     -0.836300
      7 CG1        -1.1330   -0.0560   -2.4350 c2        1 LVG     -0.280000
      8 H           2.1510    0.9980    0.1950 hn        1 LVG      0.329300
      9 H2          2.2020   -0.4290   -0.5460 hn        1 LVG      0.329300
     10 HA         -0.0480    1.4430   -0.5760 h1        1 LVG      0.049700
     11 HB          0.1100   -1.5230   -1.5290 ha        1 LVG      0.111000
     12 HG11       -1.5900   -0.7300   -3.1690 ha        1 LVG      0.089500
     13 HG12       -1.4930    0.9790   -2.4700 ha        1 LVG      0.089500
@<TRIPOS>BOND
     1    1    2 1   
     2    1    8 1   
     3    1    9 1   
     4    2    3 1   
     5    2    5 1   
     6    2   10 1   
     7    3    4 1   
     8    3    6 1   
     9    5    7 2   
    10    5   11 1   
    11    7   12 1   
    12    7   13 1   
@<TRIPOS>SUBSTRUCTURE
     1 LVG         1 TEMP              0 ****  ****    0 ROOT
