@<TRIPOS>MOLECULE
LVJ
   76    78     1     0     0
SMALL
bcc


@<TRIPOS>ATOM
      1 O3          0.1720    0.8640   -0.0890 o         1 LVJ     -0.385100
      2 C22         1.2980    1.0040    0.3440 c         1 LVJ      0.554100
      3 C23         1.7870    1.6970    1.6110 c3        1 LVJ     -0.090000
      4 C26         0.5600    1.9470    2.4850 c3        1 LVJ     -0.117100
      5 C25         2.7810    0.8190    2.3520 c3        1 LVJ     -0.117100
      6 C24         2.4220    3.0230    1.2160 c3        1 LVJ     -0.117100
      7 N4          2.4150    0.3960   -0.5340 n4        1 LVJ     -0.695800
      8 C21         1.9300   -0.0470   -1.8710 c3        1 LVJ      0.146100
      9 C19         3.0000   -0.6260   -2.7450 ca        1 LVJ     -0.134300
     10 C18         3.8740    0.2540   -3.4000 ca        1 LVJ     -0.044000
     11 C17         4.8240   -0.2130   -4.3010 ca        1 LVJ     -0.086000
     12 C16         4.9110   -1.5810   -4.5860 ca        1 LVJ      0.074400
     13 CL          6.0660   -2.1270   -5.6860 cl        1 LVJ      0.015600
     14 C20         3.0820   -2.0020   -3.0080 ca        1 LVJ      0.075400
     15 CL1         2.0650   -3.1020   -2.2190 cl        1 LVJ     -0.001400
     16 C15         4.0350   -2.4820   -3.9400 ca        1 LVJ     -0.046400
     17 N3          4.1230   -3.9200   -4.2330 n4        1 LVJ     -0.545400
     18 C1          3.4880   -4.2880   -5.5090 cc        1 LVJ      0.399700
     19 N1          2.2760   -3.8290   -5.9140 nd        1 LVJ     -0.441100
     20 C2          2.0570   -4.4560   -7.1490 ca        1 LVJ      0.004400
     21 C11         3.1890   -5.3130   -7.4810 ca        1 LVJ      0.052800
     22 N           4.0970   -5.2010   -6.4300 na        1 LVJ     -0.130300
     23 C           5.3660   -5.8420   -6.2840 c3        1 LVJ     -0.007400
     24 C10         3.2220   -6.0410   -8.6780 ca        1 LVJ     -0.211000
     25 C5          2.1300   -5.9150   -9.5360 ca        1 LVJ      0.237100
     26 O           2.0990   -6.4910  -10.7730 os        1 LVJ     -0.358900
     27 C6          2.8690   -7.6960  -10.9860 c3        1 LVJ      0.133400
     28 C7          2.2150   -8.3790  -12.2040 c3        1 LVJ      0.158800
     29 O1          0.8030   -8.2950  -11.9680 oh        1 LVJ     -0.681800
     30 C9          2.5600   -7.6430  -13.4890 c3        1 LVJ     -0.132600
     31 C8          2.6680   -9.8300  -12.2600 c3        1 LVJ     -0.132600
     32 C4          0.9930   -5.1040   -9.2120 ca        1 LVJ     -0.231600
     33 C3          0.9700   -4.3600   -8.0300 ca        1 LVJ      0.077000
     34 C12        -0.1820   -4.9460  -10.0860 c         1 LVJ      0.582700
     35 O2         -0.9450   -3.9880  -10.0920 o         1 LVJ     -0.413100
     36 N2         -0.5130   -6.0720  -11.0290 n4        1 LVJ     -0.657800
     37 C13        -1.8640   -5.9750  -11.6280 c3        1 LVJ      0.040800
     38 C14        -2.1320   -7.1930  -12.5960 c3        1 LVJ      0.637900
     39 F          -2.0120   -8.4000  -11.9600 f         1 LVJ     -0.199633
     40 F1         -3.3790   -7.1430  -13.1360 f         1 LVJ     -0.199633
     41 F2         -1.2390   -7.2430  -13.6320 f         1 LVJ     -0.199633
     42 H4          2.8140   -0.3960   -0.0190 hn        1 LVJ      0.456800
     43 H261        0.0960    0.9810    2.7970 hc        1 LVJ      0.074922
     44 H262       -0.2000    2.5550    1.9350 hc        1 LVJ      0.074922
     45 H263        0.8730    2.5080    3.4010 hc        1 LVJ      0.074922
     46 H251        3.7670    0.7750    1.8300 hc        1 LVJ      0.074922
     47 H252        2.3810   -0.2130    2.4970 hc        1 LVJ      0.074922
     48 H253        2.9610    1.2590    3.3690 hc        1 LVJ      0.074922
     49 H241        3.3620    2.8720    0.6340 hc        1 LVJ      0.074922
     50 H242        2.6820    3.5890    2.1480 hc        1 LVJ      0.074922
     51 H243        1.7110    3.6490    0.6240 hc        1 LVJ      0.074922
     52 H211        1.4780    0.8560   -2.3860 hx        1 LVJ      0.137700
     53 H212        1.0870   -0.7830   -1.7040 hx        1 LVJ      0.137700
     54 H18         3.8000    1.3420   -3.2190 ha        1 LVJ      0.181000
     55 H17         5.5090    0.4970   -4.8060 ha        1 LVJ      0.213000
     56 H3          3.6410   -4.4530   -3.4830 hn        1 LVJ      0.487800
     57 HA          0.1100   -3.7050   -7.7910 ha        1 LVJ      0.199000
     58 H10         4.0820   -6.6730   -8.9470 ha        1 LVJ      0.185000
     59 HC1         5.5660   -6.4800   -7.1890 h1        1 LVJ      0.087700
     60 HC2         5.3680   -6.5040   -5.3740 h1        1 LVJ      0.087700
     61 HC3         6.1840   -5.0730   -6.2030 h1        1 LVJ      0.087700
     62 H61C        2.8110   -8.3490  -10.0800 h1        1 LVJ      0.076700
     63 H62C        3.9250   -7.4040  -11.2170 h1        1 LVJ      0.076700
     64 H1          0.3680   -8.9030  -12.5820 ho        1 LVJ      0.450000
     65 H91C        3.6550   -7.7180  -13.6940 hc        1 LVJ      0.067867
     66 H92C        2.0070   -8.0930  -14.3500 hc        1 LVJ      0.067867
     67 H93C        2.2770   -6.5670  -13.4030 hc        1 LVJ      0.067867
     68 H81C        2.2910  -10.3930  -11.3720 hc        1 LVJ      0.067867
     69 H82C        3.7830   -9.8840  -12.2840 hc        1 LVJ      0.067867
     70 H83C        2.2720  -10.3160  -13.1850 hc        1 LVJ      0.067867
     71 H2         -0.4110   -6.9780  -10.5370 hn        1 LVJ      0.494800
     72 H131       -2.6480   -5.9810  -10.8190 hx        1 LVJ      0.152700
     73 H132       -1.9560   -5.0180  -12.2190 hx        1 LVJ      0.152700
     74 H42         3.1510    1.1030   -0.6410 hn        1 LVJ      0.456800
     75 H32         5.1220   -4.1910   -4.2570 hn        1 LVJ      0.487800
     76 H22         0.2020   -6.1020  -11.7880 hn        1 LVJ      0.494800
@<TRIPOS>BOND
     1    1    2 2   
     2    2    3 1   
     3    2    7 1   
     4    3    4 1   
     5    3    5 1   
     6    3    6 1   
     7    4   43 1   
     8    4   44 1   
     9    4   45 1   
    10    5   46 1   
    11    5   47 1   
    12    5   48 1   
    13    6   49 1   
    14    6   50 1   
    15    6   51 1   
    16    7    8 1   
    17    7   42 1   
    18    7   74 1   
    19    8    9 1   
    20    8   52 1   
    21    8   53 1   
    22    9   10 ar  
    23    9   14 ar  
    24   10   11 ar  
    25   10   54 1   
    26   11   12 ar  
    27   11   55 1   
    28   12   13 1   
    29   12   16 ar  
    30   14   15 1   
    31   14   16 ar  
    32   16   17 1   
    33   17   18 1   
    34   17   56 1   
    35   17   75 1   
    36   18   19 2   
    37   18   22 1   
    38   19   20 1   
    39   20   21 ar  
    40   20   33 ar  
    41   21   22 1   
    42   21   24 ar  
    43   22   23 1   
    44   23   59 1   
    45   23   60 1   
    46   23   61 1   
    47   24   25 ar  
    48   24   58 1   
    49   25   26 1   
    50   25   32 ar  
    51   26   27 1   
    52   27   28 1   
    53   27   62 1   
    54   27   63 1   
    55   28   29 1   
    56   28   30 1   
    57   28   31 1   
    58   29   64 1   
    59   30   65 1   
    60   30   66 1   
    61   30   67 1   
    62   31   68 1   
    63   31   69 1   
    64   31   70 1   
    65   32   33 ar  
    66   32   34 1   
    67   33   57 1   
    68   34   35 2   
    69   34   36 1   
    70   36   37 1   
    71   36   71 1   
    72   36   76 1   
    73   37   38 1   
    74   37   72 1   
    75   37   73 1   
    76   38   39 1   
    77   38   40 1   
    78   38   41 1   
@<TRIPOS>SUBSTRUCTURE
     1 LVJ         1 TEMP              0 ****  ****    0 ROOT
