@<TRIPOS>MOLECULE
LVJ
   75    77     1     0     0
SMALL
bcc


@<TRIPOS>ATOM
      1 O3          0.0440    0.8410   -0.7860 o         1 LVJ     -0.398100
      2 C22         1.0690    0.4940   -0.2300 c         1 LVJ      0.543100
      3 C23         1.3370    0.3360    1.2630 c3        1 LVJ     -0.099000
      4 C26        -0.0120    0.3860    1.9750 c3        1 LVJ     -0.113100
      5 C25         2.0190   -0.9930    1.5450 c3        1 LVJ     -0.113100
      6 C24         2.2070    1.4980    1.7220 c3        1 LVJ     -0.113100
      7 N4          2.2520    0.1840   -1.1360 n4        1 LVJ     -0.686800
      8 C21         2.0570    0.6370   -2.5490 c3        1 LVJ      0.167100
      9 C19         3.2460    0.3450   -3.4030 ca        1 LVJ     -0.170300
     10 C18         4.0410    1.4100   -3.8350 ca        1 LVJ     -0.072000
     11 C17         5.1130    1.1860   -4.6940 ca        1 LVJ     -0.100000
     12 C16         5.3950   -0.1070   -5.1390 ca        1 LVJ      0.030400
     13 CL          6.6980   -0.3440   -6.1910 cl        1 LVJ     -0.024400
     14 C20         3.5330   -0.9620   -3.8320 ca        1 LVJ      0.064400
     15 CL1         2.5790   -2.2510   -3.2690 cl        1 LVJ     -0.055400
     16 C15         4.6080   -1.2080   -4.7150 ca        1 LVJ      0.120600
     17 N3          4.9230   -2.5400   -5.0980 nh        1 LVJ     -0.642600
     18 C1          4.1400   -3.1160   -6.1280 cc        1 LVJ      0.612700
     19 N1          2.9250   -2.6840   -6.5630 nd        1 LVJ     -0.568100
     20 C2          2.5290   -3.6230   -7.5370 ca        1 LVJ      0.046400
     21 C11         3.5540   -4.6520   -7.6810 ca        1 LVJ      0.028800
     22 N           4.5690   -4.3260   -6.7900 na        1 LVJ     -0.166300
     23 C           5.7690   -5.0480   -6.5200 c3        1 LVJ      0.015600
     24 C10         3.4150   -5.6880   -8.6100 ca        1 LVJ     -0.199000
     25 C5          2.2600   -5.7010   -9.3920 ca        1 LVJ      0.193100
     26 O           2.0930   -6.6110  -10.4120 os        1 LVJ     -0.374900
     27 C6          2.6660   -7.9170  -10.2180 c3        1 LVJ      0.135400
     28 C7          1.8980   -8.8570  -11.1670 c3        1 LVJ      0.154800
     29 O1          0.5120   -8.5500  -10.9710 oh        1 LVJ     -0.672800
     30 C9          2.2780   -8.5930  -12.6160 c3        1 LVJ     -0.129600
     31 C8          2.1870  -10.2990  -10.7780 c3        1 LVJ     -0.129600
     32 C4          1.2320   -4.7250   -9.2480 ca        1 LVJ     -0.251600
     33 C3          1.3870   -3.6690   -8.3270 ca        1 LVJ      0.037000
     34 C12        -0.0020   -4.6890  -10.0260 c         1 LVJ      0.594700
     35 O2         -0.7500   -3.7320  -10.1900 o         1 LVJ     -0.447100
     36 N2         -0.4580   -5.9830  -10.6730 n4        1 LVJ     -0.662800
     37 C13        -1.8320   -5.9240  -11.2110 c3        1 LVJ      0.048800
     38 C14        -2.2670   -7.3130  -11.8110 c3        1 LVJ      0.632900
     39 F          -2.2270   -8.3250  -10.8890 f         1 LVJ     -0.205967
     40 F1         -3.5350   -7.2780  -12.3050 f         1 LVJ     -0.205967
     41 F2         -1.4540   -7.7280  -12.8320 f         1 LVJ     -0.205967
     42 H4          2.4050   -0.8340   -1.1240 hn        1 LVJ      0.459800
     43 H261        0.1520    0.3250    3.0790 hc        1 LVJ      0.070033
     44 H262       -0.5430    1.3410    1.7420 hc        1 LVJ      0.070033
     45 H263       -0.6540   -0.4710    1.6580 hc        1 LVJ      0.070033
     46 H251        3.0830   -0.9930    1.2050 hc        1 LVJ      0.070033
     47 H252        2.0200   -1.1710    2.6510 hc        1 LVJ      0.070033
     48 H253        1.4700   -1.8370    1.0630 hc        1 LVJ      0.070033
     49 H241        3.2310    1.4430    1.2820 hc        1 LVJ      0.070033
     50 H242        2.3090    1.4550    2.8360 hc        1 LVJ      0.070033
     51 H243        1.7390    2.4760    1.4550 hc        1 LVJ      0.070033
     52 H211        1.1360    0.1180   -2.9540 hx        1 LVJ      0.124700
     53 H212        1.8420    1.7460   -2.5240 hx        1 LVJ      0.124700
     54 H18         3.8160    2.4400   -3.5120 ha        1 LVJ      0.163000
     55 H17         5.7330    2.0350   -5.0340 ha        1 LVJ      0.186000
     56 H3          5.9110   -2.6880   -5.2250 hn        1 LVJ      0.437800
     57 HA          0.6100   -2.8890   -8.2420 ha        1 LVJ      0.185000
     58 H10         4.1940   -6.4520   -8.7420 ha        1 LVJ      0.169000
     59 HC1         6.6630   -4.4120   -6.7710 h1        1 LVJ      0.072033
     60 HC2         5.8130   -5.3350   -5.4340 h1        1 LVJ      0.072033
     61 HC3         5.7980   -5.9790   -7.1470 h1        1 LVJ      0.072033
     62 H61C        3.7480   -7.8790  -10.5040 h1        1 LVJ      0.070200
     63 H62C        2.5410   -8.2370   -9.1520 h1        1 LVJ      0.070200
     64 H1         -0.0020   -9.2440  -11.4040 ho        1 LVJ      0.440000
     65 H91C        1.6510   -9.2160  -13.2980 hc        1 LVJ      0.062367
     66 H92C        3.3510   -8.8480  -12.7840 hc        1 LVJ      0.062367
     67 H93C        2.1180   -7.5160  -12.8620 hc        1 LVJ      0.062367
     68 H81C        1.7860  -10.5160   -9.7590 hc        1 LVJ      0.062367
     69 H82C        3.2870  -10.4860  -10.7870 hc        1 LVJ      0.062367
     70 H83C        1.7030  -10.9940  -11.5070 hc        1 LVJ      0.062367
     71 H2          0.2070   -6.2340  -11.4300 hn        1 LVJ      0.489300
     72 H131       -1.8930   -5.1440  -12.0240 hx        1 LVJ      0.147700
     73 H132       -2.5540   -5.6480  -10.3910 hx        1 LVJ      0.147700
     74 H42         3.0870    0.6310   -0.7430 hn        1 LVJ      0.459800
     75 H22        -0.3780   -6.7520   -9.9850 hn        1 LVJ      0.489300
@<TRIPOS>BOND
     1    1    2 2   
     2    2    3 1   
     3    2    7 1   
     4    3    4 1   
     5    3    5 1   
     6    3    6 1   
     7    4   43 1   
     8    4   44 1   
     9    4   45 1   
    10    5   46 1   
    11    5   47 1   
    12    5   48 1   
    13    6   49 1   
    14    6   50 1   
    15    6   51 1   
    16    7    8 1   
    17    7   42 1   
    18    7   74 1   
    19    8    9 1   
    20    8   52 1   
    21    8   53 1   
    22    9   10 ar  
    23    9   14 ar  
    24   10   11 ar  
    25   10   54 1   
    26   11   12 ar  
    27   11   55 1   
    28   12   13 1   
    29   12   16 ar  
    30   14   15 1   
    31   14   16 ar  
    32   16   17 1   
    33   17   18 1   
    34   17   56 1   
    35   18   19 2   
    36   18   22 1   
    37   19   20 1   
    38   20   21 ar  
    39   20   33 ar  
    40   21   22 1   
    41   21   24 ar  
    42   22   23 1   
    43   23   59 1   
    44   23   60 1   
    45   23   61 1   
    46   24   25 ar  
    47   24   58 1   
    48   25   26 1   
    49   25   32 ar  
    50   26   27 1   
    51   27   28 1   
    52   27   62 1   
    53   27   63 1   
    54   28   29 1   
    55   28   30 1   
    56   28   31 1   
    57   29   64 1   
    58   30   65 1   
    59   30   66 1   
    60   30   67 1   
    61   31   68 1   
    62   31   69 1   
    63   31   70 1   
    64   32   33 ar  
    65   32   34 1   
    66   33   57 1   
    67   34   35 2   
    68   34   36 1   
    69   36   37 1   
    70   36   71 1   
    71   36   75 1   
    72   37   38 1   
    73   37   72 1   
    74   37   73 1   
    75   38   39 1   
    76   38   40 1   
    77   38   41 1   
@<TRIPOS>SUBSTRUCTURE
     1 LVJ         1 TEMP              0 ****  ****    0 ROOT
