@<TRIPOS>MOLECULE
LVJ
   75    77     1     0     0
SMALL
bcc


@<TRIPOS>ATOM
      1 O3          0.0420    0.8370   -0.7820 o         1 LVJ     -0.398100
      2 C22         1.0630    0.4820   -0.2220 c         1 LVJ      0.543100
      3 C23         1.3220    0.3190    1.2720 c3        1 LVJ     -0.099000
      4 C26        -0.0300    0.3740    1.9770 c3        1 LVJ     -0.113100
      5 C25         1.9960   -1.0130    1.5540 c3        1 LVJ     -0.113100
      6 C24         2.1960    1.4750    1.7380 c3        1 LVJ     -0.113100
      7 N4          2.2480    0.1690   -1.1230 ny        1 LVJ     -0.686800
      8 C21         2.0620    0.6260   -2.5350 c3        1 LVJ      0.167100
      9 C19         3.2540    0.3300   -3.3850 ca        1 LVJ     -0.170300
     10 C18         4.0580    1.3910   -3.8100 ca        1 LVJ     -0.072000
     11 C17         5.1320    1.1640   -4.6630 ca        1 LVJ     -0.100000
     12 C16         5.4090   -0.1300   -5.1110 ca        1 LVJ      0.030400
     13 Cl          6.7160   -0.3720   -6.1570 cl        1 LVJ     -0.024400
     14 C20         3.5360   -0.9770   -3.8160 ca        1 LVJ      0.064400
     15 Cl1         2.5700   -2.2620   -3.2610 cl        1 LVJ     -0.055400
     16 C15         4.6140   -1.2280   -4.6940 ca        1 LVJ      0.120600
     17 N3          4.9220   -2.5600   -5.0800 nu        1 LVJ     -0.642600
     18 C1          4.1420   -3.1280   -6.1150 cc        1 LVJ      0.612700
     19 N1          2.9320   -2.6870   -6.5560 nd        1 LVJ     -0.568100
     20 C2          2.5360   -3.6220   -7.5360 ca        1 LVJ      0.046400
     21 C11         3.5550   -4.6570   -7.6760 ca        1 LVJ      0.028800
     22 N           4.5670   -4.3390   -6.7780 na        1 LVJ     -0.166300
     23 C           5.7610   -5.0700   -6.5030 c3        1 LVJ      0.015600
     24 C10         3.4150   -5.6890   -8.6090 ca        1 LVJ     -0.199000
     25 C5          2.2650   -5.6920   -9.3980 ca        1 LVJ      0.193100
     26 O           2.0990   -6.5980  -10.4220 os        1 LVJ     -0.374900
     27 C6          2.6620   -7.9090  -10.2270 c3        1 LVJ      0.135400
     28 C7          1.8940   -8.8420  -11.1840 c3        1 LVJ      0.154800
     29 O1          0.5080   -8.5250  -10.9950 oh        1 LVJ     -0.672800
     30 C9          2.2840   -8.5760  -12.6290 c3        1 LVJ     -0.129600
     31 C8          2.1700  -10.2870  -10.7970 c3        1 LVJ     -0.129600
     32 C4          1.2430   -4.7100   -9.2580 ca        1 LVJ     -0.251600
     33 C3          1.3990   -3.6580   -8.3320 ca        1 LVJ      0.037000
     34 C12         0.0140   -4.6640  -10.0430 c         1 LVJ      0.594700
     35 O2         -0.7280   -3.7020  -10.2080 o         1 LVJ     -0.447100
     36 N2         -0.4460   -5.9530  -10.6960 ny        1 LVJ     -0.662800
     37 C13        -1.8170   -5.8840  -11.2440 c3        1 LVJ      0.048800
     38 C14        -2.2560   -7.2680  -11.8510 c3        1 LVJ      0.632900
     39 F          -2.2300   -8.2830  -10.9310 f         1 LVJ     -0.205967
     40 F1         -3.5210   -7.2240  -12.3530 f         1 LVJ     -0.205967
     41 F2         -1.4390   -7.6860  -12.8680 f         1 LVJ     -0.205967
     42 H4          3.0840    0.6100   -0.7240 hn        1 LVJ      0.459800
     43 H261       -0.5560    1.3320    1.7450 hc        1 LVJ      0.070033
     44 H262        0.1280    0.3090    3.0820 hc        1 LVJ      0.070033
     45 H263       -0.6750   -0.4780    1.6550 hc        1 LVJ      0.070033
     46 H251        1.9910   -1.1950    2.6600 hc        1 LVJ      0.070033
     47 H252        1.4460   -1.8540    1.0670 hc        1 LVJ      0.070033
     48 H253        3.0610   -1.0180    1.2190 hc        1 LVJ      0.070033
     49 H241        2.2920    1.4290    2.8530 hc        1 LVJ      0.070033
     50 H242        3.2220    1.4170    1.3030 hc        1 LVJ      0.070033
     51 H243        1.7340    2.4570    1.4720 hc        1 LVJ      0.070033
     52 H211        1.8550    1.7360   -2.5090 hx        1 LVJ      0.124700
     53 H212        1.1410    0.1150   -2.9470 hx        1 LVJ      0.124700
     54 H18         3.8370    2.4220   -3.4840 ha        1 LVJ      0.163000
     55 H17         5.7590    2.0090   -4.9980 ha        1 LVJ      0.186000
     56 H3          5.9100   -2.7140   -5.2010 hn        1 LVJ      0.437800
     57 HA          0.6260   -2.8730   -8.2490 ha        1 LVJ      0.185000
     58 H10         4.1910   -6.4580   -8.7380 ha        1 LVJ      0.169000
     59 HC1         6.6600   -4.4390   -6.7470 h1        1 LVJ      0.072033
     60 HC2         5.7880   -5.9990   -7.1330 h1        1 LVJ      0.072033
     61 HC3         5.7960   -5.3600   -5.4180 h1        1 LVJ      0.072033
     62 H61C        2.5290   -8.2310   -9.1630 h1        1 LVJ      0.070200
     63 H62C        3.7460   -7.8770  -10.5070 h1        1 LVJ      0.070200
     64 H1         -0.0080   -9.2150  -11.4340 ho        1 LVJ      0.440000
     65 H91C        2.1330   -7.4970  -12.8740 hc        1 LVJ      0.062367
     66 H92C        1.6570   -9.1930  -13.3170 hc        1 LVJ      0.062367
     67 H93C        3.3570   -8.8380  -12.7910 hc        1 LVJ      0.062367
     68 H81C        1.7620  -10.5040   -9.7810 hc        1 LVJ      0.062367
     69 H82C        1.6870  -10.9760  -11.5310 hc        1 LVJ      0.062367
     70 H83C        3.2690  -10.4810  -10.7990 hc        1 LVJ      0.062367
     71 H2          0.2220   -6.2070  -11.4500 hn        1 LVJ      0.489300
     72 H131       -2.5430   -5.6050  -10.4270 hx        1 LVJ      0.147700
     73 H132       -1.8670   -5.1010  -12.0550 hx        1 LVJ      0.147700
     74 H42         2.3950   -0.8500   -1.1130 hn        1 LVJ      0.459800
     75 H22        -0.3760   -6.7250  -10.0100 hn        1 LVJ      0.489300
@<TRIPOS>BOND
     1    1    2 2   
     2    2    3 1   
     3    2    7 1   
     4    3    4 1   
     5    3    5 1   
     6    3    6 1   
     7    4   43 1   
     8    4   44 1   
     9    4   45 1   
    10    5   46 1   
    11    5   47 1   
    12    5   48 1   
    13    6   49 1   
    14    6   50 1   
    15    6   51 1   
    16    7    8 1   
    17    7   42 1   
    18    7   74 1   
    19    8    9 1   
    20    8   52 1   
    21    8   53 1   
    22    9   10 ar  
    23    9   14 ar  
    24   10   11 ar  
    25   10   54 1   
    26   11   12 ar  
    27   11   55 1   
    28   12   13 1   
    29   12   16 ar  
    30   14   15 1   
    31   14   16 ar  
    32   16   17 1   
    33   17   18 1   
    34   17   56 1   
    35   18   19 2   
    36   18   22 1   
    37   19   20 1   
    38   20   21 ar  
    39   20   33 ar  
    40   21   22 1   
    41   21   24 ar  
    42   22   23 1   
    43   23   59 1   
    44   23   60 1   
    45   23   61 1   
    46   24   25 ar  
    47   24   58 1   
    48   25   26 1   
    49   25   32 ar  
    50   26   27 1   
    51   27   28 1   
    52   27   62 1   
    53   27   63 1   
    54   28   29 1   
    55   28   30 1   
    56   28   31 1   
    57   29   64 1   
    58   30   65 1   
    59   30   66 1   
    60   30   67 1   
    61   31   68 1   
    62   31   69 1   
    63   31   70 1   
    64   32   33 ar  
    65   32   34 1   
    66   33   57 1   
    67   34   35 2   
    68   34   36 1   
    69   36   37 1   
    70   36   71 1   
    71   36   75 1   
    72   37   38 1   
    73   37   72 1   
    74   37   73 1   
    75   38   39 1   
    76   38   40 1   
    77   38   41 1   
@<TRIPOS>SUBSTRUCTURE
     1 LVJ         1 TEMP              0 ****  ****    0 ROOT
