@<TRIPOS>MOLECULE
LVN
   17    16     1     0     0
SMALL
bcc


@<TRIPOS>ATOM
      1 C          -1.6100    0.3450    0.1530 c         1 LVN      0.889600
      2 N          -0.2160   -1.6250    0.9370 n3        1 LVN     -0.896800
      3 O          -2.3990   -0.4790   -0.3910 o         1 LVN     -0.836300
      4 CA         -0.2270   -0.1950    0.6580 c3        1 LVN      0.021500
      5 CB          0.8370    0.2270   -0.3730 c3        1 LVN     -0.161700
      6 CG1         2.2140   -0.0470    0.1580 c         1 LVN      0.580900
      7 OG1         3.1030    0.8070    0.2410 o         1 LVN     -0.585100
      8 CG2         0.6540   -0.4810   -1.6990 c3        1 LVN     -0.088100
      9 OXT        -1.8500    1.5700    0.3280 o         1 LVN     -0.836300
     10 H          -0.9420   -1.8050    1.6080 hn        1 LVN      0.334800
     11 H2         -0.4860   -2.1060    0.0940 hn        1 LVN      0.334800
     12 HA          0.0070    0.3380    1.6250 h1        1 LVN      0.047700
     13 HB          0.6980    1.3360   -0.5260 hc        1 LVN      0.090700
     14 HG11        2.4040   -1.0960    0.4810 h4        1 LVN     -0.007800
     15 HG21        1.2190    0.0480   -2.5030 hc        1 LVN      0.037700
     16 HG22        1.0160   -1.5360   -1.6490 hc        1 LVN      0.037700
     17 HG23       -0.4360   -0.4910   -1.9600 hc        1 LVN      0.037700
@<TRIPOS>BOND
     1    1    3 1   
     2    1    4 1   
     3    1    9 1   
     4    2    4 1   
     5    2   10 1   
     6    2   11 1   
     7    4    5 1   
     8    4   12 1   
     9    5    6 1   
    10    5    8 1   
    11    5   13 1   
    12    6    7 2   
    13    6   14 1   
    14    8   15 1   
    15    8   16 1   
    16    8   17 1   
@<TRIPOS>SUBSTRUCTURE
     1 LVN         1 TEMP              0 ****  ****    0 ROOT
