@<TRIPOS>MOLECULE
LVO
   68    64     1     0     0
SMALL
bcc


@<TRIPOS>ATOM
      1 CAA         1.3810    1.3390   -4.9480 c1        1 LVO      0.025000
      2 CAB         3.0980    1.4160   -4.9820 c1        1 LVO     -0.396000
      3 CAC         3.7420    1.4320   -3.6680 c2        1 LVO      0.034000
      4 CAD         2.8110    2.1920   -2.5420 c3        1 LVO     -0.010000
      5 CAE         1.5910    1.7910   -2.4800 c3        1 LVO     -0.029000
      6 OAF         0.7930    1.8890   -3.8230 o         1 LVO     -0.189000
      7 CAG         0.5850    1.2360   -6.2700 c2        1 LVO      0.386000
      8 OAH        -0.4710    1.9090   -6.4250 o         1 LVO     -0.532500
      9 OAI         0.9950    0.4710   -7.2030 o         1 LVO     -0.532500
     10 CAJ         1.5900    0.2730   -2.0100 c3        1 LVO      0.017000
     11 CAK         1.3860    0.2080   -0.5080 c3        1 LVO      0.020000
     12 CAL        -0.0990   -0.0410   -0.2020 c3        1 LVO     -0.034000
     13 OAM        -0.2590   -0.3310    1.2090 os        1 LVO     -0.297000
     14 CAN        -1.6190   -0.5860    1.6040 c2        1 LVO      0.305000
     15 OAV        -2.5250   -0.0480    1.0230 o         1 LVO     -0.353000
     16 OAW         0.5920   -0.3900   -2.6280 os        1 LVO     -0.291000
     17 CAX         0.8730   -1.7600   -2.8600 c3        1 LVO     -0.087000
     18 OAY         2.1480   -0.8310    0.0180 oh        1 LVO     -0.335000
     19 NAZ         4.0990    0.0860   -3.2580 n3        1 LVO     -0.319000
     20 CBA         5.4490   -0.3270   -3.2970 c2        1 LVO      0.155000
     21 NBB         5.8210   -1.5070   -4.0410 n3        1 LVO     -0.347000
     22 NBC         6.3720    0.3670   -2.6530 n1        1 LVO     -0.335000
     23 CBD         3.6320    4.5830   -2.1080 c1        1 LVO      0.297000
     24 CBE         3.6250    6.0850   -2.4270 c2        1 LVO     -0.243000
     25 OBF         4.3420    4.1530   -1.2150 o         1 LVO     -0.396000
     26 NBG         2.8050    3.6870   -2.8600 n3        1 LVO     -0.354000
     27 HAB         3.5560    1.8090   -5.7550 ha        1 LVO      0.150000
     28 HAC         4.6290    1.8540   -3.7160 h4        1 LVO      0.101000
     29 HAD         3.2230    2.0640   -1.6650 h1        1 LVO      0.138000
     30 HAE         1.1260    2.3230   -1.8060 h1        1 LVO      0.118000
     31 HAJ         2.4450   -0.1380   -2.2390 h1        1 LVO      0.122000
     32 HAK         1.6640    1.0520   -0.1050 h1        1 LVO      0.105000
     33 H1AL       -0.6190    0.7580   -0.4330 h1        1 LVO      0.114000
     34 H2AL       -0.4170   -0.8000   -0.7290 h1        1 LVO      0.114000
     35 C15        -1.9100   -1.4610    2.8380 c3        1 LVO     -0.158000
     36 H1AX        0.0360   -2.2560   -2.9340 h1        1 LVO      0.091667
     37 H2AX        1.4020   -2.1190   -2.1100 h1        1 LVO      0.091667
     38 H3AX        1.3850   -1.8530   -3.6960 h1        1 LVO      0.091667
     39 HOAY        2.4880   -0.5840    0.7870 ho        1 LVO      0.213000
     40 HNAZ        3.4480   -0.5160   -3.0670 hn        1 LVO      0.189000
     41 H1BB        5.2310   -1.8700   -4.6570 hn        1 LVO      0.206000
     42 H2BB        6.6060   -1.9420   -3.8480 hn        1 LVO      0.206000
     43 HBC         6.1340    1.1190   -2.1790 DU        1 LVO      0.143000
     44 H1BE        4.1210    6.5690   -1.7320 ha        1 LVO      0.100667
     45 H2BE        2.6950    6.4110   -2.4540 ha        1 LVO      0.100667
     46 H3BE        4.0510    6.2370   -3.3020 ha        1 LVO      0.100667
     47 HNBG        2.3040    4.0020   -3.5470 hn        1 LVO      0.235000
     48 C16        -3.3370   -1.1390    3.3790 c3        1 LVO     -0.158000
     49 C17        -3.6850   -2.1080    4.5000 c3        1 LVO     -0.157000
     50 C18        -5.0750   -1.7320    5.1000 c3        1 LVO     -0.158000
     51 C19        -5.4730   -2.7710    6.1630 c3        1 LVO     -0.158000
     52 C20        -6.8560   -2.4340    6.7110 c3        1 LVO     -0.159000
     53 C21        -7.2670   -3.4830    7.7210 c3        1 LVO     -0.210000
     54 H23        -1.8620   -2.4100    2.5850 hc        1 LVO      0.114500
     55 H24        -1.2450   -1.2730    3.5360 hc        1 LVO      0.114500
     56 H25        -3.9890   -1.2310    2.6560 hc        1 LVO      0.097000
     57 H26        -3.3570   -0.2220    3.7230 hc        1 LVO      0.097000
     58 H27        -3.0050   -2.0550    5.1990 hc        1 LVO      0.079000
     59 H28        -3.7180   -3.0130    4.1480 hc        1 LVO      0.079000
     60 H29        -5.7490   -1.7210    4.3830 hc        1 LVO      0.081500
     61 H30        -5.0230   -0.8390    5.5160 hc        1 LVO      0.081500
     62 H31        -5.4910   -3.6590    5.7590 hc        1 LVO      0.078500
     63 H32        -4.8220   -2.7580    6.8920 hc        1 LVO      0.078500
     64 H33        -6.8310   -1.5580    7.1420 hc        1 LVO      0.078000
     65 H34        -7.5010   -2.4180    5.9770 hc        1 LVO      0.078000
     66 H35        -7.3280   -4.3570    7.2780 hc        1 LVO      0.070333
     67 H36        -8.1380   -3.2480    8.1000 hc        1 LVO      0.070333
     68 H37        -6.6010   -3.5270    8.4360 hc        1 LVO      0.070333
@<TRIPOS>BOND
     1    1    2 1   
     2    1    7 1   
     3    2   27 1   
     4    3    4 1   
     5    3   19 1   
     6    3   28 1   
     7    4    5 1   
     8    4   26 1   
     9    4   29 1   
    10    5    6 1   
    11    5   10 1   
    12    5   30 1   
    13    7    8 1   
    14    7    9 1   
    15   10   11 1   
    16   10   16 1   
    17   10   31 1   
    18   11   12 1   
    19   11   18 1   
    20   11   32 1   
    21   12   13 1   
    22   12   33 1   
    23   12   34 1   
    24   13   14 1   
    25   14   15 1   
    26   14   35 1   
    27   16   17 1   
    28   17   36 1   
    29   17   37 1   
    30   17   38 1   
    31   18   39 1   
    32   19   20 1   
    33   19   40 1   
    34   20   21 1   
    35   20   22 1   
    36   21   41 1   
    37   21   42 1   
    38   23   25 1   
    39   23   26 1   
    40   24   44 1   
    41   24   45 1   
    42   24   46 1   
    43   26   47 1   
    44   35   48 1   
    45   35   54 1   
    46   35   55 1   
    47   48   49 1   
    48   48   56 1   
    49   48   57 1   
    50   49   50 1   
    51   49   58 1   
    52   49   59 1   
    53   50   51 1   
    54   50   60 1   
    55   50   61 1   
    56   51   52 1   
    57   51   62 1   
    58   51   63 1   
    59   52   53 1   
    60   52   64 1   
    61   52   65 1   
    62   53   66 1   
    63   53   67 1   
    64   53   68 1   
@<TRIPOS>SUBSTRUCTURE
     1 LVO         1 TEMP              0 ****  ****    0 ROOT
