@<TRIPOS>MOLECULE
LVO
   68    68     1     0     0
SMALL
bcc


@<TRIPOS>ATOM
      1 CAA        -2.9010   -1.8010   -0.3210 ce        1 LVO      0.077900
      2 CAB        -4.1020   -1.4410    0.1670 c2        1 LVO     -0.404200
      3 CAC        -4.4050   -0.0740    0.6790 c3        1 LVO      0.213700
      4 CAD        -3.3480    0.9290    0.0970 c3        1 LVO      0.047700
      5 CAE        -1.9530    0.2930    0.2940 c3        1 LVO      0.116100
      6 OAF        -1.8360   -0.9420   -0.4250 os        1 LVO     -0.282900
      7 CAG        -2.5920   -3.2290   -0.8230 c         1 LVO      0.931800
      8 OAH        -1.4870   -3.7330   -0.5140 o         1 LVO     -0.798800
      9 OAI        -3.5160   -3.7850   -1.4730 o         1 LVO     -0.798800
     10 CAJ        -0.7990    1.1780   -0.2140 c3        1 LVO      0.124100
     11 CAK         0.5340    0.5960    0.3160 c3        1 LVO      0.120100
     12 CAL         1.7200    1.2300   -0.4110 c3        1 LVO      0.109400
     13 OAM         2.8510    0.3900   -0.1270 os        1 LVO     -0.418900
     14 CAN         4.0590    0.7960   -0.6120 c         1 LVO      0.633100
     15 OAV         4.1350    1.8860   -1.1870 o         1 LVO     -0.563000
     16 OAW        -0.7410    1.1620   -1.6370 os        1 LVO     -0.395600
     17 CAX        -1.2100    2.3530   -2.2490 c3        1 LVO      0.102700
     18 OAY         0.6210    0.8010    1.7150 oh        1 LVO     -0.583800
     19 NAZ        -5.7520    0.4190    0.3770 nh        1 LVO     -0.767200
     20 CBA        -6.7950   -0.3720    1.0100 c2        1 LVO      0.747100
     21 NBB        -7.5340   -1.2670    0.1650 nh        1 LVO     -0.961800
     22 NBC        -7.0670   -0.1370    2.2690 n2        1 LVO     -0.843100
     23 CBE        -4.6320    4.4000    0.9550 c3        1 LVO     -0.179100
     24 OBF        -4.2830    3.3030   -1.1530 o         1 LVO     -0.615100
     25 NBG        -3.4560    2.2340    0.7210 n         1 LVO     -0.526900
     26 HAB        -4.8970   -2.1960    0.2110 ha        1 LVO      0.141000
     27 HAC        -4.3080   -0.0830    1.8080 h1        1 LVO      0.063700
     28 HAD        -3.5130    1.0420   -1.0170 h1        1 LVO      0.105700
     29 HAE        -1.7800    0.0790    1.3880 h1        1 LVO      0.061700
     30 HAJ        -0.9230    2.2230    0.1780 h1        1 LVO      0.043700
     31 HAK         0.5400   -0.5260    0.1880 h1        1 LVO      0.146700
     32 H1AL        1.5520    1.2460   -1.5190 h1        1 LVO      0.060200
     33 H2AL        1.9310    2.2660   -0.0400 h1        1 LVO      0.060200
     34 C15         5.1400   -0.2090   -0.3560 c3        1 LVO     -0.130400
     35 H1AX       -2.2610    2.5840   -1.9420 h1        1 LVO      0.038700
     36 H2AX       -0.5370    3.2100   -1.9970 h1        1 LVO      0.038700
     37 H3AX       -1.1630    2.1290   -3.3440 h1        1 LVO      0.038700
     38 HOAY        0.6440    1.7540    1.8670 ho        1 LVO      0.382000
     39 HNAZ       -5.8890    0.4570   -0.6190 hn        1 LVO      0.381800
     40 H1BB       -7.0310   -1.6070   -0.6280 hn        1 LVO      0.393800
     41 H2BB       -7.9980   -2.0010    0.6530 hn        1 LVO      0.393800
     42 HBC        -7.8060   -0.6920    2.6470 hn        1 LVO      0.372400
     43 H1BE       -4.9900    5.2300    0.2990 hc        1 LVO      0.062033
     44 H2BE       -5.4820    4.0430    1.5860 hc        1 LVO      0.062033
     45 H3BE       -3.8200    4.7830    1.6180 hc        1 LVO      0.062033
     46 HNBG       -3.5740    2.1930    1.7110 hn        1 LVO      0.292500
     47 C16         6.4840    0.4640   -0.1860 c3        1 LVO     -0.077400
     48 C17         7.5890   -0.5640   -0.0670 c3        1 LVO     -0.079400
     49 C18         8.9350    0.1010    0.1230 c3        1 LVO     -0.078400
     50 C19        10.0420   -0.9240    0.2380 c3        1 LVO     -0.079400
     51 C20        11.3900   -0.2610    0.4290 c3        1 LVO     -0.080400
     52 C21        12.4960   -1.2780    0.5430 c3        1 LVO     -0.092100
     53 H23         4.8800   -0.8140    0.5520 hc        1 LVO      0.082200
     54 H24         5.1580   -0.9080   -1.2350 hc        1 LVO      0.082200
     55 H25         6.6780    1.1380   -1.0620 hc        1 LVO      0.053700
     56 H26         6.4670    1.1110    0.7310 hc        1 LVO      0.053700
     57 H27         7.3790   -1.2450    0.8000 hc        1 LVO      0.042200
     58 H28         7.6110   -1.2020   -0.9900 hc        1 LVO      0.042200
     59 H29         9.1420    0.7840   -0.7420 hc        1 LVO      0.040200
     60 H30         8.9130    0.7360    1.0480 hc        1 LVO      0.040200
     61 H31         9.8340   -1.6080    1.1030 hc        1 LVO      0.040200
     62 H32        10.0640   -1.5590   -0.6870 hc        1 LVO      0.040200
     63 H33        11.5950    0.4240   -0.4360 hc        1 LVO      0.037700
     64 H34        11.3650    0.3740    1.3540 hc        1 LVO      0.037700
     65 H35        13.4800   -0.7690    0.6840 hc        1 LVO      0.030700
     66 H36        12.3210   -1.9540    1.4150 hc        1 LVO      0.030700
     67 H37        12.5520   -1.9050   -0.3800 hc        1 LVO      0.030700
     68 CBD        -4.1410    3.2650    0.0860 c         1 LVO      0.654100
@<TRIPOS>BOND
     1    1    2 2   
     2    1    6 1   
     3    1    7 1   
     4    2    3 1   
     5    2   26 1   
     6    3    4 1   
     7    3   19 1   
     8    3   27 1   
     9    4    5 1   
    10    4   25 1   
    11    4   28 1   
    12    5    6 1   
    13    5   10 1   
    14    5   29 1   
    15    7    8 1   
    16    7    9 1   
    17   10   11 1   
    18   10   16 1   
    19   10   30 1   
    20   11   12 1   
    21   11   18 1   
    22   11   31 1   
    23   12   13 1   
    24   12   32 1   
    25   12   33 1   
    26   13   14 1   
    27   14   15 2   
    28   14   34 1   
    29   16   17 1   
    30   17   35 1   
    31   17   36 1   
    32   17   37 1   
    33   18   38 1   
    34   19   20 1   
    35   19   39 1   
    36   20   21 1   
    37   20   22 2   
    38   21   40 1   
    39   21   41 1   
    40   22   42 1   
    41   23   43 1   
    42   23   44 1   
    43   23   45 1   
    44   23   68 1   
    45   24   68 2   
    46   25   46 1   
    47   25   68 1   
    48   34   47 1   
    49   34   53 1   
    50   34   54 1   
    51   47   48 1   
    52   47   55 1   
    53   47   56 1   
    54   48   49 1   
    55   48   57 1   
    56   48   58 1   
    57   49   50 1   
    58   49   59 1   
    59   49   60 1   
    60   50   51 1   
    61   50   61 1   
    62   50   62 1   
    63   51   52 1   
    64   51   63 1   
    65   51   64 1   
    66   52   65 1   
    67   52   66 1   
    68   52   67 1   
@<TRIPOS>SUBSTRUCTURE
     1 LVO         1 TEMP              0 ****  ****    0 ROOT
