@<TRIPOS>MOLECULE
LVY
   32    34     1     0     0
SMALL
bcc


@<TRIPOS>ATOM
      1 C1          0.0930    0.1710    0.1500 c3        1 LVY      0.057700
      2 C2          1.5960   -0.1120    0.0090 c3        1 LVY     -0.094400
      3 C3          2.2600   -0.4190    1.3270 c3        1 LVY     -0.153400
      4 C4          1.5420   -1.5000    2.1000 c         1 LVY      0.700500
      5 N5          0.1750   -1.6880    1.8750 n         1 LVY     -0.600500
      6 C6         -0.5800   -0.9630    0.9550 c         1 LVY      0.675500
      7 C7         -1.3930    3.4880    0.8490 ca        1 LVY     -0.112600
      8 C8         -1.1060    3.0580    2.1660 ca        1 LVY     -0.155300
      9 C9         -0.3720    1.7410    2.1050 c3        1 LVY      0.137300
     10 N10        -0.2160    1.4700    0.6750 n         1 LVY     -0.482800
     11 C11        -0.8800    2.4560   -0.1010 c         1 LVY      0.719100
     12 C12        -2.4340    5.4490    1.7050 ca        1 LVY     -0.104000
     13 C13        -2.1650    5.0450    3.0040 ca        1 LVY     -0.158000
     14 C14        -1.4800    3.8250    3.2740 ca        1 LVY      0.155600
     15 C15        -2.0520    4.6740    0.5970 ca        1 LVY     -0.093000
     16 O16        -0.9620    2.4310   -1.3340 o         1 LVY     -0.596500
     17 N17        -1.1290    3.4570    4.5740 nh        1 LVY     -0.816200
     18 O18        -1.7790   -1.2410    0.8000 o         1 LVY     -0.591500
     19 O19         2.1130   -2.2130    2.9400 o         1 LVY     -0.603500
     20 H1         -0.3580    0.1190   -0.8940 h1        1 LVY      0.117700
     21 H21C        1.7100   -0.9860   -0.6860 hc        1 LVY      0.072200
     22 H22C        2.1040    0.7660   -0.4710 hc        1 LVY      0.072200
     23 H31C        3.3170   -0.7580    1.1610 hc        1 LVY      0.087200
     24 H32C        2.2960    0.4970    1.9760 hc        1 LVY      0.087200
     25 H5         -0.2800   -2.4300    2.3680 hn        1 LVY      0.336500
     26 H15        -2.2720    4.9990   -0.4290 ha        1 LVY      0.157000
     27 H91         0.6400    1.8200    2.5890 h1        1 LVY      0.060200
     28 H92        -0.9600    0.9260    2.6130 h1        1 LVY      0.060200
     29 H12        -2.9610    6.4010    1.5350 ha        1 LVY      0.140000
     30 H13        -2.4810    5.6820    3.8440 ha        1 LVY      0.138000
     31 H171       -1.6830    3.8780    5.2860 hn        1 LVY      0.394800
     32 H172       -0.9940    2.4790    4.7010 hn        1 LVY      0.394800
@<TRIPOS>BOND
     1    1    2 1   
     2    1    6 1   
     3    1   10 1   
     4    1   20 1   
     5    2    3 1   
     6    2   21 1   
     7    2   22 1   
     8    3    4 1   
     9    3   23 1   
    10    3   24 1   
    11    4    5 1   
    12    4   19 2   
    13    5    6 1   
    14    5   25 1   
    15    6   18 2   
    16    7    8 ar  
    17    7   11 1   
    18    7   15 ar  
    19    8    9 1   
    20    8   14 ar  
    21    9   10 1   
    22    9   27 1   
    23    9   28 1   
    24   10   11 1   
    25   11   16 2   
    26   12   13 ar  
    27   12   15 ar  
    28   12   29 1   
    29   13   14 ar  
    30   13   30 1   
    31   14   17 1   
    32   15   26 1   
    33   17   31 1   
    34   17   32 1   
@<TRIPOS>SUBSTRUCTURE
     1 LVY         1 TEMP              0 ****  ****    0 ROOT
