@<TRIPOS>MOLECULE
LVY
   32    34     1     0     0
SMALL
bcc


@<TRIPOS>ATOM
      1 C1          0.1070    0.1770    0.1480 c3        1 LVY      0.057700
      2 C2          1.6120   -0.0990    0.0110 c3        1 LVY     -0.094400
      3 C3          2.2710   -0.4080    1.3310 c3        1 LVY     -0.153400
      4 C4          1.5550   -1.4940    2.0980 c         1 LVY      0.700500
      5 N5          0.1890   -1.6870    1.8660 ns        1 LVY     -0.600500
      6 C6         -0.5650   -0.9620    0.9460 c         1 LVY      0.675500
      7 C7         -1.3980    3.4850    0.8490 ca        1 LVY     -0.112600
      8 C8         -1.1130    3.0530    2.1670 ca        1 LVY     -0.155300
      9 C9         -0.3730    1.7390    2.1040 c3        1 LVY      0.137300
     10 N10        -0.2100    1.4730    0.6740 n         1 LVY     -0.482800
     11 C11        -0.8760    2.4580   -0.1010 c         1 LVY      0.719100
     12 C12        -2.4510    5.4380    1.7070 ca        1 LVY     -0.104000
     13 C13        -2.1860    5.0320    3.0060 ca        1 LVY     -0.158000
     14 C14        -1.4960    3.8140    3.2750 ca        1 LVY      0.155600
     15 C15        -2.0620    4.6680    0.5990 ca        1 LVY     -0.093000
     16 O16        -0.9540    2.4360   -1.3350 o         1 LVY     -0.596500
     17 N17        -1.1470    3.4450    4.5750 nv        1 LVY     -0.816200
     18 O18        -1.7620   -1.2440    0.7860 o         1 LVY     -0.591500
     19 O19         2.1250   -2.2080    2.9380 o         1 LVY     -0.603500
     20 H1         -0.3400    0.1260   -0.8990 h1        1 LVY      0.117700
     21 H21C        2.1170    0.7830   -0.4630 hc        1 LVY      0.072200
     22 H22C        1.7320   -0.9710   -0.6860 hc        1 LVY      0.072200
     23 H31C        2.3010    0.5070    1.9840 hc        1 LVY      0.087200
     24 H32C        3.3310   -0.7410    1.1680 hc        1 LVY      0.087200
     25 H5         -0.2640   -2.4320    2.3560 hn        1 LVY      0.336500
     26 H15        -2.2800    4.9950   -0.4270 ha        1 LVY      0.157000
     27 H91        -0.9580    0.9200    2.6080 h1        1 LVY      0.060200
     28 H92         0.6370    1.8220    2.5930 h1        1 LVY      0.060200
     29 H12        -2.9830    6.3880    1.5380 ha        1 LVY      0.140000
     30 H13        -2.5080    5.6650    3.8470 ha        1 LVY      0.138000
     31 H171       -1.0080    2.4670    4.7010 hn        1 LVY      0.394800
     32 H172       -1.7060    3.8610    5.2870 hn        1 LVY      0.394800
@<TRIPOS>BOND
     1    1    2 1   
     2    1    6 1   
     3    1   10 1   
     4    1   20 1   
     5    2    3 1   
     6    2   21 1   
     7    2   22 1   
     8    3    4 1   
     9    3   23 1   
    10    3   24 1   
    11    4    5 1   
    12    4   19 2   
    13    5    6 1   
    14    5   25 1   
    15    6   18 2   
    16    7    8 ar  
    17    7   11 1   
    18    7   15 ar  
    19    8    9 1   
    20    8   14 ar  
    21    9   10 1   
    22    9   27 1   
    23    9   28 1   
    24   10   11 1   
    25   11   16 2   
    26   12   13 ar  
    27   12   15 ar  
    28   12   29 1   
    29   13   14 ar  
    30   13   30 1   
    31   14   17 1   
    32   15   26 1   
    33   17   31 1   
    34   17   32 1   
@<TRIPOS>SUBSTRUCTURE
     1 LVY         1 TEMP              0 ****  ****    0 ROOT
