@<TRIPOS>MOLECULE
LVY
   33    35     1     0     0
SMALL
bcc


@<TRIPOS>ATOM
      1 C1         -0.0940   -0.0110    0.6880 c3        1 LVY      0.041700
      2 C2          0.9980   -0.2740   -0.3520 c3        1 LVY     -0.095400
      3 C3          2.3730   -0.3530    0.2620 c3        1 LVY     -0.150400
      4 C4          2.4390   -1.3350    1.4040 c         1 LVY      0.700500
      5 N5          1.2590   -1.6000    2.1260 n         1 LVY     -0.583500
      6 C6          0.0440   -1.0010    1.8740 c         1 LVY      0.696500
      7 C7         -0.8420    3.5870    1.1390 ca        1 LVY     -0.137600
      8 C8         -1.3800    3.0240    2.3220 ca        1 LVY     -0.053300
      9 C9         -0.9920    1.5680    2.3850 c3        1 LVY      0.090300
     10 N10        -0.1340    1.3430    1.2130 n         1 LVY     -0.448800
     11 C11        -0.1100    2.5040    0.3960 c         1 LVY      0.709100
     12 C12        -1.7840    5.7120    1.7020 ca        1 LVY     -0.106000
     13 C13        -2.3250    5.1850    2.8670 ca        1 LVY     -0.086000
     14 C14        -2.1210    3.8200    3.1870 ca        1 LVY     -0.067400
     15 C15        -1.0310    4.9170    0.8170 ca        1 LVY      0.003000
     16 O16         0.4490    2.6280   -0.6950 o         1 LVY     -0.543500
     17 N17        -2.6830    3.2610    4.4130 n4        1 LVY     -0.698000
     18 O18        -0.9440   -1.2320    2.5980 o         1 LVY     -0.644500
     19 O19         3.4790   -1.9080    1.7530 o         1 LVY     -0.562500
     20 H1         -1.0950   -0.2540    0.2090 h1        1 LVY      0.078700
     21 H21C        0.7470   -1.2500   -0.8490 hc        1 LVY      0.091200
     22 H22C        0.9880    0.5180   -1.1490 hc        1 LVY      0.091200
     23 H31C        2.6930    0.6510    0.6520 hc        1 LVY      0.100200
     24 H32C        3.1230   -0.6690   -0.5130 hc        1 LVY      0.100200
     25 H5          1.3060   -2.2780    2.8620 hn        1 LVY      0.347500
     26 H15        -0.6050    5.3450   -0.1090 ha        1 LVY      0.194000
     27 H91        -1.8990    0.8960    2.3660 h1        1 LVY      0.093200
     28 H92        -0.3940    1.3390    3.3110 h1        1 LVY      0.093200
     29 H12        -1.9480    6.7780    1.4630 ha        1 LVY      0.181000
     30 H13        -2.9120    5.8370    3.5350 ha        1 LVY      0.162000
     31 H171       -2.6140    2.2360    4.3940 hn        1 LVY      0.467800
     32 H172       -3.6700    3.5330    4.4980 hn        1 LVY      0.467800
     33 H173       -2.1640    3.6200    5.2240 hn        1 LVY      0.467800
@<TRIPOS>BOND
     1    1    2 1   
     2    1    6 1   
     3    1   10 1   
     4    1   20 1   
     5    2    3 1   
     6    2   21 1   
     7    2   22 1   
     8    3    4 1   
     9    3   23 1   
    10    3   24 1   
    11    4    5 1   
    12    4   19 2   
    13    5    6 1   
    14    5   25 1   
    15    6   18 2   
    16    7    8 ar  
    17    7   11 1   
    18    7   15 ar  
    19    8    9 1   
    20    8   14 ar  
    21    9   10 1   
    22    9   27 1   
    23    9   28 1   
    24   10   11 1   
    25   11   16 2   
    26   12   13 ar  
    27   12   15 ar  
    28   12   29 1   
    29   13   14 ar  
    30   13   30 1   
    31   14   17 1   
    32   15   26 1   
    33   17   31 1   
    34   17   32 1   
    35   17   33 1   
@<TRIPOS>SUBSTRUCTURE
     1 LVY         1 TEMP              0 ****  ****    0 ROOT
