@<TRIPOS>MOLECULE
LVZ
   40    40     1     0     0
SMALL
bcc


@<TRIPOS>ATOM
      1 C1          0.5980   -2.8130    0.5870 c3        1 LVZ      0.146100
      2 C2         -0.1880   -3.3830    1.7550 c3        1 LVZ     -0.115600
      3 O2          0.8070   -1.4260    0.8870 os        1 LVZ     -0.439600
      4 C3          1.9320   -3.5120    0.4090 c3        1 LVZ     -0.115600
      5 N9          3.1110    0.3940    0.5010 n3        1 LVZ     -0.898100
      6 C19         0.9690   -0.6140   -0.2600 c3        1 LVZ      0.282900
      7 S19         4.3380   -0.1120   -0.5320 s6        1 LVZ      1.533700
      8 O1S         4.6050    0.9290   -1.4650 o         1 LVZ     -0.754533
      9 C29         1.7720    0.6730    0.1210 c3        1 LVZ      0.266500
     10 S29        -5.1240    0.9650    0.0690 s6        1 LVZ      1.703300
     11 O2S         5.4510   -0.3790    0.3280 o         1 LVZ     -0.754533
     12 C39         0.9310    1.4220    1.1810 c3        1 LVZ      0.129100
     13 O39         1.5850    2.6410    1.5050 oh        1 LVZ     -0.601800
     14 O3S         3.8620   -1.2920   -1.1910 o         1 LVZ     -0.754533
     15 C49        -0.4770    1.7030    0.6190 c3        1 LVZ      0.098100
     16 O49        -1.1780    2.3730    1.6560 oh        1 LVZ     -0.647800
     17 O4S        -5.6390    1.3710    1.2970 o         1 LVZ     -0.755533
     18 C59        -1.1600    0.3950    0.2020 c3        1 LVZ      0.105100
     19 O59        -0.3400   -0.3300   -0.7180 os        1 LVZ     -0.448600
     20 O5S        -5.3370    1.8360   -0.9980 o         1 LVZ     -0.755533
     21 C69        -2.4840    0.6410   -0.5430 c3        1 LVZ      0.205400
     22 O69        -3.4250    1.1280    0.3590 os        1 LVZ     -0.629500
     23 O6S        -5.2570   -0.3890   -0.2380 o         1 LVZ     -0.755533
     24 H1         -0.0120   -2.9010   -0.3570 h1        1 LVZ      0.043700
     25 H2         -1.1610   -2.8450    1.8580 hc        1 LVZ      0.041033
     26 H2A        -0.3790   -4.4670    1.5810 hc        1 LVZ      0.041033
     27 H2B         0.3860   -3.2600    2.7040 hc        1 LVZ      0.041033
     28 H19         1.4690   -1.1560   -1.1150 h2        1 LVZ      0.114700
     29 H29         1.7890    1.3040   -0.8210 h1        1 LVZ      0.064700
     30 H3          1.7700   -4.5460    0.0240 hc        1 LVZ      0.041033
     31 H3A         2.5770   -2.9400   -0.3110 hc        1 LVZ      0.041033
     32 H3B         2.4730   -3.5700    1.3830 hc        1 LVZ      0.041033
     33 H39         0.8390    0.7950    2.1120 h1        1 LVZ      0.050700
     34 H49        -0.4000    2.3960   -0.2650 h1        1 LVZ      0.045700
     35 H59        -1.3440   -0.2350    1.1150 h1        1 LVZ      0.064700
     36 H69        -2.3230    1.3950   -1.3610 h1        1 LVZ      0.028700
     37 H69A       -2.8360   -0.3270   -0.9960 h1        1 LVZ      0.028700
     38 HN9         3.2690    0.4420    1.4750 hn        1 LVZ      0.413800
     39 HO39        0.9440    3.1590    2.0100 ho        1 LVZ      0.402000
     40 HO49       -2.1260    2.2400    1.5040 ho        1 LVZ      0.453000
@<TRIPOS>BOND
     1    1    2 1   
     2    1    3 1   
     3    1    4 1   
     4    1   24 1   
     5    2   25 1   
     6    2   26 1   
     7    2   27 1   
     8    3    6 1   
     9    4   30 1   
    10    4   31 1   
    11    4   32 1   
    12    5    7 1   
    13    5    9 1   
    14    5   38 1   
    15    6    9 1   
    16    6   19 1   
    17    6   28 1   
    18    7    8 1   
    19    7   11 1   
    20    7   14 1   
    21    9   12 1   
    22    9   29 1   
    23   10   17 1   
    24   10   20 1   
    25   10   22 1   
    26   10   23 1   
    27   12   13 1   
    28   12   15 1   
    29   12   33 1   
    30   13   39 1   
    31   15   16 1   
    32   15   18 1   
    33   15   34 1   
    34   16   40 1   
    35   18   19 1   
    36   18   21 1   
    37   18   35 1   
    38   21   22 1   
    39   21   36 1   
    40   21   37 1   
@<TRIPOS>SUBSTRUCTURE
     1 LVZ         1 TEMP              0 ****  ****    0 ROOT
