@<TRIPOS>MOLECULE
LW4
   55    60     1     0     0
SMALL
bcc


@<TRIPOS>ATOM
      1 N1          1.7850    1.8400    2.4480 na        1 LW4     -0.171400
      2 C4          2.8280    2.4090    0.4670 ca        1 LW4     -0.052800
      3 C5          2.2140    1.0990    0.3190 cc        1 LW4     -0.138200
      4 C6          1.5890    0.8080    1.5510 cd        1 LW4     -0.042100
      5 C8          2.1730    0.2310   -0.8010 cc        1 LW4      0.032800
      6 C10         1.6400   -1.4200   -2.3880 c         1 LW4      0.717700
      7 C13         3.2210    0.2140   -1.9130 c         1 LW4      0.701700
      8 C20        -1.1110   -2.5610    1.2290 ca        1 LW4      0.457600
      9 C21         0.1200   -2.2010    0.6000 ca        1 LW4     -0.305600
     10 C22         1.3130   -2.8850    0.9300 ca        1 LW4     -0.079000
     11 C24         1.2980   -3.8950    1.8610 ca        1 LW4     -0.150000
     12 C26         0.0860   -4.2600    2.4940 ca        1 LW4     -0.098000
     13 C28        -1.0910   -3.6210    2.1960 ca        1 LW4     -0.192300
     14 C3          2.5340    2.8440    1.8150 ca        1 LW4     -0.061200
     15 C9          1.2630   -0.7490   -1.0910 cd        1 LW4     -0.279000
     16 N11         2.8360   -0.7960   -2.8200 n         1 LW4     -0.630500
     17 O14         4.2370    0.8980   -2.0460 o         1 LW4     -0.564500
     18 O15         1.0700   -2.3260   -2.9960 o         1 LW4     -0.557500
     19 C16         0.0450   -1.1430   -0.3790 ca        1 LW4      0.570100
     20 N17        -1.0870   -0.5210   -0.6800 nb        1 LW4     -0.705000
     21 C18        -2.2570   -0.9260    0.0110 ca        1 LW4      0.871900
     22 N19        -2.2940   -1.9310    0.9310 nb        1 LW4     -0.751000
     23 N30        -3.4350   -0.1670   -0.2240 nh        1 LW4     -0.718300
     24 C31        -4.6910   -0.7670    0.2040 c3        1 LW4      0.195300
     25 C34        -5.8940    0.1880    0.0780 c3        1 LW4      0.159800
     26 N37        -5.9820    0.8270   -1.2260 n3        1 LW4     -0.731600
     27 C38        -4.7360    1.4880   -1.5780 c3        1 LW4      0.159800
     28 C41        -3.5100    0.5590   -1.4840 c3        1 LW4      0.195300
     29 C44        -7.1290    1.6980   -1.3430 c3        1 LW4      0.157100
     30 C48         3.5550    3.2600   -0.3680 ca        1 LW4     -0.078000
     31 C50         3.9790    4.4870    0.1220 ca        1 LW4     -0.146000
     32 C52         3.6920    4.8940    1.4360 ca        1 LW4     -0.112000
     33 C54         2.9690    4.0860    2.3000 ca        1 LW4     -0.140000
     34 HN1         1.4480    1.8790    3.3730 hn        1 LW4      0.307700
     35 H6          1.0280   -0.0920    1.8280 h4        1 LW4      0.183000
     36 H24         2.2210   -4.4330    2.1200 ha        1 LW4      0.139000
     37 H26         0.0990   -5.0760    3.2330 ha        1 LW4      0.137000
     38 H28        -2.0330   -3.9110    2.6870 ha        1 LW4      0.153000
     39 HN11        3.3170   -1.0160   -3.6540 hn        1 LW4      0.350500
     40 H31        -4.9030   -1.7040   -0.3870 h1        1 LW4      0.062200
     41 H31A       -4.6120   -1.0450    1.2930 h1        1 LW4      0.062200
     42 H34        -6.8250   -0.4280    0.2270 h1        1 LW4      0.040700
     43 H34A       -5.8440    0.9470    0.9120 h1        1 LW4      0.040700
     44 H38        -4.8140    1.8310   -2.6480 h1        1 LW4      0.040700
     45 H38A       -4.5510    2.3990   -0.9350 h1        1 LW4      0.040700
     46 H41        -2.6010    1.2180   -1.5880 h1        1 LW4      0.062200
     47 H41A       -3.5290   -0.1600   -2.3530 h1        1 LW4      0.062200
     48 H44        -7.1000    2.5730   -0.6360 h1        1 LW4      0.033700
     49 H44A       -7.1770    2.0900   -2.3930 h1        1 LW4      0.033700
     50 H44B       -8.0560    1.1030   -1.1370 h1        1 LW4      0.033700
     51 H48         3.7970    2.9550   -1.3970 ha        1 LW4      0.160000
     52 H50         4.5560    5.1600   -0.5300 ha        1 LW4      0.135000
     53 H52         4.0500    5.8750    1.7850 ha        1 LW4      0.133000
     54 H54         2.7430    4.4060    3.3250 ha        1 LW4      0.134000
     55 H22         2.2470   -2.5980    0.4230 ha        1 LW4      0.140000
@<TRIPOS>BOND
     1    1    4 1   
     2    1   14 1   
     3    1   34 1   
     4    2    3 1   
     5    2   14 ar  
     6    2   30 ar  
     7    3    4 2   
     8    3    5 1   
     9    4   35 1   
    10    5    7 1   
    11    5   15 2   
    12    6   15 1   
    13    6   16 1   
    14    6   18 2   
    15    7   16 1   
    16    7   17 2   
    17    8    9 ar  
    18    8   13 ar  
    19    8   22 ar  
    20    9   10 ar  
    21    9   19 ar  
    22   10   11 ar  
    23   10   55 1   
    24   11   12 ar  
    25   11   36 1   
    26   12   13 ar  
    27   12   37 1   
    28   13   38 1   
    29   14   33 ar  
    30   15   19 1   
    31   16   39 1   
    32   19   20 ar  
    33   20   21 ar  
    34   21   22 ar  
    35   21   23 1   
    36   23   24 1   
    37   23   28 1   
    38   24   25 1   
    39   24   40 1   
    40   24   41 1   
    41   25   26 1   
    42   25   42 1   
    43   25   43 1   
    44   26   27 1   
    45   26   29 1   
    46   27   28 1   
    47   27   44 1   
    48   27   45 1   
    49   28   46 1   
    50   28   47 1   
    51   29   48 1   
    52   29   49 1   
    53   29   50 1   
    54   30   31 ar  
    55   30   51 1   
    56   31   32 ar  
    57   31   52 1   
    58   32   33 ar  
    59   32   53 1   
    60   33   54 1   
@<TRIPOS>SUBSTRUCTURE
     1 LW4         1 TEMP              0 ****  ****    0 ROOT
