@<TRIPOS>MOLECULE
LW4
   55    60     1     0     0
SMALL
bcc


@<TRIPOS>ATOM
      1 N1          0.1020    0.3410    0.1220 na        1 LW4     -0.171400
      2 C4          0.7370   -0.7940    2.0310 ca        1 LW4     -0.052800
      3 C5          1.8140    0.1000    1.6320 cc        1 LW4     -0.138200
      4 C6          1.3690    0.7680    0.4700 cd        1 LW4     -0.042100
      5 C8          3.0730    0.3400    2.2370 cc        1 LW4      0.032800
      6 C10         5.1250    1.2380    2.9510 c         1 LW4      0.717700
      7 C13         3.8130   -0.6730    3.1100 c         1 LW4      0.701700
      8 C20         3.8830    4.1570   -0.4970 ca        1 LW4      0.457600
      9 C21         4.1100    2.8790    0.1010 ca        1 LW4     -0.305600
     10 C22         4.7860    1.8690   -0.6210 ca        1 LW4     -0.079000
     11 C24         5.2230    2.1050   -1.9020 ca        1 LW4     -0.150000
     12 C26         5.0020    3.3660   -2.5060 ca        1 LW4     -0.098000
     13 C28         4.3530    4.3710   -1.8350 ca        1 LW4     -0.192300
     14 C3         -0.3210   -0.6110    1.0620 ca        1 LW4     -0.061200
     15 C9          3.8700    1.4490    2.1420 cd        1 LW4     -0.279000
     16 N11         5.0270   -0.0660    3.4960 ns        1 LW4     -0.630500
     17 O14         3.4880   -1.8150    3.4360 o         1 LW4     -0.564500
     18 O15         6.0740    1.9990    3.1370 o         1 LW4     -0.557500
     19 C16         3.6360    2.7200    1.4550 ca        1 LW4      0.570100
     20 N17         3.0120    3.6850    2.1160 nb        1 LW4     -0.705000
     21 C18         2.8070    4.9140    1.4380 ca        1 LW4      0.871900
     22 N19         3.2410    5.1710    0.1710 nb        1 LW4     -0.751000
     23 N30         2.0250    5.8930    2.1070 nh        1 LW4     -0.718300
     24 C31         2.0930    7.2490    1.5820 c3        1 LW4      0.195300
     25 C34         1.0870    8.2090    2.2470 c3        1 LW4      0.159800
     26 N37         1.1220    8.1580    3.6990 n3        1 LW4     -0.731600
     27 C38         0.9640    6.7970    4.1860 c3        1 LW4      0.159800
     28 C41         1.9680    5.8090    3.5600 c3        1 LW4      0.195300
     29 C44         0.1950    9.0810    4.3130 c3        1 LW4      0.157100
     30 C48         0.5350   -1.6890    3.0830 ca        1 LW4     -0.078000
     31 C50        -0.6650   -2.3810    3.1610 ca        1 LW4     -0.146000
     32 C52        -1.6830   -2.1990    2.2080 ca        1 LW4     -0.112000
     33 C54        -1.5300   -1.3170    1.1500 ca        1 LW4     -0.140000
     34 HN1        -0.4270    0.6560   -0.6470 hn        1 LW4      0.307700
     35 H6          1.9050    1.5150   -0.1260 h4        1 LW4      0.183000
     36 H24         5.7530    1.3250   -2.4670 ha        1 LW4      0.139000
     37 H26         5.3660    3.5330   -3.5320 ha        1 LW4      0.137000
     38 H28         4.1870    5.3520   -2.3070 ha        1 LW4      0.153000
     39 HN11        5.7000   -0.4820    4.0880 hn        1 LW4      0.350500
     40 H31         3.1330    7.6680    1.7020 h1        1 LW4      0.062200
     41 H31A        1.8430    7.2300    0.4830 h1        1 LW4      0.062200
     42 H34         1.3620    9.2540    1.9280 h1        1 LW4      0.040700
     43 H34A        0.0540    7.9860    1.8460 h1        1 LW4      0.040700
     44 H38        -0.0830    6.4100    4.0110 h1        1 LW4      0.040700
     45 H38A        1.1490    6.8010    5.2970 h1        1 LW4      0.040700
     46 H41         1.6300    4.7760    3.8590 h1        1 LW4      0.062200
     47 H41A        2.9880    5.9920    4.0060 h1        1 LW4      0.062200
     48 H44         0.4280   10.1170    3.9530 h1        1 LW4      0.033700
     49 H44A        0.3340    9.0450    5.4250 h1        1 LW4      0.033700
     50 H44B       -0.8820    8.8540    4.0790 h1        1 LW4      0.033700
     51 H48         1.3240   -1.8520    3.8340 ha        1 LW4      0.160000
     52 H50        -0.8280   -3.0910    3.9860 ha        1 LW4      0.135000
     53 H52        -2.6190   -2.7690    2.3070 ha        1 LW4      0.133000
     54 H54        -2.3260   -1.1730    0.4080 ha        1 LW4      0.134000
     55 H22         4.9610    0.8960   -0.1350 ha        1 LW4      0.140000
@<TRIPOS>BOND
     1    1    4 1   
     2    1   14 1   
     3    1   34 1   
     4    2    3 1   
     5    2   14 ar  
     6    2   30 ar  
     7    3    4 2   
     8    3    5 1   
     9    4   35 1   
    10    5    7 1   
    11    5   15 2   
    12    6   15 1   
    13    6   16 1   
    14    6   18 2   
    15    7   16 1   
    16    7   17 2   
    17    8    9 ar  
    18    8   13 ar  
    19    8   22 ar  
    20    9   10 ar  
    21    9   19 ar  
    22   10   11 ar  
    23   10   55 1   
    24   11   12 ar  
    25   11   36 1   
    26   12   13 ar  
    27   12   37 1   
    28   13   38 1   
    29   14   33 ar  
    30   15   19 1   
    31   16   39 1   
    32   19   20 ar  
    33   20   21 ar  
    34   21   22 ar  
    35   21   23 1   
    36   23   24 1   
    37   23   28 1   
    38   24   25 1   
    39   24   40 1   
    40   24   41 1   
    41   25   26 1   
    42   25   42 1   
    43   25   43 1   
    44   26   27 1   
    45   26   29 1   
    46   27   28 1   
    47   27   44 1   
    48   27   45 1   
    49   28   46 1   
    50   28   47 1   
    51   29   48 1   
    52   29   49 1   
    53   29   50 1   
    54   30   31 ar  
    55   30   51 1   
    56   31   32 ar  
    57   31   52 1   
    58   32   33 ar  
    59   32   53 1   
    60   33   54 1   
@<TRIPOS>SUBSTRUCTURE
     1 LW4         1 TEMP              0 ****  ****    0 ROOT
