@<TRIPOS>MOLECULE
LW4
   55    60     1     0     0
SMALL
bcc


@<TRIPOS>ATOM
      1 N1          0.1030    0.3290    0.1460 na        1 LW4     -0.171400
      2 C4          0.7470   -0.7940    2.0580 ca        1 LW4     -0.052800
      3 C5          1.8200    0.0990    1.6510 cc        1 LW4     -0.138200
      4 C6          1.3700    0.7610    0.4870 cd        1 LW4     -0.042100
      5 C8          3.0820    0.3450    2.2500 cc        1 LW4      0.032800
      6 C10         5.1350    1.2500    2.9510 c         1 LW4      0.717700
      7 C13         3.8260   -0.6610    3.1260 c         1 LW4      0.701700
      8 C20         3.8760    4.1490   -0.5080 ca        1 LW4      0.457600
      9 C21         4.1080    2.8750    0.0960 ca        1 LW4     -0.305600
     10 C22         4.7850    1.8620   -0.6220 ca        1 LW4     -0.079000
     11 C24         5.2190    2.0930   -1.9050 ca        1 LW4     -0.150000
     12 C26         4.9930    3.3490   -2.5150 ca        1 LW4     -0.098000
     13 C28         4.3420    4.3560   -1.8490 ca        1 LW4     -0.192300
     14 C3         -0.3150   -0.6180    1.0920 ca        1 LW4     -0.061200
     15 C9          3.8770    1.4540    2.1460 cd        1 LW4     -0.279000
     16 N11         5.0410   -0.0510    3.5040 n         1 LW4     -0.630500
     17 O14         3.5050   -1.8030    3.4590 o         1 LW4     -0.564500
     18 O15         6.0830    2.0150    3.1300 o         1 LW4     -0.557500
     19 C16         3.6370    2.7220    1.4520 ca        1 LW4      0.570100
     20 N17         3.0130    3.6890    2.1090 nb        1 LW4     -0.705000
     21 C18         2.8020    4.9130    1.4250 ca        1 LW4      0.871900
     22 N19         3.2320    5.1640    0.1560 nb        1 LW4     -0.751000
     23 N30         2.0190    5.8930    2.0910 nh        1 LW4     -0.718300
     24 C31         2.0820    7.2470    1.5580 c3        1 LW4      0.195300
     25 C34         1.0750    8.2080    2.2190 c3        1 LW4      0.159800
     26 N37         1.1130    8.1650    3.6720 n3        1 LW4     -0.731600
     27 C38         0.9600    6.8060    4.1670 c3        1 LW4      0.159800
     28 C41         1.9650    5.8170    3.5440 c3        1 LW4      0.195300
     29 C44         0.1850    9.0880    4.2830 c3        1 LW4      0.157100
     30 C48         0.5500   -1.6830    3.1160 ca        1 LW4     -0.078000
     31 C50        -0.6490   -2.3770    3.2020 ca        1 LW4     -0.146000
     32 C52        -1.6700   -2.2020    2.2520 ca        1 LW4     -0.112000
     33 C54        -1.5220   -1.3250    1.1880 ca        1 LW4     -0.140000
     34 HN1        -0.4290    0.6390   -0.6240 hn        1 LW4      0.307700
     35 H6          1.9030    1.5060   -0.1150 h4        1 LW4      0.183000
     36 H24         5.7490    1.3100   -2.4670 ha        1 LW4      0.139000
     37 H26         5.3540    3.5110   -3.5430 ha        1 LW4      0.137000
     38 H28         4.1730    5.3340   -2.3260 ha        1 LW4      0.153000
     39 HN11        5.7170   -0.4620    4.0960 hn        1 LW4      0.350500
     40 H31         3.1210    7.6690    1.6740 h1        1 LW4      0.062200
     41 H31A        1.8310    7.2210    0.4600 h1        1 LW4      0.062200
     42 H34         0.0420    7.9800    1.8220 h1        1 LW4      0.040700
     43 H34A        1.3470    9.2520    1.8950 h1        1 LW4      0.040700
     44 H38         1.1470    6.8160    5.2770 h1        1 LW4      0.040700
     45 H38A       -0.0860    6.4150    3.9960 h1        1 LW4      0.040700
     46 H41         2.9850    6.0060    3.9870 h1        1 LW4      0.062200
     47 H41A        1.6300    4.7850    3.8490 h1        1 LW4      0.062200
     48 H44         0.3260    9.0580    5.3950 h1        1 LW4      0.033700
     49 H44A       -0.8920    8.8570    4.0530 h1        1 LW4      0.033700
     50 H44B        0.4130   10.1230    3.9170 h1        1 LW4      0.033700
     51 H48         1.3420   -1.8410    3.8650 ha        1 LW4      0.160000
     52 H50        -0.8080   -3.0830    4.0310 ha        1 LW4      0.135000
     53 H52        -2.6040   -2.7730    2.3570 ha        1 LW4      0.133000
     54 H54        -2.3210   -1.1870    0.4480 ha        1 LW4      0.134000
     55 H22         4.9630    0.8920   -0.1310 ha        1 LW4      0.140000
@<TRIPOS>BOND
     1    1    4 1   
     2    1   14 1   
     3    1   34 1   
     4    2    3 1   
     5    2   14 ar  
     6    2   30 ar  
     7    3    4 2   
     8    3    5 1   
     9    4   35 1   
    10    5    7 1   
    11    5   15 2   
    12    6   15 1   
    13    6   16 1   
    14    6   18 2   
    15    7   16 1   
    16    7   17 2   
    17    8    9 ar  
    18    8   13 ar  
    19    8   22 ar  
    20    9   10 ar  
    21    9   19 ar  
    22   10   11 ar  
    23   10   55 1   
    24   11   12 ar  
    25   11   36 1   
    26   12   13 ar  
    27   12   37 1   
    28   13   38 1   
    29   14   33 ar  
    30   15   19 1   
    31   16   39 1   
    32   19   20 ar  
    33   20   21 ar  
    34   21   22 ar  
    35   21   23 1   
    36   23   24 1   
    37   23   28 1   
    38   24   25 1   
    39   24   40 1   
    40   24   41 1   
    41   25   26 1   
    42   25   42 1   
    43   25   43 1   
    44   26   27 1   
    45   26   29 1   
    46   27   28 1   
    47   27   44 1   
    48   27   45 1   
    49   28   46 1   
    50   28   47 1   
    51   29   48 1   
    52   29   49 1   
    53   29   50 1   
    54   30   31 ar  
    55   30   51 1   
    56   31   32 ar  
    57   31   52 1   
    58   32   33 ar  
    59   32   53 1   
    60   33   54 1   
@<TRIPOS>SUBSTRUCTURE
     1 LW4         1 TEMP              0 ****  ****    0 ROOT
