@<TRIPOS>MOLECULE
LW4
   55    60     1     0     0
SMALL
bcc


@<TRIPOS>ATOM
      1 N1          0.1190    0.3250    0.1390 na        1 LW4     -0.171400
      2 C4          0.7500   -0.7930    2.0590 ca        1 LW4     -0.052800
      3 C5          1.8250    0.1000    1.6570 cc        1 LW4     -0.138200
      4 C6          1.3830    0.7580    0.4890 cd        1 LW4     -0.042100
      5 C8          3.0820    0.3480    2.2650 cc        1 LW4      0.032800
      6 C10         5.1290    1.2560    2.9800 c         1 LW4      0.717700
      7 C13         3.8210   -0.6560    3.1490 c         1 LW4      0.701700
      8 C20         3.8950    4.1450   -0.4960 ca        1 LW4      0.457600
      9 C21         4.1240    2.8730    0.1130 ca        1 LW4     -0.305600
     10 C22         4.8090    1.8590   -0.5960 ca        1 LW4     -0.079000
     11 C24         5.2530    2.0870   -1.8760 ca        1 LW4     -0.150000
     12 C26         5.0300    3.3420   -2.4920 ca        1 LW4     -0.098000
     13 C28         4.3720    4.3490   -1.8340 ca        1 LW4     -0.192300
     14 C3         -0.3060   -0.6210    1.0850 ca        1 LW4     -0.061200
     15 C9          3.8770    1.4570    2.1640 cd        1 LW4     -0.279000
     16 N11         5.0320   -0.0430    3.5350 n         1 LW4     -0.630500
     17 O14         3.4970   -1.7960    3.4830 o         1 LW4     -0.564500
     18 O15         6.0750    2.0220    3.1630 o         1 LW4     -0.557500
     19 C16         3.6410    2.7230    1.4650 ca        1 LW4      0.570100
     20 N17         3.0100    3.6900    2.1150 nb        1 LW4     -0.705000
     21 C18         2.8030    4.9120    1.4250 ca        1 LW4      0.871900
     22 N19         3.2440    5.1610    0.1590 nb        1 LW4     -0.751000
     23 N30         2.0130    5.8930    2.0820 nh        1 LW4     -0.718300
     24 C31         2.0780    7.2460    1.5460 c3        1 LW4      0.195300
     25 C34         1.0630    8.2070    2.1960 c3        1 LW4      0.159800
     26 N37         1.0890    8.1670    3.6490 n3        1 LW4     -0.731600
     27 C38         0.9330    6.8090    4.1460 c3        1 LW4      0.159800
     28 C41         1.9460    5.8200    3.5350 c3        1 LW4      0.195300
     29 C44         0.1530    9.0900    4.2490 c3        1 LW4      0.157100
     30 C48         0.5450   -1.6810    3.1170 ca        1 LW4     -0.078000
     31 C50        -0.6540   -2.3750    3.1960 ca        1 LW4     -0.146000
     32 C52        -1.6680   -2.2030    2.2380 ca        1 LW4     -0.112000
     33 C54        -1.5130   -1.3280    1.1730 ca        1 LW4     -0.140000
     34 HN1        -0.4080    0.6330   -0.6340 hn        1 LW4      0.307700
     35 H6          1.9200    1.5020   -0.1110 h4        1 LW4      0.183000
     36 H24         5.7890    1.3040   -2.4320 ha        1 LW4      0.139000
     37 H26         5.4000    3.5020   -3.5170 ha        1 LW4      0.137000
     38 H28         4.2060    5.3260   -2.3140 ha        1 LW4      0.153000
     39 HN11        5.7030   -0.4520    4.1330 hn        1 LW4      0.350500
     40 H31         1.8370    7.2170    0.4460 h1        1 LW4      0.062200
     41 H31A        3.1160    7.6700    1.6700 h1        1 LW4      0.062200
     42 H34         1.3360    9.2500    1.8710 h1        1 LW4      0.040700
     43 H34A        0.0350    7.9760    1.7900 h1        1 LW4      0.040700
     44 H38         1.1110    6.8230    5.2580 h1        1 LW4      0.040700
     45 H38A       -0.1110    6.4160    3.9660 h1        1 LW4      0.040700
     46 H41         2.9620    6.0120    3.9860 h1        1 LW4      0.062200
     47 H41A        1.6100    4.7890    3.8390 h1        1 LW4      0.062200
     48 H44         0.2840    9.0630    5.3620 h1        1 LW4      0.033700
     49 H44A        0.3830   10.1250    3.8820 h1        1 LW4      0.033700
     50 H44B       -0.9210    8.8570    4.0090 h1        1 LW4      0.033700
     51 H48         1.3320   -1.8360    3.8720 ha        1 LW4      0.160000
     52 H50        -0.8180   -3.0790    4.0250 ha        1 LW4      0.135000
     53 H52        -2.6030   -2.7740    2.3370 ha        1 LW4      0.133000
     54 H54        -2.3070   -1.1920    0.4270 ha        1 LW4      0.134000
     55 H22         4.9840    0.8910   -0.1010 ha        1 LW4      0.140000
@<TRIPOS>BOND
     1    1    4 1   
     2    1   14 1   
     3    1   34 1   
     4    2    3 1   
     5    2   14 ar  
     6    2   30 ar  
     7    3    4 2   
     8    3    5 1   
     9    4   35 1   
    10    5    7 1   
    11    5   15 2   
    12    6   15 1   
    13    6   16 1   
    14    6   18 2   
    15    7   16 1   
    16    7   17 2   
    17    8    9 ar  
    18    8   13 ar  
    19    8   22 ar  
    20    9   10 ar  
    21    9   19 ar  
    22   10   11 ar  
    23   10   55 1   
    24   11   12 ar  
    25   11   36 1   
    26   12   13 ar  
    27   12   37 1   
    28   13   38 1   
    29   14   33 ar  
    30   15   19 1   
    31   16   39 1   
    32   19   20 ar  
    33   20   21 ar  
    34   21   22 ar  
    35   21   23 1   
    36   23   24 1   
    37   23   28 1   
    38   24   25 1   
    39   24   40 1   
    40   24   41 1   
    41   25   26 1   
    42   25   42 1   
    43   25   43 1   
    44   26   27 1   
    45   26   29 1   
    46   27   28 1   
    47   27   44 1   
    48   27   45 1   
    49   28   46 1   
    50   28   47 1   
    51   29   48 1   
    52   29   49 1   
    53   29   50 1   
    54   30   31 ar  
    55   30   51 1   
    56   31   32 ar  
    57   31   52 1   
    58   32   33 ar  
    59   32   53 1   
    60   33   54 1   
@<TRIPOS>SUBSTRUCTURE
     1 LW4         1 TEMP              0 ****  ****    0 ROOT
