@<TRIPOS>MOLECULE
LW4
   55    48     1     0     0
SMALL
bcc


@<TRIPOS>ATOM
      1 N1          1.8250   -4.3400   -2.4440 n2        1 LW4     -0.196000
      2 C4          2.1340   -3.2930   -0.4990 c1        1 LW4     -0.040000
      3 C5          0.7920   -3.1350   -0.8800 c1        1 LW4     -0.162000
      4 C6          0.6140   -3.7790   -2.0720 c1        1 LW4     -0.003000
      5 C8         -0.5640   -2.7100   -0.2980 c1        1 LW4      0.040000
      6 C10        -2.7060   -1.9000   -0.6460 c1        1 LW4      0.352000
      7 C13        -1.3320   -3.6340    0.4850 c2        1 LW4      0.332000
      8 C20        -0.6110    1.7630   -2.1840 c1        1 LW4      0.067000
      9 C21        -0.5780    0.3990   -2.3150 c1        1 LW4     -0.159000
     10 C22        -0.4710   -0.1800   -3.5780 c1        1 LW4     -0.072000
     11 C24        -0.3990    0.6240   -4.7060 c1        1 LW4     -0.125750
     12 C26        -0.4320    2.0120   -4.5770 c1        1 LW4     -0.125750
     13 C28        -0.5370    2.5830   -3.3310 c1        1 LW4     -0.126000
     14 C3          2.7610   -4.0350   -1.4650 c1        1 LW4     -0.018000
     15 C9         -1.2900   -1.7860   -0.9040 c1        1 LW4     -0.121000
     16 N11        -2.8170   -3.1380    0.3140 n         1 LW4     -0.406000
     17 O14        -1.0000   -4.7140    0.8060 o         1 LW4     -0.310000
     18 O15        -3.5700   -0.9840   -0.7910 o         1 LW4     -0.270000
     19 C16        -0.6770   -0.4030   -1.1960 c2        1 LW4      0.131000
     20 N17        -0.8050    0.1510    0.0150 n2        1 LW4     -0.188000
     21 C18        -0.8380    1.5300    0.1470 c1        1 LW4      0.155000
     22 N19        -0.7410    2.3240   -0.9550 n1        1 LW4     -0.224000
     23 N30        -0.9570    2.6010    1.0980 n3        1 LW4     -0.211000
     24 C31        -2.1410    2.4330    1.8630 c3        1 LW4     -0.037500
     25 C34        -2.2490    3.4560    3.0000 c3        1 LW4     -0.078000
     26 N37        -1.0690    3.5000    3.8090 n3        1 LW4     -0.258000
     27 C38         0.1170    3.6640    3.0410 c3        1 LW4     -0.078000
     28 C41         0.2280    2.6480    1.9150 c3        1 LW4     -0.037500
     29 C44        -1.1720    4.5820    4.7580 c3        1 LW4     -0.120000
     30 C48         2.8640   -2.8120    0.5970 c1        1 LW4     -0.087000
     31 C50         4.2330   -3.0910    0.7040 c1        1 LW4     -0.125750
     32 C52         4.8690   -3.8430   -0.2740 c1        1 LW4     -0.125750
     33 C54         4.1550   -4.3170   -1.3520 c1        1 LW4     -0.135000
     34 HN1         1.9800   -4.8300   -3.2060 DU        1 LW4      0.225500
     35 H6         -0.2600   -3.8710   -2.5730 DU        1 LW4      0.225500
     36 H22        -0.4500   -1.1750   -3.6720 ha        1 LW4      0.137000
     37 H24        -0.3270    0.2270   -5.5690 ha        1 LW4      0.135000
     38 H26        -0.3780    2.5860   -5.3820 ha        1 LW4      0.135000
     39 H28        -0.5610    3.6120   -3.2330 ha        1 LW4      0.151000
     40 HN11       -3.5470   -3.6250    0.4550 hn        1 LW4      0.264000
     41 H31        -2.1470    1.5280    2.2450 h1        1 LW4      0.099250
     42 H31A       -2.9590    2.5410    1.2400 h1        1 LW4      0.099250
     43 H34        -3.0640    3.2060    3.6030 h1        1 LW4      0.080500
     44 H34A       -2.3910    4.2850    2.6400 h1        1 LW4      0.080500
     45 H38         0.1220    4.6170    2.6340 h1        1 LW4      0.080500
     46 H38A        0.9170    3.5650    3.6490 h1        1 LW4      0.080500
     47 H41         0.9650    2.8750    1.3740 h1        1 LW4      0.099250
     48 H41A        0.3820    1.7410    2.3100 h1        1 LW4      0.099250
     49 H44        -0.3130    4.6720    5.2470 h1        1 LW4      0.072667
     50 H44A       -1.8700    4.3980    5.3740 h1        1 LW4      0.072667
     51 H44B       -1.3670    5.4180    4.2830 h1        1 LW4      0.072667
     52 H48         2.4440   -2.3150    1.2440 ha        1 LW4      0.145000
     53 H50         4.7570   -2.7460    1.4960 ha        1 LW4      0.135000
     54 H52         5.8210   -4.0350   -0.1980 ha        1 LW4      0.135000
     55 H54         4.6080   -4.8500   -2.0440 ha        1 LW4      0.135000
@<TRIPOS>BOND
     1    1    4 1   
     2    1   14 1   
     3    2   30 1   
     4    3    4 1   
     5    5    7 1   
     6    5   15 1   
     7    6   16 1   
     8    6   18 1   
     9    7   16 1   
    10    7   17 1   
    11    8   13 1   
    12    8   22 1   
    13    9   10 1   
    14    9   19 1   
    15   10   36 1   
    16   11   12 1   
    17   11   37 1   
    18   12   38 1   
    19   13   39 1   
    20   14   33 1   
    21   15   19 1   
    22   16   40 1   
    23   19   20 1   
    24   20   21 1   
    25   21   23 1   
    26   23   24 1   
    27   23   28 1   
    28   24   25 1   
    29   24   41 1   
    30   24   42 1   
    31   25   26 1   
    32   25   43 1   
    33   25   44 1   
    34   26   27 1   
    35   26   29 1   
    36   27   28 1   
    37   27   45 1   
    38   27   46 1   
    39   28   47 1   
    40   28   48 1   
    41   29   49 1   
    42   29   50 1   
    43   29   51 1   
    44   30   52 1   
    45   31   32 1   
    46   31   53 1   
    47   32   54 1   
    48   33   55 1   
@<TRIPOS>SUBSTRUCTURE
     1 LW4         1 TEMP              0 ****  ****    0 ROOT
