@<TRIPOS>MOLECULE
LWG
   20    22     1     0     0
SMALL
bcc


@<TRIPOS>ATOM
      1 C1          2.7720   -1.4730   -0.0000 c         1 LWG      0.731700
      2 N1          3.7650   -0.4680   -0.0010 n         1 LWG     -0.480400
      3 O1          3.1220   -2.6660   -0.0000 o         1 LWG     -0.619500
      4 S1         -0.0030   -1.8790    0.0000 ss        1 LWG      0.205500
      5 CL1        -3.2730   -1.9370    0.0010 cl        1 LWG     -0.074400
      6 C2          3.4130    0.8730   -0.0010 cc        1 LWG      0.483800
      7 N2          2.1840    1.3570   -0.0010 nd        1 LWG     -0.582300
      8 CL2        -0.0990    3.3970   -0.0000 cl        1 LWG     -0.050400
      9 C3          1.1640    0.4170   -0.0000 cd        1 LWG      0.199400
     10 C4          1.4010   -0.9740   -0.0000 cc        1 LWG     -0.262600
     11 C5         -0.9950   -0.5230    0.0000 ca        1 LWG     -0.083100
     12 C6         -2.3990   -0.4830    0.0010 ca        1 LWG      0.028400
     13 C7         -3.0570    0.7390    0.0010 ca        1 LWG     -0.089000
     14 C8         -2.3280    1.9380    0.0000 ca        1 LWG     -0.139000
     15 C9         -0.9370    1.9280   -0.0000 ca        1 LWG      0.080400
     16 C10        -0.2560    0.6970   -0.0000 ca        1 LWG     -0.062800
     17 HN1         4.7220   -0.7420   -0.0010 hn        1 LWG      0.342500
     18 H2          4.2520    1.6030   -0.0010 h5        1 LWG      0.058800
     19 H7         -4.1570    0.7780    0.0010 ha        1 LWG      0.155000
     20 H8         -2.8750    2.8950    0.0000 ha        1 LWG      0.155000
@<TRIPOS>BOND
     1    1    2 1   
     2    1    3 2   
     3    1   10 1   
     4    2    6 1   
     5    2   17 1   
     6    4   10 1   
     7    4   11 1   
     8    5   12 1   
     9    6    7 2   
    10    6   18 1   
    11    7    9 1   
    12    8   15 1   
    13    9   10 2   
    14    9   16 1   
    15   11   12 ar  
    16   11   16 ar  
    17   12   13 ar  
    18   13   14 ar  
    19   13   19 1   
    20   14   15 ar  
    21   14   20 1   
    22   15   16 ar  
@<TRIPOS>SUBSTRUCTURE
     1 LWG         1 TEMP              0 ****  ****    0 ROOT
