@<TRIPOS>MOLECULE
LWG
   20    22     1     0     0
SMALL
bcc


@<TRIPOS>ATOM
      1 C1         -0.1010   -0.0000   -0.0250 c         1 LWG      0.731700
      2 N1          1.3120   -0.0000   -0.0210 ns        1 LWG     -0.480400
      3 O1         -0.7000   -0.0000   -1.1150 o         1 LWG     -0.619500
      4 S1         -2.3450   -0.0010    1.6560 ss        1 LWG      0.205500
      5 Cl1        -4.6920   -0.0020    3.9330 cl        1 LWG     -0.074400
      6 C2          2.0150   -0.0000    1.1740 cc        1 LWG      0.483800
      7 N2          1.4910   -0.0010    2.3860 nd        1 LWG     -0.582300
      8 Cl2         1.3280   -0.0010    5.4440 cl        1 LWG     -0.050400
      9 C3          0.1060   -0.0010    2.4470 cd        1 LWG      0.199400
     10 C4         -0.7130   -0.0010    1.2980 cc        1 LWG     -0.262600
     11 C5         -2.0830   -0.0010    3.3150 ca        1 LWG     -0.083100
     12 C6         -3.0450   -0.0020    4.3390 ca        1 LWG      0.028400
     13 C7         -2.6420   -0.0020    5.6670 ca        1 LWG     -0.089000
     14 C8         -1.2780   -0.0020    5.9960 ca        1 LWG     -0.139000
     15 C9         -0.3050   -0.0010    5.0020 ca        1 LWG      0.080400
     16 C10        -0.6980   -0.0010    3.6520 ca        1 LWG     -0.062800
     17 HN1         1.7920    0.0000   -0.8930 hn        1 LWG      0.342500
     18 H2          3.1240   -0.0000    1.0950 h5        1 LWG      0.058800
     19 H7         -3.3910   -0.0020    6.4750 ha        1 LWG      0.155000
     20 H8         -0.9860   -0.0020    7.0580 ha        1 LWG      0.155000
@<TRIPOS>BOND
     1    1    2 1   
     2    1    3 2   
     3    1   10 1   
     4    2    6 1   
     5    2   17 1   
     6    4   10 1   
     7    4   11 1   
     8    5   12 1   
     9    6    7 2   
    10    6   18 1   
    11    7    9 1   
    12    8   15 1   
    13    9   10 2   
    14    9   16 1   
    15   11   12 ar  
    16   11   16 ar  
    17   12   13 ar  
    18   13   14 ar  
    19   13   19 1   
    20   14   15 ar  
    21   14   20 1   
    22   15   16 ar  
@<TRIPOS>SUBSTRUCTURE
     1 LWG         1 TEMP              0 ****  ****    0 ROOT
