@<TRIPOS>MOLECULE
LWG
   20    18     1     0     0
SMALL
bcc


@<TRIPOS>ATOM
      1 C1          0.8780   -0.0020   -2.8980 c1        1 LWG      0.370000
      2 N1          2.2890   -0.0020   -2.8980 n3        1 LWG     -0.320000
      3 O1          0.2700    0.0480   -3.9490 o         1 LWG     -0.344000
      4 S1         -1.3880   -0.0010   -1.2780 ss        1 LWG      0.673000
      5 CL1        -4.1790    0.0070    0.2910 cl        1 LWG      0.004000
      6 C2          3.0130   -0.0020   -1.6450 c2        1 LWG      0.060000
      7 N2          2.2880   -0.0020   -0.3830 n1        1 LWG     -0.154000
      8 CL2         1.5020   -0.0130    2.9980 cl        1 LWG      0.028000
      9 C3          0.8520   -0.0020   -0.3770 c1        1 LWG      0.047000
     10 C4          0.1360   -0.0020   -1.6100 c1        1 LWG     -0.484000
     11 C5         -1.5310   -0.0010    0.2760 c1        1 LWG     -0.310000
     12 C6         -2.6390   -0.0030    1.1100 c1        1 LWG     -0.050000
     13 C7         -2.4700   -0.0040    2.4970 c1        1 LWG     -0.089000
     14 C8         -1.1730   -0.0040    3.0500 c1        1 LWG     -0.139000
     15 C9         -0.0540   -0.0030    2.2120 c2        1 LWG      0.002000
     16 C10        -0.2190   -0.0010    0.8350 c2        1 LWG     -0.051000
     17 HN1         2.7450   -0.0020   -3.6880 hn        1 LWG      0.256000
     18 H2          3.9890   -0.0020   -1.6460 h5        1 LWG      0.188000
     19 H7         -3.2510   -0.0050    3.0840 ha        1 LWG      0.155000
     20 H8         -1.0570   -0.0060    4.0200 ha        1 LWG      0.155000
@<TRIPOS>BOND
     1    1    2 1   
     2    1    3 1   
     3    2    6 1   
     4    2   17 1   
     5    4   10 1   
     6    4   11 1   
     7    5   12 1   
     8    6    7 1   
     9    6   18 1   
    10    8   15 1   
    11    9   10 1   
    12    9   16 1   
    13   11   16 1   
    14   12   13 1   
    15   13   19 1   
    16   14   15 1   
    17   14   20 1   
    18   15   16 1   
@<TRIPOS>SUBSTRUCTURE
     1 LWG         1 TEMP              0 ****  ****    0 ROOT
