@<TRIPOS>MOLECULE
LWH
   48    40     1     0     0
SMALL
bcc


@<TRIPOS>ATOM
      1 C01         2.8490   -0.3070   -2.5050 c1        1 LWH     -0.085000
      2 C02         4.2330   -0.4140   -2.3900 c1        1 LWH     -0.124500
      3 C03         4.8100   -0.6560   -1.1520 c1        1 LWH     -0.124500
      4 C04         4.0090   -0.7910   -0.0290 c1        1 LWH     -0.115000
      5 C05         2.6010   -0.6810   -0.1460 c1        1 LWH      0.031000
      6 C06         2.0340   -0.4430   -1.3630 c1        1 LWH     -0.130000
      7 C07         0.6510   -0.2840   -1.4670 c2        1 LWH      0.138000
      8 C08         0.4500   -0.6060    0.8630 c1        1 LWH      0.105000
      9 N09        -0.1230   -0.3660   -0.3620 n1        1 LWH     -0.209000
     10 N10         1.8140   -0.7630    0.9690 n2        1 LWH     -0.170000
     11 C11        -0.7630    0.4030   -3.4170 c3        1 LWH     -0.039000
     12 C12        -2.0740    0.4670   -3.6470 c3        1 LWH     -0.124000
     13 C13        -0.9420   -1.0550   -5.2720 c3        1 LWH     -0.096000
     14 C14        -0.0930   -0.1540   -4.7820 c3        1 LWH     -0.184000
     15 N15        -0.4920   -0.5060   -2.3220 n3        1 LWH     -0.255000
     16 N16        -2.3530   -0.6210   -4.7410 n3        1 LWH     -0.269000
     17 C17        -0.1800   -0.6120    2.1020 c1        1 LWH     -0.057000
     18 C18        -0.4520   -1.8210    2.7390 c1        1 LWH      0.125000
     19 C19        -1.0770   -1.8260    3.9690 c1        1 LWH     -0.221000
     20 C20        -1.4360   -0.6240    4.5710 c1        1 LWH     -0.056500
     21 C21        -1.1650    0.5790    3.9350 c1        1 LWH     -0.057000
     22 C22        -0.5370    0.5820    2.7010 c1        1 LWH     -0.056500
     23 C23        -1.4740    1.8060    4.5750 c1        1 LWH     -0.101500
     24 C24        -2.6450    2.4940    4.4660 c1        1 LWH     -0.221000
     25 C25        -2.5580    3.6010    5.2590 c1        1 LWH     -0.101500
     26 N26        -0.6710    2.4820    5.4270 n2        1 LWH     -0.118000
     27 N27        -1.3460    3.5960    5.8500 n2        1 LWH     -0.118000
     28 O28         0.0030   -3.0170    2.1850 oh        1 LWH     -0.231000
     29 H01         2.4440   -0.1380   -3.3750 ha        1 LWH      0.148000
     30 H02         4.7960   -0.3190   -3.1780 ha        1 LWH      0.137500
     31 H03         5.7950   -0.7320   -1.0710 ha        1 LWH      0.137500
     32 H04         4.4120   -0.9610    0.8350 ha        1 LWH      0.154000
     33 H15        -1.0770   -1.1830   -2.1370 hn        1 LWH      0.199000
     34 H11        -0.4110    1.3010   -3.2080 h1        1 LWH      0.106000
     35 H121       -2.3160    1.3490   -3.9780 h1        1 LWH      0.098500
     36 H122       -2.5730    0.2630   -2.8300 h1        1 LWH      0.098500
     37 H141        0.0280    0.5790   -5.4220 hc        1 LWH      0.097500
     38 H142        0.7690   -0.5750   -4.5850 hc        1 LWH      0.097500
     39 H16        -2.8430   -0.2420   -5.4380 hn        1 LWH      0.145000
     40 H131       -0.9270   -1.0370   -6.2510 h1        1 LWH      0.090500
     41 H132       -0.7130   -1.9610   -4.9400 h1        1 LWH      0.090500
     42 H22        -0.3430    1.4400    2.2460 ha        1 LWH      0.144500
     43 H19        -1.2690   -2.6780    4.4180 ha        1 LWH      0.140000
     44 H28        -0.4880   -3.6950    2.4940 ho        1 LWH      0.221000
     45 H20        -1.8750   -0.6260    5.4340 ha        1 LWH      0.144500
     46 H24        -3.4050    2.2420    3.9220 DU        1 LWH      0.205333
     47 H26         0.1620    2.2420    5.6720 DU        1 LWH      0.205333
     48 H25        -3.2430    4.2680    5.3760 DU        1 LWH      0.205333
@<TRIPOS>BOND
     1    1    6 1   
     2    1   29 1   
     3    2    3 1   
     4    2   30 1   
     5    3   31 1   
     6    4    5 1   
     7    4   32 1   
     8    5   10 1   
     9    6    7 1   
    10    7    9 1   
    11    7   15 1   
    12    8   10 1   
    13   11   12 1   
    14   11   14 1   
    15   11   15 1   
    16   11   34 1   
    17   12   16 1   
    18   12   35 1   
    19   12   36 1   
    20   13   14 1   
    21   13   16 1   
    22   13   40 1   
    23   13   41 1   
    24   14   37 1   
    25   14   38 1   
    26   15   33 1   
    27   16   39 1   
    28   17   22 1   
    29   18   19 1   
    30   18   28 1   
    31   19   43 1   
    32   20   21 1   
    33   20   45 1   
    34   22   42 1   
    35   23   24 1   
    36   23   26 1   
    37   24   25 1   
    38   25   27 1   
    39   26   27 1   
    40   28   44 1   
@<TRIPOS>SUBSTRUCTURE
     1 LWH         1 TEMP              0 ****  ****    0 ROOT
