@<TRIPOS>MOLECULE
LWH
   48    52     1     0     0
SMALL
bcc


@<TRIPOS>ATOM
      1 C01        -3.1870   -2.9700   -0.1190 ca        1 LWH     -0.091000
      2 C02        -2.9890   -4.3080    0.1420 ca        1 LWH     -0.142000
      3 C03        -1.7300   -4.7680    0.5860 ca        1 LWH     -0.100000
      4 C04        -0.6830   -3.8970    0.7550 ca        1 LWH     -0.180300
      5 C05        -0.8550   -2.5010    0.4860 ca        1 LWH      0.445600
      6 C06        -2.1370   -2.0410    0.0550 ca        1 LWH     -0.295600
      7 C07        -2.2570   -0.6000   -0.1820 ca        1 LWH      0.714200
      8 C08         0.0060   -0.3450    0.3800 cp        1 LWH      0.749500
      9 N09        -1.1980    0.2210   -0.0130 nb        1 LWH     -0.814000
     10 N10         0.2170   -1.6460    0.6480 nb        1 LWH     -0.720000
     11 C11        -3.6800    1.3400   -0.7690 c3        1 LWH      0.188500
     12 C12        -3.6800    2.1380    0.5790 c3        1 LWH      0.118800
     13 C13        -5.7590    2.6120   -0.4230 c3        1 LWH      0.140800
     14 C14        -5.0450    1.6790   -1.4150 c3        1 LWH     -0.114400
     15 N15        -3.4650   -0.0850   -0.6420 nh        1 LWH     -0.843900
     16 N16        -5.0120    2.6690    0.8290 n3        1 LWH     -0.792200
     17 C17         1.1590    0.5880    0.5070 cp        1 LWH     -0.218500
     18 C18         1.0460    1.8800    1.0530 ca        1 LWH      0.185100
     19 C19         2.1860    2.7080    1.1540 ca        1 LWH     -0.173000
     20 C20         3.4160    2.2530    0.7130 ca        1 LWH     -0.061000
     21 C21         3.5420    0.9670    0.1580 ca        1 LWH     -0.071000
     22 C22         2.4130    0.1500    0.0560 ca        1 LWH     -0.047000
     23 C23         4.8400    0.5210   -0.3040 cc        1 LWH     -0.049300
     24 C24         5.9250    1.2700   -0.8050 cd        1 LWH     -0.288300
     25 C25         6.9460    0.2930   -1.0930 cd        1 LWH      0.290200
     26 N26         5.2630   -0.8200   -0.3210 na        1 LWH     -0.013600
     27 N27         6.5020   -0.9550   -0.7830 nc        1 LWH     -0.512800
     28 O28        -0.0980    2.4420    1.5540 oh        1 LWH     -0.500100
     29 H01        -4.1740   -2.6440   -0.4770 ha        1 LWH      0.129000
     30 H02        -3.8080   -5.0290    0.0050 ha        1 LWH      0.139000
     31 H03        -1.5960   -5.8420    0.7920 ha        1 LWH      0.140000
     32 H04         0.3010   -4.2550    1.0970 ha        1 LWH      0.156000
     33 H15        -4.2710   -0.6260   -0.4230 hn        1 LWH      0.421800
     34 H11        -2.8510    1.7440   -1.4200 h1        1 LWH      0.093700
     35 H121       -3.3160    1.5180    1.4390 h1        1 LWH      0.062200
     36 H122       -2.9800    3.0110    0.4680 h1        1 LWH      0.062200
     37 H141       -4.8770    2.1970   -2.3890 hc        1 LWH      0.057700
     38 H142       -5.6660    0.7730   -1.6190 hc        1 LWH      0.057700
     39 H16        -5.4770    2.1320    1.5380 hn        1 LWH      0.348800
     40 H131       -5.7920    3.6560   -0.8400 h1        1 LWH      0.053200
     41 H132       -6.8180    2.2780   -0.2540 h1        1 LWH      0.053200
     42 H22         2.5010   -0.8520   -0.3940 ha        1 LWH      0.147000
     43 H19         2.0720    3.7110    1.5900 ha        1 LWH      0.156000
     44 H28        -0.8640    1.8970    1.3210 ho        1 LWH      0.446000
     45 H20         4.3040    2.8990    0.7930 ha        1 LWH      0.144000
     46 H24         5.9800    2.3410   -0.9530 ha        1 LWH      0.164000
     47 H26         4.7440   -1.6070   -0.0110 hn        1 LWH      0.322700
     48 H25         7.9410    0.4680   -1.5010 h4        1 LWH      0.041100
@<TRIPOS>BOND
     1    1    2 ar  
     2    1    6 ar  
     3    1   29 1   
     4    2    3 ar  
     5    2   30 1   
     6    3    4 ar  
     7    3   31 1   
     8    4    5 ar  
     9    4   32 1   
    10    5    6 ar  
    11    5   10 ar  
    12    6    7 ar  
    13    7    9 ar  
    14    7   15 1   
    15    8    9 ar  
    16    8   10 ar  
    17    8   17 1   
    18   11   12 1   
    19   11   14 1   
    20   11   15 1   
    21   11   34 1   
    22   12   16 1   
    23   12   35 1   
    24   12   36 1   
    25   13   14 1   
    26   13   16 1   
    27   13   40 1   
    28   13   41 1   
    29   14   37 1   
    30   14   38 1   
    31   15   33 1   
    32   16   39 1   
    33   17   18 ar  
    34   17   22 ar  
    35   18   19 ar  
    36   18   28 1   
    37   19   20 ar  
    38   19   43 1   
    39   20   21 ar  
    40   20   45 1   
    41   21   22 ar  
    42   21   23 1   
    43   22   42 1   
    44   23   24 2   
    45   23   26 1   
    46   24   25 1   
    47   24   46 1   
    48   25   27 2   
    49   25   48 1   
    50   26   27 1   
    51   26   47 1   
    52   28   44 1   
@<TRIPOS>SUBSTRUCTURE
     1 LWH         1 TEMP              0 ****  ****    0 ROOT
