@<TRIPOS>MOLECULE
LWH
   49    53     1     0     0
SMALL
bcc


@<TRIPOS>ATOM
      1 C01        -0.1300    0.1000   -0.0360 ca        1 LWH     -0.148000
      2 C02         1.0800    0.7370   -0.1670 ca        1 LWH     -0.073000
      3 C03         1.6780    1.3820    0.9440 ca        1 LWH     -0.092000
      4 C04         1.0650    1.3880    2.1710 ca        1 LWH     -0.147300
      5 C05        -0.2000    0.7340    2.3490 ca        1 LWH      0.436600
      6 C06        -0.7920    0.0760    1.2150 ca        1 LWH     -0.251600
      7 C07        -2.0490   -0.5690    1.4910 ca        1 LWH      0.523200
      8 C08        -1.9970    0.1330    3.7070 cp        1 LWH      0.758500
      9 N09        -2.6380   -0.5720    2.6860 nb        1 LWH     -0.659000
     10 N10        -0.8150    0.7620    3.5780 nb        1 LWH     -0.627000
     11 C11        -3.5400   -0.3540   -0.4760 c3        1 LWH      0.085500
     12 C12        -4.8370    0.1920    0.2070 c3        1 LWH      0.135800
     13 C13        -5.5890   -1.0470   -1.6470 c3        1 LWH      0.143800
     14 C14        -4.0490   -1.0590   -1.7500 c3        1 LWH     -0.135400
     15 N15        -2.7550   -1.2920    0.4040 n4        1 LWH     -0.754700
     16 N16        -5.9840   -0.4860   -0.3610 n3        1 LWH     -0.791200
     17 C17        -2.6960    0.1690    5.0120 cp        1 LWH     -0.196500
     18 C18        -4.0320    0.6010    5.1140 ca        1 LWH      0.168100
     19 C19        -4.6690    0.6230    6.3670 ca        1 LWH     -0.208000
     20 C20        -3.9790    0.2220    7.5020 ca        1 LWH     -0.040000
     21 C21        -2.6410   -0.2020    7.4130 ca        1 LWH     -0.036000
     22 C22        -2.0080   -0.2240    6.1670 ca        1 LWH     -0.053000
     23 C23        -1.9520   -0.6210    8.6150 cc        1 LWH     -0.086300
     24 C24        -2.4630   -1.2500    9.7680 cd        1 LWH     -0.263300
     25 C25        -1.3180   -1.4290   10.6280 cd        1 LWH      0.297200
     26 N26        -0.5700   -0.4720    8.8390 na        1 LWH     -0.011600
     27 N27        -0.2020   -0.9340   10.0290 nc        1 LWH     -0.490800
     28 O28        -4.6730    1.0070    3.9680 oh        1 LWH     -0.508100
     29 H01        -0.5760   -0.3870   -0.9160 ha        1 LWH      0.125000
     30 H02         1.6000    0.7560   -1.1390 ha        1 LWH      0.164000
     31 H03         2.6510    1.8850    0.8070 ha        1 LWH      0.170000
     32 H04         1.5280    1.8930    3.0360 ha        1 LWH      0.182000
     33 H15        -3.3980   -1.9890    0.8050 hn        1 LWH      0.461300
     34 H11        -2.8460    0.4980   -0.7260 hx        1 LWH      0.118700
     35 H121       -4.9090    1.2830   -0.0740 h1        1 LWH      0.100200
     36 H122       -4.8190    0.1280    1.3280 h1        1 LWH      0.100200
     37 H141       -3.7180   -0.4780   -2.6470 hc        1 LWH      0.079700
     38 H142       -3.6680   -2.1030   -1.8660 hc        1 LWH      0.079700
     39 H16        -6.3470   -1.1890    0.2550 hn        1 LWH      0.372800
     40 H131       -6.0140   -0.3840   -2.4520 h1        1 LWH      0.080700
     41 H132       -6.0070   -2.0780   -1.7950 h1        1 LWH      0.080700
     42 H22        -0.9630   -0.5610    6.0810 ha        1 LWH      0.150000
     43 H19        -5.7130    0.9630    6.4440 ha        1 LWH      0.153000
     44 H28        -5.5430    1.3550    4.2200 ho        1 LWH      0.438000
     45 H20        -4.4780    0.2380    8.4850 ha        1 LWH      0.161000
     46 H24        -3.4850   -1.5500    9.9670 ha        1 LWH      0.169000
     47 H26         0.0750    0.0100    8.2590 hn        1 LWH      0.321700
     48 H25        -1.2910   -1.8850   11.6180 h4        1 LWH      0.054100
     49 H152       -2.0500   -1.7800   -0.1610 hn        1 LWH      0.461300
@<TRIPOS>BOND
     1    1    2 ar  
     2    1    6 ar  
     3    1   29 1   
     4    2    3 ar  
     5    2   30 1   
     6    3    4 ar  
     7    3   31 1   
     8    4    5 ar  
     9    4   32 1   
    10    5    6 ar  
    11    5   10 ar  
    12    6    7 ar  
    13    7    9 ar  
    14    7   15 1   
    15    8    9 ar  
    16    8   10 ar  
    17    8   17 1   
    18   11   12 1   
    19   11   14 1   
    20   11   15 1   
    21   11   34 1   
    22   12   16 1   
    23   12   35 1   
    24   12   36 1   
    25   13   14 1   
    26   13   16 1   
    27   13   40 1   
    28   13   41 1   
    29   14   37 1   
    30   14   38 1   
    31   15   33 1   
    32   15   49 1   
    33   16   39 1   
    34   17   18 ar  
    35   17   22 ar  
    36   18   19 ar  
    37   18   28 1   
    38   19   20 ar  
    39   19   43 1   
    40   20   21 ar  
    41   20   45 1   
    42   21   22 ar  
    43   21   23 1   
    44   22   42 1   
    45   23   24 2   
    46   23   26 1   
    47   24   25 1   
    48   24   46 1   
    49   25   27 2   
    50   25   48 1   
    51   26   27 1   
    52   26   47 1   
    53   28   44 1   
@<TRIPOS>SUBSTRUCTURE
     1 LWH         1 TEMP              0 ****  ****    0 ROOT
