@<TRIPOS>MOLECULE
LWH
   48    52     1     0     0
SMALL
bcc


@<TRIPOS>ATOM
      1 C01         0.0360    0.3150   -0.1500 ca        1 LWH     -0.091000
      2 C02         1.3930    0.5370   -0.2230 ca        1 LWH     -0.144000
      3 C03         2.1250    0.8690    0.9370 ca        1 LWH     -0.104000
      4 C04         1.4980    0.9810    2.1530 ca        1 LWH     -0.180300
      5 C05         0.0880    0.7590    2.2630 ca        1 LWH      0.439600
      6 C06        -0.6430    0.4110    1.0860 ca        1 LWH     -0.290600
      7 C07        -2.0810    0.1830    1.2610 ca        1 LWH      0.696200
      8 C08        -1.8490    0.6780    3.5330 cp        1 LWH      0.752500
      9 N09        -2.6620    0.3030    2.4750 nb        1 LWH     -0.757000
     10 N10        -0.5240    0.8940    3.4940 nb        1 LWH     -0.718000
     11 C11        -4.2570   -0.4500    0.2540 c3        1 LWH      0.186500
     12 C12        -4.5470   -1.8510    0.8900 c3        1 LWH      0.117800
     13 C13        -5.4830   -1.9520   -1.2690 c3        1 LWH      0.139800
     14 C14        -4.9590   -0.5130   -1.1250 c3        1 LWH     -0.114400
     15 N15        -2.8580   -0.1020    0.1380 nh        1 LWH     -0.838900
     16 N16        -5.0320   -2.7590   -0.1400 n3        1 LWH     -0.794200
     17 C17        -2.5290    0.8220    4.8500 cp        1 LWH     -0.155500
     18 C18        -3.5680    1.7530    5.0380 ca        1 LWH      0.169100
     19 C19        -4.2090    1.8500    6.2850 ca        1 LWH     -0.222000
     20 C20        -3.8050    1.0380    7.3360 ca        1 LWH     -0.058000
     21 C21        -2.7550    0.1220    7.1670 ca        1 LWH     -0.064000
     22 C22        -2.1270    0.0190    5.9180 ca        1 LWH     -0.056000
     23 C23        -2.3500   -0.7060    8.2830 cc        1 LWH     -0.051300
     24 C24        -3.1070   -1.1880    9.3700 cd        1 LWH     -0.286300
     25 C25        -2.1730   -1.9480   10.1630 cd        1 LWH      0.290200
     26 N26        -1.0450   -1.1920    8.4820 na        1 LWH     -0.012600
     27 N27        -0.9390   -1.9190    9.5900 nc        1 LWH     -0.511800
     28 O28        -3.9050    2.5630    3.9830 oh        1 LWH     -0.476100
     29 H01        -0.5090    0.0750   -1.0750 ha        1 LWH      0.128000
     30 H02         1.9180    0.4630   -1.1870 ha        1 LWH      0.136000
     31 H03         3.2090    1.0400    0.8540 ha        1 LWH      0.138000
     32 H04         2.0660    1.2470    3.0590 ha        1 LWH      0.154000
     33 H15        -2.3700   -0.5630   -0.5990 hn        1 LWH      0.414800
     34 H11        -4.7490    0.3410    0.8900 h1        1 LWH      0.096700
     35 H121       -5.3700   -1.7260    1.6460 h1        1 LWH      0.065200
     36 H122       -3.6530   -2.2670    1.4230 h1        1 LWH      0.065200
     37 H141       -4.2790   -0.2540   -1.9720 hc        1 LWH      0.057200
     38 H142       -5.8060    0.2140   -1.1390 hc        1 LWH      0.057200
     39 H16        -4.3010   -3.3840   -0.4280 hn        1 LWH      0.346800
     40 H131       -5.1580   -2.3970   -2.2470 h1        1 LWH      0.050200
     41 H132       -6.6070   -1.9510   -1.2500 h1        1 LWH      0.050200
     42 H22        -1.3120   -0.7050    5.7620 ha        1 LWH      0.145000
     43 H19        -5.0270    2.5720    6.4250 ha        1 LWH      0.139000
     44 H28        -4.6540    3.1140    4.2580 ho        1 LWH      0.421000
     45 H20        -4.3050    1.1150    8.3150 ha        1 LWH      0.144000
     46 H24        -4.1620   -1.0360    9.5640 ha        1 LWH      0.164000
     47 H26        -0.2540   -1.0120    7.9100 hn        1 LWH      0.322700
     48 H25        -2.3670   -2.4870   11.0890 h4        1 LWH      0.042100
@<TRIPOS>BOND
     1    1    2 ar  
     2    1    6 ar  
     3    1   29 1   
     4    2    3 ar  
     5    2   30 1   
     6    3    4 ar  
     7    3   31 1   
     8    4    5 ar  
     9    4   32 1   
    10    5    6 ar  
    11    5   10 ar  
    12    6    7 ar  
    13    7    9 ar  
    14    7   15 1   
    15    8    9 ar  
    16    8   10 ar  
    17    8   17 1   
    18   11   12 1   
    19   11   14 1   
    20   11   15 1   
    21   11   34 1   
    22   12   16 1   
    23   12   35 1   
    24   12   36 1   
    25   13   14 1   
    26   13   16 1   
    27   13   40 1   
    28   13   41 1   
    29   14   37 1   
    30   14   38 1   
    31   15   33 1   
    32   16   39 1   
    33   17   18 ar  
    34   17   22 ar  
    35   18   19 ar  
    36   18   28 1   
    37   19   20 ar  
    38   19   43 1   
    39   20   21 ar  
    40   20   45 1   
    41   21   22 ar  
    42   21   23 1   
    43   22   42 1   
    44   23   24 2   
    45   23   26 1   
    46   24   25 1   
    47   24   46 1   
    48   25   27 2   
    49   25   48 1   
    50   26   27 1   
    51   26   47 1   
    52   28   44 1   
@<TRIPOS>SUBSTRUCTURE
     1 LWH         1 TEMP              0 ****  ****    0 ROOT
