@<TRIPOS>MOLECULE
LWH
   48    52     1     0     0
SMALL
bcc


@<TRIPOS>ATOM
      1 C01         0.0250    0.3050   -0.1600 ca        1 LWH     -0.091000
      2 C02         1.3830    0.5150   -0.2390 ca        1 LWH     -0.144000
      3 C03         2.1240    0.8350    0.9190 ca        1 LWH     -0.104000
      4 C04         1.5040    0.9490    2.1390 ca        1 LWH     -0.180300
      5 C05         0.0920    0.7400    2.2540 ca        1 LWH      0.439600
      6 C06        -0.6470    0.4020    1.0790 ca        1 LWH     -0.290600
      7 C07        -2.0860    0.1880    1.2600 ca        1 LWH      0.696200
      8 C08        -1.8390    0.6710    3.5330 cp        1 LWH      0.752500
      9 N09        -2.6610    0.3080    2.4780 nb        1 LWH     -0.757000
     10 N10        -0.5130    0.8750    3.4880 nb        1 LWH     -0.718000
     11 C11        -4.2730   -0.4220    0.2610 c3        1 LWH      0.186500
     12 C12        -4.5730   -1.8230    0.8940 c3        1 LWH      0.117800
     13 C13        -5.5190   -1.9070   -1.2610 c3        1 LWH      0.139800
     14 C14        -4.9820   -0.4740   -1.1140 c3        1 LWH     -0.114400
     15 N15        -2.8710   -0.0870    0.1400 nu        1 LWH     -0.838900
     16 N16        -5.0700   -2.7230   -0.1370 n7        1 LWH     -0.794200
     17 C17        -2.5110    0.8160    4.8530 cp        1 LWH     -0.155500
     18 C18        -3.5410    1.7570    5.0500 ca        1 LWH      0.169100
     19 C19        -4.1750    1.8560    6.3010 ca        1 LWH     -0.222000
     20 C20        -3.7740    1.0360    7.3470 ca        1 LWH     -0.058000
     21 C21        -2.7350    0.1100    7.1680 ca        1 LWH     -0.064000
     22 C22        -2.1120    0.0060    5.9170 ca        1 LWH     -0.056000
     23 C23        -2.3330   -0.7270    8.2800 cc        1 LWH     -0.051300
     24 C24        -3.0900   -1.2070    9.3670 cd        1 LWH     -0.286300
     25 C25        -2.1590   -1.9790   10.1530 cd        1 LWH      0.290200
     26 N26        -1.0320   -1.2260    8.4710 na        1 LWH     -0.012600
     27 N27        -0.9270   -1.9590    9.5750 nc        1 LWH     -0.511800
     28 O28        -3.8740    2.5740    4.0000 oh        1 LWH     -0.476100
     29 H01        -0.5270    0.0740   -1.0830 ha        1 LWH      0.128000
     30 H02         1.9030    0.4390   -1.2050 ha        1 LWH      0.136000
     31 H03         3.2100    0.9970    0.8320 ha        1 LWH      0.138000
     32 H04         2.0790    1.2060    3.0430 ha        1 LWH      0.154000
     33 H15        -2.3910   -0.5490   -0.6010 hn        1 LWH      0.414800
     34 H11        -4.7540    0.3710    0.9020 h1        1 LWH      0.096700
     35 H121       -5.3910   -1.6930    1.6540 h1        1 LWH      0.065200
     36 H122       -3.6800   -2.2490    1.4210 h1        1 LWH      0.065200
     37 H141       -5.8230    0.2610   -1.1220 hc        1 LWH      0.057200
     38 H142       -4.3040   -0.2180   -1.9640 hc        1 LWH      0.057200
     39 H16        -4.3460   -3.3530   -0.4310 hn        1 LWH      0.346800
     40 H131       -6.6440   -1.8970   -1.2370 h1        1 LWH      0.050200
     41 H132       -5.2030   -2.3520   -2.2420 h1        1 LWH      0.050200
     42 H22        -1.3050   -0.7260    5.7540 ha        1 LWH      0.145000
     43 H19        -4.9850    2.5850    6.4470 ha        1 LWH      0.139000
     44 H28        -4.6160    3.1320    4.2800 ho        1 LWH      0.421000
     45 H20        -4.2690    1.1130    8.3280 ha        1 LWH      0.144000
     46 H24        -4.1420   -1.0450    9.5670 ha        1 LWH      0.164000
     47 H26        -0.2410   -1.0510    7.8960 hn        1 LWH      0.322700
     48 H25        -2.3550   -2.5200   11.0790 h4        1 LWH      0.042100
@<TRIPOS>BOND
     1    1    2 ar  
     2    1    6 ar  
     3    1   29 1   
     4    2    3 ar  
     5    2   30 1   
     6    3    4 ar  
     7    3   31 1   
     8    4    5 ar  
     9    4   32 1   
    10    5    6 ar  
    11    5   10 ar  
    12    6    7 ar  
    13    7    9 ar  
    14    7   15 1   
    15    8    9 ar  
    16    8   10 ar  
    17    8   17 1   
    18   11   12 1   
    19   11   14 1   
    20   11   15 1   
    21   11   34 1   
    22   12   16 1   
    23   12   35 1   
    24   12   36 1   
    25   13   14 1   
    26   13   16 1   
    27   13   40 1   
    28   13   41 1   
    29   14   37 1   
    30   14   38 1   
    31   15   33 1   
    32   16   39 1   
    33   17   18 ar  
    34   17   22 ar  
    35   18   19 ar  
    36   18   28 1   
    37   19   20 ar  
    38   19   43 1   
    39   20   21 ar  
    40   20   45 1   
    41   21   22 ar  
    42   21   23 1   
    43   22   42 1   
    44   23   24 2   
    45   23   26 1   
    46   24   25 1   
    47   24   46 1   
    48   25   27 2   
    49   25   48 1   
    50   26   27 1   
    51   26   47 1   
    52   28   44 1   
@<TRIPOS>SUBSTRUCTURE
     1 LWH         1 TEMP              0 ****  ****    0 ROOT
