@<TRIPOS>MOLECULE
LWJ
   43    45     1     0     0
SMALL
bcc


@<TRIPOS>ATOM
      1 C1          0.0640    0.0260    0.8390 c2        1 LWJ     -0.062000
      2 C2          1.3300   -0.4610    0.3700 c2        1 LWJ     -0.143000
      3 N3          1.9410   -1.0620    1.4770 na        1 LWJ     -0.187000
      4 C4          1.0510   -0.9240    2.5510 c2        1 LWJ      0.017000
      5 N5         -0.0930   -0.2660    2.1810 n2        1 LWJ     -0.139000
      6 C6          8.1760   -2.0440  -11.4610 c1        1 LWJ     -0.104000
      7 C7          6.0140   -0.8280  -11.3220 c2        1 LWJ     -0.142000
      8 C8          5.5960    0.6070  -11.1400 c3        1 LWJ     -0.140000
      9 C9          6.9110    1.3370  -11.0390 c2        1 LWJ     -0.179000
     10 C10         7.9360    0.4520  -11.1430 c2        1 LWJ     -0.133000
     11 C11         7.3800   -0.9060  -11.3210 c2        1 LWJ     -0.011000
     12 C12         1.9070    1.4860   -7.7430 c1        1 LWJ     -0.157000
     13 N13         2.6790    1.3450   -8.6000 n1        1 LWJ     -0.029000
     14 C14         8.8620   -3.0180  -11.5800 c1        1 LWJ     -0.212000
     15 C15         0.5250    1.1870   -4.2020 c2        1 LWJ      0.256000
     16 C16         1.3170    1.1330   -5.4110 c2        1 LWJ     -0.399000
     17 C17         2.5270    0.4380   -5.0210 c2        1 LWJ     -0.061000
     18 N18         2.4960    0.0980   -3.7260 n2        1 LWJ     -0.107000
     19 N19         1.3080    0.5340   -3.2080 na        1 LWJ     -0.131000
     20 O21        -0.1400    2.2510   -6.8990 o         1 LWJ     -0.332000
     21 C22         0.9260    0.3470   -1.8530 c2        1 LWJ     -0.018000
     22 C23         1.7760   -0.3110   -0.9650 c2        1 LWJ      0.027000
     23 C24        -0.8370    0.7220   -0.0970 c3        1 LWJ     -0.123000
     24 C25        -0.3390    0.8520   -1.4510 c1        1 LWJ     -0.178000
     25 N26        -0.6940    1.7380   -4.0480 nv        1 LWJ     -0.339000
     26 C27         1.3530   -1.4450    3.9090 c3        1 LWJ     -0.164000
     27 H1          2.8250   -1.4960    1.4900 hn        1 LWJ      0.263000
     28 H4          4.9830    0.7370  -10.2120 hc        1 LWJ      0.131500
     29 H5          6.9620    2.4140  -10.8990 ha        1 LWJ      0.144000
     30 H6          9.0070    0.6490  -11.1100 ha        1 LWJ      0.146000
     31 H7          5.2950   -1.6370  -11.4300 ha        1 LWJ      0.147000
     32 H8          9.4700   -3.8800  -11.6870 ha        1 LWJ      0.222000
     33 H9          3.3780    0.2010   -5.6660 h4        1 LWJ      0.188000
     34 H10         2.7620   -0.7100   -1.2560 ha        1 LWJ      0.168000
     35 H11        -1.8360    0.1890   -0.1500 hc        1 LWJ      0.179000
     36 H12        -1.0700    1.7640    0.2830 hc        1 LWJ      0.179000
     37 H13        -1.1490    1.7140   -3.1540 hn        1 LWJ      0.275500
     38 H14        -1.1110    2.1600   -4.8470 hn        1 LWJ      0.275500
     39 H15         1.5060   -2.5520    3.8710 hc        1 LWJ      0.108667
     40 H16         0.5060   -1.2240    4.6060 hc        1 LWJ      0.108667
     41 H17         2.2800   -0.9620    4.3080 hc        1 LWJ      0.108667
     42 C20         0.9350    1.6660   -6.6730 c2        1 LWJ      0.416000
     43 H3          4.9960    0.9670  -12.0140 hc        1 LWJ      0.131500
@<TRIPOS>BOND
     1    1    2 1   
     2    1    5 1   
     3    1   23 1   
     4    2    3 1   
     5    2   22 1   
     6    3    4 1   
     7    3   27 1   
     8    4    5 1   
     9    4   26 1   
    10    6   11 1   
    11    6   14 1   
    12    7    8 1   
    13    7   11 1   
    14    7   31 1   
    15    8    9 1   
    16    8   28 1   
    17    8   43 1   
    18    9   10 1   
    19    9   29 1   
    20   10   11 1   
    21   10   30 1   
    22   12   13 1   
    23   12   42 1   
    24   14   32 1   
    25   15   16 1   
    26   15   19 1   
    27   15   25 1   
    28   16   17 1   
    29   16   42 1   
    30   17   18 1   
    31   17   33 1   
    32   18   19 1   
    33   19   21 1   
    34   20   42 1   
    35   21   22 1   
    36   21   24 1   
    37   22   34 1   
    38   23   24 1   
    39   23   35 1   
    40   23   36 1   
    41   25   37 1   
    42   25   38 1   
    43   26   39 1   
    44   26   40 1   
    45   26   41 1   
@<TRIPOS>SUBSTRUCTURE
     1 LWJ         1 TEMP              0 ****  ****    0 ROOT
