@<TRIPOS>MOLECULE
LWJ
   43    45     1     0     0
SMALL
bcc


@<TRIPOS>ATOM
      1 C1         -0.0270    0.1590    0.8510 c2        1 LWJ     -0.062000
      2 C2          1.1430   -0.5210    0.3710 c2        1 LWJ     -0.143000
      3 N3          1.6250   -1.2610    1.4570 na        1 LWJ     -0.187000
      4 C4          0.7580   -1.0130    2.5300 c2        1 LWJ      0.017000
      5 N5         -0.2500   -0.1540    2.1790 n2        1 LWJ     -0.139000
      6 C6          9.0670   -0.9460  -11.1430 c1        1 LWJ     -0.103000
      7 C7          7.0300    0.4470  -10.8540 c2        1 LWJ     -0.142000
      8 C8          5.5710    0.3040  -11.1950 c3        1 LWJ     -0.140000
      9 C9          5.5060   -1.0470  -11.8620 c2        1 LWJ     -0.179000
     10 C10         6.7450   -1.6020  -11.8960 c2        1 LWJ     -0.133000
     11 C11         7.7040   -0.6700  -11.2660 c2        1 LWJ     -0.011000
     12 C12         2.1600    1.6090   -7.6520 c1        1 LWJ     -0.157000
     13 N13         2.9080    1.3710   -8.5080 n1        1 LWJ     -0.029000
     14 C14        10.2360   -1.1860  -11.0400 c1        1 LWJ     -0.212000
     15 C15         0.6980    1.4160   -4.1360 c2        1 LWJ      0.256000
     16 C16         1.4860    1.2730   -5.3400 c2        1 LWJ     -0.399000
     17 C17         2.5510    0.3640   -4.9710 c2        1 LWJ     -0.061000
     18 N18         2.4440   -0.0160   -3.6910 n2        1 LWJ     -0.107000
     19 N19         1.3420    0.5990   -3.1640 na        1 LWJ     -0.131000
     20 O21         0.2650    2.6830   -6.7910 o         1 LWJ     -0.332000
     21 C22         0.9150    0.4290   -1.8200 c2        1 LWJ     -0.019000
     22 C23         1.6260   -0.3990   -0.9530 c2        1 LWJ      0.027000
     23 C24        -0.7810    1.0350   -0.0620 c3        1 LWJ     -0.123000
     24 C25        -0.2490    1.1290   -1.4070 c1        1 LWJ     -0.178000
     25 N26        -0.4090    2.1640   -3.9690 nh        1 LWJ     -0.339000
     26 C27         0.9470   -1.6300    3.8680 c3        1 LWJ     -0.164000
     27 H1          2.4220   -1.8420    1.4590 hn        1 LWJ      0.263000
     28 H4          5.2360    1.1170  -11.8880 hc        1 LWJ      0.131500
     29 H5          4.5710   -1.4600  -12.2360 ha        1 LWJ      0.144000
     30 H6          7.0440   -2.5660  -12.3050 ha        1 LWJ      0.146000
     31 H7          7.4290    1.3260  -10.3540 ha        1 LWJ      0.147000
     32 H8         11.2700   -1.3990  -10.9500 ha        1 LWJ      0.222000
     33 H9          3.3570    0.0090   -5.6190 h4        1 LWJ      0.188000
     34 H10         2.5320   -0.9520   -1.2540 ha        1 LWJ      0.168000
     35 H11        -1.8560    0.6850   -0.1440 hc        1 LWJ      0.179000
     36 H12        -0.8360    2.0860    0.3570 hc        1 LWJ      0.179000
     37 H13        -0.8750    2.1840   -3.0790 hn        1 LWJ      0.275500
     38 H14        -0.7360    2.6830   -4.7520 hn        1 LWJ      0.275500
     39 H15         0.9100   -2.7450    3.7860 hc        1 LWJ      0.108667
     40 H16         1.9370   -1.3290    4.2930 hc        1 LWJ      0.108667
     41 H17         0.1400   -1.2940    4.5660 hc        1 LWJ      0.108667
     42 C20         1.2190    1.9130   -6.5820 c2        1 LWJ      0.416000
     43 H3          4.9340    0.3370  -10.2750 hc        1 LWJ      0.131500
@<TRIPOS>BOND
     1    1    2 1   
     2    1    5 1   
     3    1   23 1   
     4    2    3 1   
     5    2   22 1   
     6    3    4 1   
     7    3   27 1   
     8    4    5 1   
     9    4   26 1   
    10    6   11 1   
    11    6   14 1   
    12    7    8 1   
    13    7   11 1   
    14    7   31 1   
    15    8    9 1   
    16    8   28 1   
    17    8   43 1   
    18    9   10 1   
    19    9   29 1   
    20   10   11 1   
    21   10   30 1   
    22   12   13 1   
    23   12   42 1   
    24   14   32 1   
    25   15   16 1   
    26   15   19 1   
    27   15   25 1   
    28   16   17 1   
    29   16   42 1   
    30   17   18 1   
    31   17   33 1   
    32   18   19 1   
    33   19   21 1   
    34   20   42 1   
    35   21   22 1   
    36   21   24 1   
    37   22   34 1   
    38   23   24 1   
    39   23   35 1   
    40   23   36 1   
    41   25   37 1   
    42   25   38 1   
    43   26   39 1   
    44   26   40 1   
    45   26   41 1   
@<TRIPOS>SUBSTRUCTURE
     1 LWJ         1 TEMP              0 ****  ****    0 ROOT
