@<TRIPOS>MOLECULE
LWM
   40    38     1     0     0
SMALL
bcc


@<TRIPOS>ATOM
      1 P1          2.4050   -4.3840    0.3040 p3        1 LWM      2.523000
      2 N1         -4.3940    1.3400    0.3720 n3        1 LWM     -0.338000
      3 C1         -3.7910    0.7510   -0.8260 c2        1 LWM      0.223000
      4 N2         -4.6230    0.4820   -2.0040 n3        1 LWM     -0.317000
      5 N3         -2.3450    0.4870   -0.8710 n1        1 LWM     -0.267000
      6 C2         -1.5180    0.8690    0.2220 c1        1 LWM      0.267000
      7 C3         -2.1140    1.5320    1.3970 c1        1 LWM     -0.317000
      8 C4         -3.5750    1.7390    1.4590 c1        1 LWM      0.359000
      9 O1         -4.0720    2.2840    2.4250 o         1 LWM     -0.421000
     10 N4         -1.2760    2.0890    2.4000 n         1 LWM     -0.280000
     11 C5         -1.4610    1.7100    3.7870 c2        1 LWM      0.254000
     12 O2         -2.3410    0.9080    4.0910 o         1 LWM     -0.349000
     13 N5         -0.0970    0.5490    0.2070 n3        1 LWM     -0.250000
     14 C1'         0.7280    0.9490   -0.9240 c3        1 LWM     -0.002000
     15 OP3         3.9110   -4.3310    0.4820 o         1 LWM     -1.251000
     16 C2'         2.2450    1.2520   -0.4350 c3        1 LWM     -0.178000
     17 OP2         1.7320   -4.1960    1.6420 o         1 LWM     -1.251000
     18 C3'         3.1300    0.0030   -0.9640 c3        1 LWM      0.071000
     19 O3'         3.9420    0.4050   -2.0730 oh        1 LWM     -0.413000
     20 C4'         2.2480   -0.9060   -1.3480 c3        1 LWM     -0.179000
     21 C5'         1.9400   -1.8540   -0.2040 c3        1 LWM      0.094000
     22 O5'         1.9460   -3.2230   -0.6920 o         1 LWM     -0.725000
     23 C6'         0.8420   -0.0520   -1.7920 c3        1 LWM     -0.160000
     24 HN1        -5.2930    1.4860    0.4030 hn        1 LWM      0.237000
     25 HN7        -0.6880    2.7380    2.1860 hn        1 LWM      0.207000
     26 HN9        -0.9470    2.1600    4.4890 h5        1 LWM      0.096000
     27 H5          0.2770    0.0890    0.9070 hn        1 LWM      0.239000
     28 H2'         2.2820    1.3020    0.5270 hc        1 LWM      0.071500
     29 H5'         1.0570   -1.6430    0.1670 h1        1 LWM      0.026500
     30 H6'         0.0540   -0.6430   -1.7330 hc        1 LWM      0.072000
     31 H1'         0.3530    1.7270   -1.3570 h1        1 LWM      0.110000
     32 H2''        2.5670    2.0870   -0.8300 hc        1 LWM      0.071500
     33 HN2A       -5.5390    0.6120   -1.9620 hn        1 LWM      0.196500
     34 H3'        -4.2310    0.2020   -2.7950 hn        1 LWM      0.196500
     35 H3          3.6860   -0.3470   -0.2450 h1        1 LWM      0.126000
     36 H4'         2.5850   -1.3950   -2.0980 hc        1 LWM      0.105000
     37 H5''        2.6150   -1.7550    0.4910 h1        1 LWM      0.026500
     38 H6''        0.9350    0.3000   -2.7030 hc        1 LWM      0.072000
     39 HO3'        4.8100    0.4090   -1.8260 ho        1 LWM      0.302000
     40 OP1         2.0130   -5.7310   -0.2750 o         1 LWM     -1.251000
@<TRIPOS>BOND
     1    1   15 1   
     2    1   17 1   
     3    1   40 1   
     4    2    3 1   
     5    2    8 1   
     6    2   24 1   
     7    3    4 1   
     8    3    5 1   
     9    4   33 1   
    10    4   34 1   
    11    6    7 1   
    12    6   13 1   
    13    7   10 1   
    14    8    9 1   
    15   10   11 1   
    16   10   25 1   
    17   11   12 1   
    18   11   26 1   
    19   13   14 1   
    20   13   27 1   
    21   14   16 1   
    22   14   23 1   
    23   14   31 1   
    24   16   18 1   
    25   16   28 1   
    26   16   32 1   
    27   18   19 1   
    28   18   20 1   
    29   18   35 1   
    30   19   39 1   
    31   20   21 1   
    32   20   23 1   
    33   20   36 1   
    34   21   22 1   
    35   21   29 1   
    36   21   37 1   
    37   23   30 1   
    38   23   38 1   
@<TRIPOS>SUBSTRUCTURE
     1 LWM         1 TEMP              0 ****  ****    0 ROOT
