@<TRIPOS>MOLECULE
LWM
   40    41     1     0     0
SMALL
bcc


@<TRIPOS>ATOM
      1 P1          2.1770    1.6790   -1.5740 p5        1 LWM      1.345900
      2 N1         -4.8200   -0.6010   -0.8600 n         1 LWM     -0.497400
      3 C1         -4.2190   -1.5310   -0.0110 cc        1 LWM      0.614800
      4 N2         -5.0240   -2.6650    0.3830 nh        1 LWM     -0.870800
      5 N3         -2.9760   -1.4140    0.4530 nd        1 LWM     -0.707300
      6 C2         -2.2270   -0.2650    0.1270 cd        1 LWM      0.409600
      7 C3         -2.7610    0.7240   -0.7490 cc        1 LWM     -0.205600
      8 C4         -4.1100    0.5590   -1.2750 c         1 LWM      0.721700
      9 O1         -4.7350    1.2980   -2.0640 o         1 LWM     -0.671500
     10 N4         -2.0210    1.8420   -1.1680 n         1 LWM     -0.449100
     11 C5         -2.1890    3.0960   -0.6350 c         1 LWM      0.661900
     12 O2         -3.1310    3.4600    0.1010 o         1 LWM     -0.682100
     13 N5         -0.9890   -0.0900    0.7180 nh        1 LWM     -0.708000
     14 C1'        -0.3030   -1.1850    1.3830 c3        1 LWM      0.211500
     15 OP3         2.4110    3.0800   -1.1070 o         1 LWM     -0.927833
     16 C2'         0.3370   -2.1970    0.4030 c3        1 LWM     -0.098400
     17 OP2         2.7280    1.2270   -2.8880 o         1 LWM     -0.927833
     18 C3'         1.6430   -1.5150   -0.0050 c3        1 LWM      0.121100
     19 O3'         2.6010   -2.4970   -0.3700 oh        1 LWM     -0.644800
     20 C4'         2.1100   -0.7040    1.2220 c3        1 LWM     -0.132700
     21 C5'         2.5860    0.7070    0.8150 c3        1 LWM      0.230400
     22 O5'         3.0960    0.7250   -0.4600 os        1 LWM     -0.572200
     23 C6'         0.9210   -0.6550    2.1770 c3        1 LWM     -0.071400
     24 HN7        -1.0920    1.6220   -1.5420 hn        1 LWM      0.405500
     25 HN9        -1.3980    3.8090   -0.9770 h5        1 LWM      0.041200
     26 H5         -0.3360    0.5180    0.2020 hn        1 LWM      0.525800
     27 H2'         0.5350   -3.1600    0.9320 hc        1 LWM      0.034700
     28 H5'         1.7300    1.4370    0.9100 h1        1 LWM     -0.008300
     29 H6'         0.7510    0.3740    2.5780 hc        1 LWM      0.028700
     30 H1'        -1.0120   -1.7060    2.0820 h1        1 LWM      0.037700
     31 H2''       -0.3080   -2.4040   -0.4820 hc        1 LWM      0.034700
     32 HN2A       -4.5650   -3.1950    1.1000 hn        1 LWM      0.374300
     33 H3'        -5.2040   -3.2490   -0.4100 hn        1 LWM      0.374300
     34 H3          1.4610   -0.7970   -0.8710 h1        1 LWM      0.146700
     35 H4'         2.9660   -1.2440    1.7060 hc        1 LWM      0.023700
     36 H5''        3.3900    1.0080    1.5520 h1        1 LWM     -0.008300
     37 H6''        1.0840   -1.3390    3.0480 hc        1 LWM      0.028700
     38 HO3'        3.3000   -1.9950   -0.8130 ho        1 LWM      0.424000
     39 OP1         0.7700    1.1730   -1.2510 o         1 LWM     -0.927833
     40 HN1        -5.7610   -0.7130   -1.1580 hn        1 LWM      0.312500
@<TRIPOS>BOND
     1    1   15 1   
     2    1   17 1   
     3    1   22 1   
     4    1   39 1   
     5    2    3 1   
     6    2    8 1   
     7    2   40 1   
     8    3    4 1   
     9    3    5 2   
    10    4   32 1   
    11    4   33 1   
    12    5    6 1   
    13    6    7 2   
    14    6   13 1   
    15    7    8 1   
    16    7   10 1   
    17    8    9 2   
    18   10   11 1   
    19   10   24 1   
    20   11   12 2   
    21   11   25 1   
    22   13   14 1   
    23   13   26 1   
    24   14   16 1   
    25   14   23 1   
    26   14   30 1   
    27   16   18 1   
    28   16   27 1   
    29   16   31 1   
    30   18   19 1   
    31   18   20 1   
    32   18   34 1   
    33   19   38 1   
    34   20   21 1   
    35   20   23 1   
    36   20   35 1   
    37   21   22 1   
    38   21   28 1   
    39   21   36 1   
    40   23   29 1   
    41   23   37 1   
@<TRIPOS>SUBSTRUCTURE
     1 LWM         1 TEMP              0 ****  ****    0 ROOT
