@<TRIPOS>MOLECULE
LWS
   34    36     1     0     0
SMALL
bcc


@<TRIPOS>ATOM
      1 C1         -0.0650   -0.1190    0.1380 c3        1 LWS     -0.081100
      2 C2          1.4420    0.0130    0.0590 c3        1 LWS     -0.060700
      3 C3          2.0900   -0.0040    1.4250 ca        1 LWS     -0.118300
      4 C4          1.9670    0.8640    2.4850 ca        1 LWS     -0.073000
      5 C5          2.6950    0.6150    3.6710 ca        1 LWS     -0.012000
      6 C6          3.5330   -0.4960    3.7630 ca        1 LWS     -0.131000
      7 C7          3.6660   -1.3990    2.6870 ca        1 LWS      0.083900
      8 C8          2.9410   -1.1540    1.5110 ca        1 LWS      0.027600
      9 N9          2.9000   -1.8910    0.3210 ns        1 LWS     -0.473100
     10 C10         2.0380   -1.2660   -0.6010 c         1 LWS      0.702500
     11 O11         1.8180   -1.6970   -1.7360 o         1 LWS     -0.593500
     12 F12         4.4810   -2.4750    2.7940 f         1 LWS     -0.138900
     13 C13         2.5700    1.5620    4.7630 cc        1 LWS     -0.086300
     14 C14         2.5010    2.9660    4.6550 cd        1 LWS     -0.172000
     15 C15         2.3850    3.4950    5.9780 cd        1 LWS     -0.197000
     16 C16         2.3810    2.4050    6.8610 cc        1 LWS     -0.152300
     17 N17         2.4970    1.2280    6.1250 na        1 LWS     -0.053100
     18 C18         2.4890   -0.0830    6.6860 c3        1 LWS      0.017600
     19 C19         1.8430    1.2290   -0.7500 c3        1 LWS     -0.081100
     20 H1         -0.4990    0.7940    0.6120 hc        1 LWS      0.051533
     21 H1A        -0.3520   -1.0100    0.7470 hc        1 LWS      0.051533
     22 H1B        -0.4880   -0.2340   -0.8890 hc        1 LWS      0.051533
     23 H4          1.3120    1.7470    2.4210 ha        1 LWS      0.152000
     24 H6          4.1220   -0.6810    4.6740 ha        1 LWS      0.152000
     25 HN9         3.4280   -2.7090    0.1590 hn        1 LWS      0.348500
     26 H14         2.5420    3.5340    3.7310 ha        1 LWS      0.152000
     27 H15         2.3160    4.5430    6.2500 ha        1 LWS      0.154000
     28 H16         2.3030    2.3850    7.9480 h4        1 LWS      0.166000
     29 H18         1.8570   -0.0960    7.6140 h1        1 LWS      0.054033
     30 H18A        2.0720   -0.8160    5.9440 h1        1 LWS      0.054033
     31 H18B        3.5350   -0.3970    6.9570 h1        1 LWS      0.054033
     32 H19         1.4170    2.1490   -0.2830 hc        1 LWS      0.051533
     33 H19A        2.9550    1.3290   -0.7880 hc        1 LWS      0.051533
     34 H19B        1.4550    1.1330   -1.7930 hc        1 LWS      0.051533
@<TRIPOS>BOND
     1    1    2 1   
     2    1   20 1   
     3    1   21 1   
     4    1   22 1   
     5    2    3 1   
     6    2   10 1   
     7    2   19 1   
     8    3    4 ar  
     9    3    8 ar  
    10    4    5 ar  
    11    4   23 1   
    12    5    6 ar  
    13    5   13 1   
    14    6    7 ar  
    15    6   24 1   
    16    7    8 ar  
    17    7   12 1   
    18    8    9 1   
    19    9   10 1   
    20    9   25 1   
    21   10   11 2   
    22   13   14 2   
    23   13   17 1   
    24   14   15 1   
    25   14   26 1   
    26   15   16 2   
    27   15   27 1   
    28   16   17 1   
    29   16   28 1   
    30   17   18 1   
    31   18   29 1   
    32   18   30 1   
    33   18   31 1   
    34   19   32 1   
    35   19   33 1   
    36   19   34 1   
@<TRIPOS>SUBSTRUCTURE
     1 LWS         1 TEMP              0 ****  ****    0 ROOT
