@<TRIPOS>MOLECULE
LWS
   34    36     1     0     0
SMALL
bcc


@<TRIPOS>ATOM
      1 C1         -0.0630   -0.1220    0.1380 c3        1 LWS     -0.081100
      2 C2          1.4430    0.0130    0.0590 c3        1 LWS     -0.060700
      3 C3          2.0910   -0.0040    1.4250 ca        1 LWS     -0.118300
      4 C4          1.9660    0.8640    2.4850 ca        1 LWS     -0.073000
      5 C5          2.6940    0.6150    3.6710 ca        1 LWS     -0.012000
      6 C6          3.5340   -0.4940    3.7630 ca        1 LWS     -0.131000
      7 C7          3.6690   -1.3960    2.6860 ca        1 LWS      0.083900
      8 C8          2.9440   -1.1510    1.5100 ca        1 LWS      0.027600
      9 N9          2.9060   -1.8880    0.3200 n         1 LWS     -0.473100
     10 C10         2.0430   -1.2650   -0.6020 c         1 LWS      0.702500
     11 O11         1.8230   -1.6950   -1.7370 o         1 LWS     -0.593500
     12 F12         4.4870   -2.4700    2.7930 f         1 LWS     -0.138900
     13 C13         2.5670    1.5610    4.7640 cc        1 LWS     -0.086300
     14 C14         2.4950    2.9660    4.6570 cd        1 LWS     -0.172000
     15 C15         2.3790    3.4940    5.9800 cd        1 LWS     -0.197000
     16 C16         2.3760    2.4040    6.8620 cc        1 LWS     -0.152300
     17 N17         2.4940    1.2270    6.1260 na        1 LWS     -0.053100
     18 C18         2.4900   -0.0850    6.6860 c3        1 LWS      0.017600
     19 C19         1.8430    1.2300   -0.7490 c3        1 LWS     -0.081100
     20 H1         -0.3490   -1.0140    0.7460 hc        1 LWS      0.051533
     21 H1A        -0.4860   -0.2380   -0.8900 hc        1 LWS      0.051533
     22 H1B        -0.4990    0.7900    0.6120 hc        1 LWS      0.051533
     23 H4          1.3100    1.7460    2.4220 ha        1 LWS      0.152000
     24 H6          4.1240   -0.6780    4.6740 ha        1 LWS      0.152000
     25 HN9         3.4350   -2.7050    0.1580 hn        1 LWS      0.348500
     26 H14         2.5350    3.5340    3.7330 ha        1 LWS      0.152000
     27 H15         2.3070    4.5420    6.2530 ha        1 LWS      0.154000
     28 H16         2.2980    2.3820    7.9490 h4        1 LWS      0.166000
     29 H18         3.5360   -0.3960    6.9570 h1        1 LWS      0.054033
     30 H18A        2.0740   -0.8180    5.9430 h1        1 LWS      0.054033
     31 H18B        1.8580   -0.0990    7.6130 h1        1 LWS      0.054033
     32 H19         1.4540    1.1340   -1.7920 hc        1 LWS      0.051533
     33 H19A        1.4130    2.1500   -0.2830 hc        1 LWS      0.051533
     34 H19B        2.9530    1.3330   -0.7870 hc        1 LWS      0.051533
@<TRIPOS>BOND
     1    1    2 1   
     2    1   20 1   
     3    1   21 1   
     4    1   22 1   
     5    2    3 1   
     6    2   10 1   
     7    2   19 1   
     8    3    4 ar  
     9    3    8 ar  
    10    4    5 ar  
    11    4   23 1   
    12    5    6 ar  
    13    5   13 1   
    14    6    7 ar  
    15    6   24 1   
    16    7    8 ar  
    17    7   12 1   
    18    8    9 1   
    19    9   10 1   
    20    9   25 1   
    21   10   11 2   
    22   13   14 2   
    23   13   17 1   
    24   14   15 1   
    25   14   26 1   
    26   15   16 2   
    27   15   27 1   
    28   16   17 1   
    29   16   28 1   
    30   17   18 1   
    31   18   29 1   
    32   18   30 1   
    33   18   31 1   
    34   19   32 1   
    35   19   33 1   
    36   19   34 1   
@<TRIPOS>SUBSTRUCTURE
     1 LWS         1 TEMP              0 ****  ****    0 ROOT
