@<TRIPOS>MOLECULE
LWW
   45    35     1     0     0
SMALL
bcc


@<TRIPOS>ATOM
      1 C4          0.3280    4.3200    2.6730 c1        1 LWW     -0.813000
      2 C5         -0.9730    4.8030    2.6840 c1        1 LWW     -0.019000
      3 C6         -1.3400    5.8290    1.8220 c1        1 LWW     -0.094833
      4 C10         0.6610    1.4490    3.2180 c1        1 LWW     -0.813000
      5 C13         0.3880   -1.1160    2.1980 c1        1 LWW     -0.053000
      6 C15        -0.5120    0.7400    3.4280 c1        1 LWW     -0.094833
      7 C20        -0.4250   -3.5500   -2.0810 c1        1 LWW     -0.105000
      8 C21        -0.7030   -4.6880   -2.8060 c1        1 LWW     -0.083000
      9 C22        -0.6630   -4.3580   -4.1530 c1        1 LWW     -0.161000
     10 C26        -0.1970   -2.4560   -5.4980 c1        1 LWW     -0.198000
     11 C1         -0.4070    6.3700    0.9510 c1        1 LWW     -0.094833
     12 C2          0.8930    5.8880    0.9400 c1        1 LWW     -0.094833
     13 C3          1.2610    4.8620    1.8020 c1        1 LWW     -0.094833
     14 S7          0.8390    3.1010    3.8850 s6        1 LWW      2.887000
     15 O8          2.1840    3.3410    4.3310 o         1 LWW     -0.934500
     16 O9          0.1060    3.2490    5.1150 o         1 LWW     -0.934500
     17 C11         1.6970    0.8770    2.4980 c1        1 LWW     -0.019000
     18 C12         1.5610   -0.4070    1.9870 c1        1 LWW     -0.140000
     19 C14        -0.6480   -0.5430    2.9180 c1        1 LWW     -0.094833
     20 C16         0.2230   -2.5130    1.6020 c3        1 LWW      0.005000
     21 N17        -0.1870   -2.4030    0.2190 n3        1 LWW     -0.380000
     22 C18        -0.4760   -3.5890   -0.5400 c1        1 LWW      0.367000
     23 O19        -0.7330   -4.6320    0.0350 o         1 LWW     -0.352000
     24 C23        -0.7990   -5.1350   -5.3180 c1        1 LWW     -0.004000
     25 N24        -0.6310   -4.5580   -6.5490 n1        1 LWW     -0.160000
     26 C25        -0.3310   -3.2270   -6.6480 c1        1 LWW     -0.050000
     27 C27        -0.3660   -3.0370   -4.2500 c1        1 LWW      0.037000
     28 N28        -0.2170   -2.5310   -2.9600 n1        1 LWW     -0.200000
     29 H5         -1.6280    4.4230    3.2950 ha        1 LWW      0.153000
     30 H6         -2.2550    6.1690    1.8290 ha        1 LWW      0.144167
     31 H15        -1.2430    1.1440    3.9360 ha        1 LWW      0.144167
     32 H21        -0.8850   -5.5720   -2.4380 DU        1 LWW      0.212500
     33 H26         0.0160   -1.5110   -5.5690 ha        1 LWW      0.146000
     34 H1         -0.6650    7.0910    0.3460 ha        1 LWW      0.144167
     35 H2          1.5470    6.2680    0.3290 ha        1 LWW      0.144167
     36 H3          2.1710    4.5240    1.7940 ha        1 LWW      0.144167
     37 H11         2.5230    1.3780    2.3500 ha        1 LWW      0.153000
     38 H12         2.2930   -0.8100    1.4790 ha        1 LWW      0.164000
     39 H14        -1.4750   -1.0430    3.0670 ha        1 LWW      0.144167
     40 H16         1.0760   -2.9940    1.6530 h1        1 LWW      0.115000
     41 H16A       -0.4600   -3.0050    2.1070 h1        1 LWW      0.115000
     42 HN17       -0.3110   -1.5810   -0.1540 hn        1 LWW      0.227000
     43 H23        -1.0110   -6.0790   -5.2490 ha        1 LWW      0.166000
     44 H25        -0.2120   -2.8170   -7.5280 ha        1 LWW      0.161000
     45 HN28       -0.0160   -1.6700   -2.7440 DU        1 LWW      0.212500
@<TRIPOS>BOND
     1    1    2 1   
     2    1   14 1   
     3    2   29 1   
     4    3   11 1   
     5    3   30 1   
     6    4   14 1   
     7    4   17 1   
     8    5   18 1   
     9    5   20 1   
    10    6   19 1   
    11    6   31 1   
    12    7    8 1   
    13    7   28 1   
    14    8    9 1   
    15    9   24 1   
    16   10   27 1   
    17   10   33 1   
    18   11   34 1   
    19   12   13 1   
    20   12   35 1   
    21   13   36 1   
    22   14   15 1   
    23   14   16 1   
    24   17   37 1   
    25   18   38 1   
    26   19   39 1   
    27   20   21 1   
    28   20   40 1   
    29   20   41 1   
    30   21   22 1   
    31   21   42 1   
    32   22   23 1   
    33   24   43 1   
    34   25   26 1   
    35   26   44 1   
@<TRIPOS>SUBSTRUCTURE
     1 LWW         1 TEMP              0 ****  ****    0 ROOT
