@<TRIPOS>MOLECULE
LWW
   46    49     1     0     0
SMALL
bcc


@<TRIPOS>ATOM
      1 C4         -0.2900    0.1620   -0.1040 ca        1 LWW     -0.407500
      2 C5          1.0620    0.4530   -0.3390 ca        1 LWW     -0.016000
      3 C6          1.9660    0.5570    0.7130 ca        1 LWW     -0.153500
      4 C10        -1.2900   -1.5640   -1.7680 ca        1 LWW     -0.289500
      5 C13        -1.2310   -4.2590   -2.5310 ca        1 LWW     -0.138300
      6 C15        -2.1860   -2.4790   -1.2070 ca        1 LWW     -0.018000
      7 C20        -0.3370   -8.9830   -1.2990 cc        1 LWW     -0.283300
      8 C21        -0.7040  -10.3390   -1.3250 cd        1 LWW      0.072800
      9 C22        -0.2950  -10.9070   -0.0730 ca        1 LWW     -0.277100
     10 C26         0.8480  -10.1150    1.9610 ca        1 LWW     -0.264300
     11 C1          1.5280    0.3780    2.0270 ca        1 LWW     -0.053000
     12 C2          0.1850    0.0960    2.2810 ca        1 LWW     -0.153500
     13 C3         -0.7140   -0.0070    1.2230 ca        1 LWW     -0.016000
     14 S7         -1.3810    0.1060   -1.3600 sy        1 LWW      1.436600
     15 O8         -2.6780    0.3440   -0.8950 o         1 LWW     -0.636800
     16 O9         -0.9010    0.8250   -2.4580 o         1 LWW     -0.636800
     17 C11        -0.3700   -2.0120   -2.7190 ca        1 LWW     -0.018000
     18 C12        -0.3310   -3.3540   -3.1000 ca        1 LWW     -0.129000
     19 C14        -2.1610   -3.8210   -1.5810 ca        1 LWW     -0.129000
     20 C16        -1.2450   -5.6810   -2.9820 c3        1 LWW      0.165100
     21 N17        -0.6400   -6.5810   -1.9460 n4        1 LWW     -0.674800
     22 C18        -0.6620   -8.0470   -2.3450 c         1 LWW      0.586300
     23 O19        -0.9810   -8.2930   -3.5020 o         1 LWW     -0.430100
     24 C23        -0.3810  -12.1880    0.5140 ca        1 LWW      0.500200
     25 N24         0.1090  -12.4410    1.7300 nb        1 LWW     -0.659000
     26 C25         0.7030  -11.4330    2.4210 ca        1 LWW      0.470200
     27 C27         0.3320   -9.8450    0.6870 ca        1 LWW      0.019800
     28 N28         0.2450   -8.6350   -0.0350 na        1 LWW     -0.166400
     29 H5          1.4030    0.6240   -1.3760 ha        1 LWW      0.154000
     30 H6          3.0210    0.7960    0.5110 ha        1 LWW      0.151000
     31 H15        -2.9400   -2.1240   -0.4800 ha        1 LWW      0.175500
     32 H21        -1.2230  -10.8530   -2.1380 ha        1 LWW      0.195000
     33 H26         1.3360   -9.3480    2.5750 ha        1 LWW      0.168000
     34 H1          2.2400    0.4700    2.8630 ha        1 LWW      0.148000
     35 H2         -0.1670   -0.0290    3.3160 ha        1 LWW      0.151000
     36 H3         -1.7830   -0.2000    1.4270 ha        1 LWW      0.154000
     37 H11         0.3180   -1.2880   -3.1950 ha        1 LWW      0.175500
     38 H12         0.3900   -3.6840   -3.8650 ha        1 LWW      0.144000
     39 H14        -2.8940   -4.5210   -1.1520 ha        1 LWW      0.144000
     40 H16        -0.6630   -5.8170   -3.9400 hx        1 LWW      0.120700
     41 H16A       -2.3030   -6.0340   -3.1630 hx        1 LWW      0.120700
     42 HN17       -1.1570   -6.4700   -1.0650 hn        1 LWW      0.457300
     43 H23        -0.8630  -13.0330   -0.0160 h4        1 LWW      0.052100
     44 H25         1.0890  -11.7190    3.4200 h4        1 LWW      0.052100
     45 HN28        1.0380   -8.0330   -0.0230 hn        1 LWW      0.275700
     46 H172        0.3300   -6.2950   -1.7810 hn        1 LWW      0.457300
@<TRIPOS>BOND
     1    1    2 ar  
     2    1   13 ar  
     3    1   14 1   
     4    2    3 ar  
     5    2   29 1   
     6    3   11 ar  
     7    3   30 1   
     8    4    6 ar  
     9    4   14 1   
    10    4   17 ar  
    11    5   18 ar  
    12    5   19 ar  
    13    5   20 1   
    14    6   19 ar  
    15    6   31 1   
    16    7    8 2   
    17    7   22 1   
    18    7   28 1   
    19    8    9 1   
    20    8   32 1   
    21    9   24 ar  
    22    9   27 ar  
    23   10   26 ar  
    24   10   27 ar  
    25   10   33 1   
    26   11   12 ar  
    27   11   34 1   
    28   12   13 ar  
    29   12   35 1   
    30   13   36 1   
    31   14   15 2   
    32   14   16 2   
    33   17   18 ar  
    34   17   37 1   
    35   18   38 1   
    36   19   39 1   
    37   20   21 1   
    38   20   40 1   
    39   20   41 1   
    40   21   22 1   
    41   21   42 1   
    42   21   46 1   
    43   22   23 2   
    44   24   25 ar  
    45   24   43 1   
    46   25   26 ar  
    47   26   44 1   
    48   27   28 1   
    49   28   45 1   
@<TRIPOS>SUBSTRUCTURE
     1 LWW         1 TEMP              0 ****  ****    0 ROOT
