@<TRIPOS>MOLECULE
LWW
   46    49     1     0     0
SMALL
bcc


@<TRIPOS>ATOM
      1 C4          0.0530    0.1620   -0.3070 ca        1 LWW     -0.407500
      2 C5          1.4150   -0.0020   -0.0130 ca        1 LWW     -0.016000
      3 C6          1.8840    0.1010    1.2930 ca        1 LWW     -0.153500
      4 C10        -0.8840   -1.5640   -2.0060 ca        1 LWW     -0.289500
      5 C13        -1.5630   -4.2620   -2.3410 ca        1 LWW     -0.138300
      6 C15        -2.1660   -2.0180   -1.6850 ca        1 LWW     -0.018000
      7 C20        -0.9290   -8.9850   -0.9550 cc        1 LWW     -0.283300
      8 C21        -0.7610  -10.3400   -1.2860 cd        1 LWW      0.072800
      9 C22         0.1180  -10.9050   -0.3040 ca        1 LWW     -0.277100
     10 C26         1.2980  -10.1110    1.7070 ca        1 LWW     -0.264300
     11 C1          0.9930    0.3770    2.3320 ca        1 LWW     -0.053000
     12 C2         -0.3650    0.5510    2.0570 ca        1 LWW     -0.153500
     13 C3         -0.8260    0.4470    0.7490 ca        1 LWW     -0.016000
     14 S7         -0.4920    0.1080   -1.8780 sy        1 LWW      1.436600
     15 O8         -1.6870    0.8220   -2.0080 o         1 LWW     -0.636800
     16 O9          0.5570    0.3520   -2.7700 o         1 LWW     -0.636800
     17 C11         0.0530   -2.4740   -2.5040 ca        1 LWW     -0.018000
     18 C12        -0.2780   -3.8170   -2.6710 ca        1 LWW     -0.129000
     19 C14        -2.5090   -3.3610   -1.8440 ca        1 LWW     -0.129000
     20 C16        -1.9410   -5.6850   -2.5820 c3        1 LWW      0.165100
     21 N17        -1.3450   -6.5830   -1.5390 ny        1 LWW     -0.674800
     22 C18        -1.6730   -8.0510   -1.7600 c         1 LWW      0.586300
     23 O19        -2.5120   -8.2990   -2.6180 o         1 LWW     -0.430100
     24 C23         0.6730  -12.1840   -0.0850 ca        1 LWW      0.500200
     25 N24         1.4790  -12.4350    0.9500 nb        1 LWW     -0.659000
     26 C25         1.7740  -11.4270    1.8120 ca        1 LWW      0.470200
     27 C27         0.4560   -9.8420    0.6210 ca        1 LWW      0.019800
     28 N28        -0.1290   -8.6350    0.1840 na        1 LWW     -0.166400
     29 H5          2.1250   -0.1900   -0.8380 ha        1 LWW      0.154000
     30 H6          2.9580   -0.0200    1.5040 ha        1 LWW      0.151000
     31 H15        -2.9240   -1.2980   -1.3260 ha        1 LWW      0.175500
     32 H21        -1.2010  -10.8540   -2.1440 ha        1 LWW      0.195000
     33 H26         1.5820   -9.3430    2.4390 ha        1 LWW      0.168000
     34 H1          1.3630    0.4680    3.3660 ha        1 LWW      0.148000
     35 H2         -1.0670    0.7850    2.8720 ha        1 LWW      0.151000
     36 H3         -1.8950    0.6150    0.5280 ha        1 LWW      0.154000
     37 H11         1.0580   -2.1150   -2.7940 ha        1 LWW      0.175500
     38 H12         0.4640   -4.5130   -3.0930 ha        1 LWW      0.144000
     39 H14        -3.5300   -3.6960   -1.6030 ha        1 LWW      0.144000
     40 H16        -1.5650   -6.0350   -3.5880 hx        1 LWW      0.120700
     41 H16A       -3.0610   -5.8250   -2.5590 hx        1 LWW      0.120700
     42 HN17       -1.6900   -6.3000   -0.6170 hn        1 LWW      0.457300
     43 H23         0.4600  -13.0290   -0.7680 h4        1 LWW      0.052100
     44 H25         2.4450  -11.7110    2.6470 h4        1 LWW      0.052100
     45 HN28       -0.5200   -8.0340    0.8760 hn        1 LWW      0.275700
     46 H172       -0.3230   -6.4680   -1.5440 hn        1 LWW      0.457300
@<TRIPOS>BOND
     1    1    2 ar  
     2    1   13 ar  
     3    1   14 1   
     4    2    3 ar  
     5    2   29 1   
     6    3   11 ar  
     7    3   30 1   
     8    4    6 ar  
     9    4   14 1   
    10    4   17 ar  
    11    5   18 ar  
    12    5   19 ar  
    13    5   20 1   
    14    6   19 ar  
    15    6   31 1   
    16    7    8 2   
    17    7   22 1   
    18    7   28 1   
    19    8    9 1   
    20    8   32 1   
    21    9   24 ar  
    22    9   27 ar  
    23   10   26 ar  
    24   10   27 ar  
    25   10   33 1   
    26   11   12 ar  
    27   11   34 1   
    28   12   13 ar  
    29   12   35 1   
    30   13   36 1   
    31   14   15 2   
    32   14   16 2   
    33   17   18 ar  
    34   17   37 1   
    35   18   38 1   
    36   19   39 1   
    37   20   21 1   
    38   20   40 1   
    39   20   41 1   
    40   21   22 1   
    41   21   42 1   
    42   21   46 1   
    43   22   23 2   
    44   24   25 ar  
    45   24   43 1   
    46   25   26 ar  
    47   26   44 1   
    48   27   28 1   
    49   28   45 1   
@<TRIPOS>SUBSTRUCTURE
     1 LWW         1 TEMP              0 ****  ****    0 ROOT
