@<TRIPOS>MOLECULE
LWW
   45    48     1     0     0
SMALL
bcc


@<TRIPOS>ATOM
      1 C4         -4.3040    1.0360    0.3300 ca        1 LWW     -0.371500
      2 C5         -4.5490    1.7070   -0.8750 ca        1 LWW     -0.017500
      3 C6         -4.3600    3.0830   -0.9790 ca        1 LWW     -0.156500
      4 C10        -3.0370   -1.2050    0.0630 ca        1 LWW     -0.365500
      5 C13        -0.5050   -2.2320   -0.5960 ca        1 LWW     -0.060300
      6 C15        -2.0570   -1.3820    1.0480 ca        1 LWW     -0.020500
      7 C20         3.7330   -0.6460    0.2640 cc        1 LWW     -0.151300
      8 C21         4.9360   -0.7100    0.9690 cd        1 LWW     -0.071200
      9 C22         5.6600    0.5020    0.6770 ca        1 LWW     -0.238100
     10 C26         5.2690    2.5330   -0.6690 ca        1 LWW     -0.263300
     11 C1         -3.9240    3.8100    0.1290 ca        1 LWW     -0.068000
     12 C2         -3.6830    3.1580    1.3390 ca        1 LWW     -0.156500
     13 C3         -3.8750    1.7820    1.4350 ca        1 LWW     -0.017500
     14 S7         -4.5640   -0.6200    0.4610 sy        1 LWW      1.439600
     15 O8         -4.8510   -0.9410    1.7970 o         1 LWW     -0.655300
     16 O9         -5.4830   -1.0240   -0.5210 o         1 LWW     -0.655300
     17 C11        -2.7300   -1.5640   -1.2550 ca        1 LWW     -0.020500
     18 C12        -1.4760   -2.0700   -1.5880 ca        1 LWW     -0.145000
     19 C14        -0.8010   -1.8880    0.7270 ca        1 LWW     -0.145000
     20 C16         0.8450   -2.8070   -0.9320 c3        1 LWW      0.128300
     21 N17         1.9250   -1.8600   -0.8670 n         1 LWW     -0.570900
     22 C18         2.6750   -1.6810    0.2800 c         1 LWW      0.692300
     23 O19         2.4970   -2.3930    1.2890 o         1 LWW     -0.591100
     24 C23         6.9050    1.0410    1.0530 ca        1 LWW      0.461200
     25 N24         7.3270    2.2340    0.6220 nb        1 LWW     -0.686000
     26 C25         6.5220    2.9460   -0.2110 ca        1 LWW      0.415200
     27 C27         4.8250    1.2780   -0.2180 ca        1 LWW     -0.008200
     28 N28         3.6760    0.5410   -0.5010 na        1 LWW     -0.177400
     29 H5         -4.9130    1.1330   -1.7450 ha        1 LWW      0.152500
     30 H6         -4.5610    3.5950   -1.9310 ha        1 LWW      0.141500
     31 H15        -2.2960   -1.1320    2.0970 ha        1 LWW      0.154000
     32 H21         5.2590   -1.5230    1.6160 ha        1 LWW      0.178000
     33 H26         4.6710    3.1560   -1.3440 ha        1 LWW      0.146000
     34 H1         -3.7740    4.8980    0.0500 ha        1 LWW      0.137000
     35 H2         -3.3490    3.7290    2.2180 ha        1 LWW      0.141500
     36 H3         -3.7040    1.2680    2.3980 ha        1 LWW      0.152500
     37 H11        -3.5030   -1.4550   -2.0370 ha        1 LWW      0.154000
     38 H12        -1.2580   -2.3510   -2.6290 ha        1 LWW      0.151000
     39 H14        -0.0350   -2.0290    1.5090 ha        1 LWW      0.151000
     40 H16         1.0600   -3.6480   -0.2070 h1        1 LWW      0.075700
     41 H16A        0.8210   -3.2350   -1.9760 h1        1 LWW      0.075700
     42 HN17        2.0550   -1.2640   -1.6470 hn        1 LWW      0.313500
     43 H23         7.5840    0.4870    1.7260 h4        1 LWW      0.029100
     44 H25         6.9330    3.9240   -0.5240 h4        1 LWW      0.024100
     45 HN28        2.8430    0.9300   -0.8590 hn        1 LWW      0.296700
@<TRIPOS>BOND
     1    1    2 ar  
     2    1   13 ar  
     3    1   14 1   
     4    2    3 ar  
     5    2   29 1   
     6    3   11 ar  
     7    3   30 1   
     8    4    6 ar  
     9    4   14 1   
    10    4   17 ar  
    11    5   18 ar  
    12    5   19 ar  
    13    5   20 1   
    14    6   19 ar  
    15    6   31 1   
    16    7    8 2   
    17    7   22 1   
    18    7   28 1   
    19    8    9 1   
    20    8   32 1   
    21    9   24 ar  
    22    9   27 ar  
    23   10   26 ar  
    24   10   27 ar  
    25   10   33 1   
    26   11   12 ar  
    27   11   34 1   
    28   12   13 ar  
    29   12   35 1   
    30   13   36 1   
    31   14   15 2   
    32   14   16 2   
    33   17   18 ar  
    34   17   37 1   
    35   18   38 1   
    36   19   39 1   
    37   20   21 1   
    38   20   40 1   
    39   20   41 1   
    40   21   22 1   
    41   21   42 1   
    42   22   23 2   
    43   24   25 ar  
    44   24   43 1   
    45   25   26 ar  
    46   26   44 1   
    47   27   28 1   
    48   28   45 1   
@<TRIPOS>SUBSTRUCTURE
     1 LWW         1 TEMP              0 ****  ****    0 ROOT
