@<TRIPOS>MOLECULE
LWW
   46    49     1     0     0
SMALL
bcc


@<TRIPOS>ATOM
      1 C4         -0.2770    0.1600   -0.1080 ca        1 LWW     -0.407500
      2 C5          1.0790    0.4400   -0.3330 ca        1 LWW     -0.016000
      3 C6          1.9750    0.5400    0.7270 ca        1 LWW     -0.153500
      4 C10        -1.2740   -1.5610   -1.7790 ca        1 LWW     -0.289500
      5 C13        -1.2280   -4.2580   -2.5360 ca        1 LWW     -0.138300
      6 C15        -2.1790   -2.4700   -1.2210 ca        1 LWW     -0.018000
      7 C20        -0.3490   -8.9830   -1.2960 cc        1 LWW     -0.283300
      8 C21        -0.7210  -10.3380   -1.3160 cd        1 LWW      0.072800
      9 C22        -0.3090  -10.9040   -0.0650 ca        1 LWW     -0.277100
     10 C26         0.8440  -10.1110    1.9630 ca        1 LWW     -0.264300
     11 C1          1.5250    0.3660    2.0370 ca        1 LWW     -0.053000
     12 C2          0.1770    0.0950    2.2800 ca        1 LWW     -0.153500
     13 C3         -0.7130   -0.0030    1.2150 ca        1 LWW     -0.016000
     14 S7         -1.3570    0.1110   -1.3740 sy        1 LWW      1.436600
     15 O8         -2.6560    0.3580   -0.9200 o         1 LWW     -0.636800
     16 O9         -0.8630    0.8240   -2.4690 o         1 LWW     -0.636800
     17 C11        -0.3520   -2.0170   -2.7240 ca        1 LWW     -0.018000
     18 C12        -0.3190   -3.3600   -3.1010 ca        1 LWW     -0.128500
     19 C14        -2.1610   -3.8120   -1.5920 ca        1 LWW     -0.128500
     20 C16        -1.2490   -5.6810   -2.9840 c3        1 LWW      0.166100
     21 N17        -0.6460   -6.5810   -1.9470 n4        1 LWW     -0.674800
     22 C18        -0.6740   -8.0480   -2.3420 c         1 LWW      0.586300
     23 O19        -0.9980   -8.2960   -3.4980 o         1 LWW     -0.429100
     24 C23        -0.3980  -12.1830    0.5250 ca        1 LWW      0.500200
     25 N24         0.0960  -12.4340    1.7410 nb        1 LWW     -0.659000
     26 C25         0.6960  -11.4270    2.4270 ca        1 LWW      0.470200
     27 C27         0.3240   -9.8420    0.6900 ca        1 LWW      0.019800
     28 N28         0.2380   -8.6340   -0.0340 na        1 LWW     -0.166400
     29 H5          1.4300    0.6080   -1.3670 ha        1 LWW      0.154000
     30 H6          3.0340    0.7710    0.5330 ha        1 LWW      0.151000
     31 H15        -2.9360   -2.1080   -0.4990 ha        1 LWW      0.175500
     32 H21        -1.2450  -10.8510   -2.1260 ha        1 LWW      0.195000
     33 H26         1.3360   -9.3440    2.5740 ha        1 LWW      0.168000
     34 H1          2.2300    0.4550    2.8790 ha        1 LWW      0.148000
     35 H2         -0.1850   -0.0250    3.3130 ha        1 LWW      0.151000
     36 H3         -1.7850   -0.1880    1.4100 ha        1 LWW      0.154000
     37 H11         0.3430   -1.2980   -3.1970 ha        1 LWW      0.175500
     38 H12         0.4030   -3.6960   -3.8620 ha        1 LWW      0.144500
     39 H14        -2.9000   -4.5070   -1.1650 ha        1 LWW      0.144500
     40 H16        -0.6680   -5.8210   -3.9430 hx        1 LWW      0.120700
     41 H16A       -2.3080   -6.0300   -3.1630 hx        1 LWW      0.120700
     42 HN17        0.3250   -6.2980   -1.7830 hn        1 LWW      0.457300
     43 H23        -0.8840  -13.0270   -0.0010 h4        1 LWW      0.052100
     44 H25         1.0840  -11.7120    3.4250 h4        1 LWW      0.052100
     45 HN28        1.0330   -8.0340   -0.0260 hn        1 LWW      0.275700
     46 H172       -1.1620   -6.4660   -1.0650 hn        1 LWW      0.457300
@<TRIPOS>BOND
     1    1    2 ar  
     2    1   13 ar  
     3    1   14 1   
     4    2    3 ar  
     5    2   29 1   
     6    3   11 ar  
     7    3   30 1   
     8    4    6 ar  
     9    4   14 1   
    10    4   17 ar  
    11    5   18 ar  
    12    5   19 ar  
    13    5   20 1   
    14    6   19 ar  
    15    6   31 1   
    16    7    8 2   
    17    7   22 1   
    18    7   28 1   
    19    8    9 1   
    20    8   32 1   
    21    9   24 ar  
    22    9   27 ar  
    23   10   26 ar  
    24   10   27 ar  
    25   10   33 1   
    26   11   12 ar  
    27   11   34 1   
    28   12   13 ar  
    29   12   35 1   
    30   13   36 1   
    31   14   15 2   
    32   14   16 2   
    33   17   18 ar  
    34   17   37 1   
    35   18   38 1   
    36   19   39 1   
    37   20   21 1   
    38   20   40 1   
    39   20   41 1   
    40   21   22 1   
    41   21   42 1   
    42   21   46 1   
    43   22   23 2   
    44   24   25 ar  
    45   24   43 1   
    46   25   26 ar  
    47   26   44 1   
    48   27   28 1   
    49   28   45 1   
@<TRIPOS>SUBSTRUCTURE
     1 LWW         1 TEMP              0 ****  ****    0 ROOT
