@<TRIPOS>MOLECULE
LWY
   23    23     1     0     0
SMALL
bcc


@<TRIPOS>ATOM
      1 C          -1.2710   -0.4820   -1.4230 c         1 LWY      0.914600
      2 N           0.4310    0.8150   -0.0410 n3        1 LWY     -0.892700
      3 OXT        -2.1330    0.0740   -2.1510 o         1 LWY     -0.832300
      4 P           1.7060    0.0400    0.4520 p5        1 LWY      1.610200
      5 C1          2.1860   -1.0630   -0.6580 c3        1 LWY     -0.475300
      6 O1          1.7520   -0.4160    1.8540 o         1 LWY     -0.910300
      7 O2          2.9500    1.1150    0.4720 oh        1 LWY     -0.809400
      8 CA         -0.8780    0.1860   -0.0570 c3        1 LWY      0.100500
      9 CB         -1.9040    1.2660    0.3540 c3        1 LWY     -0.082400
     10 CD          0.3100    2.2430    0.0320 c3        1 LWY      0.238800
     11 CG         -1.1280    2.5740    0.4770 c3        1 LWY     -0.085400
     12 O          -0.7110   -1.5850   -1.6900 o         1 LWY     -0.832300
     13 H1          2.8480   -0.6330   -1.4460 hc        1 LWY      0.118033
     14 H1A         2.7430   -1.9080   -0.1890 hc        1 LWY      0.118033
     15 H1B         1.3160   -1.5300   -1.2120 hc        1 LWY      0.118033
     16 HO2         3.3200    1.2240    1.3420 ho        1 LWY      0.451000
     17 HA         -0.8580   -0.6410    0.7130 h1        1 LWY      0.032700
     18 HB         -2.6970    1.3430   -0.4330 hc        1 LWY      0.055700
     19 HBA        -2.3870    0.9950    1.3230 hc        1 LWY      0.055700
     20 HD          1.0740    2.6430    0.7550 h1        1 LWY      0.025700
     21 HDA         0.5000    2.7190   -0.9740 h1        1 LWY      0.025700
     22 HG         -1.5630    3.3660   -0.1780 hc        1 LWY      0.028700
     23 HGA        -1.1340    2.9520    1.5280 hc        1 LWY      0.028700
@<TRIPOS>BOND
     1    1    3 1   
     2    1    8 1   
     3    1   12 1   
     4    2    4 1   
     5    2    8 1   
     6    2   10 1   
     7    4    5 1   
     8    4    6 2   
     9    4    7 1   
    10    5   13 1   
    11    5   14 1   
    12    5   15 1   
    13    7   16 1   
    14    8    9 1   
    15    8   17 1   
    16    9   11 1   
    17    9   18 1   
    18    9   19 1   
    19   10   11 1   
    20   10   20 1   
    21   10   21 1   
    22   11   22 1   
    23   11   23 1   
@<TRIPOS>SUBSTRUCTURE
     1 LWY         1 TEMP              0 ****  ****    0 ROOT
