@<TRIPOS>MOLECULE
LWY
   23    22     1     0     0
SMALL
bcc


@<TRIPOS>ATOM
      1 C          -1.8550   -1.0540    0.4860 c1        1 LWY      0.800000
      2 N           0.0310    0.0920    0.0150 nh        1 LWY     -0.495900
      3 OXT        -2.4790   -0.0770    0.9780 o         1 LWY     -0.802000
      4 P          -0.5250    0.8800   -1.3270 p5        1 LWY      1.467400
      5 C1          0.7300    0.8030   -2.6370 c3        1 LWY     -0.427300
      6 O1         -0.8000    2.2950   -0.9900 o         1 LWY     -0.884300
      7 O2         -1.8550    0.1900   -1.8300 oh        1 LWY     -0.807400
      8 CA         -0.3970   -1.0500    0.4610 c2        1 LWY      0.216200
      9 CB          0.1810   -1.0370    1.9860 c3        1 LWY     -0.159700
     10 CD          1.3620    0.4520    0.8360 c3        1 LWY      0.050300
     11 CG          1.1610    0.0910    2.0560 c3        1 LWY     -0.087400
     12 O          -2.4900   -2.0370    0.0210 o         1 LWY     -0.802000
     13 H1          0.7490   -0.1000   -3.0180 hc        1 LWY      0.087367
     14 H1A         1.6090    1.0170   -2.2610 hc        1 LWY      0.087367
     15 H1B         0.5080    1.4490   -3.3400 hc        1 LWY      0.087367
     16 HO2        -2.2360    0.6990   -2.4490 ho        1 LWY      0.502000
     17 HA         -0.2150   -1.8440   -0.0840 h4        1 LWY     -0.075200
     18 HB         -0.5490   -0.8870    2.6200 hc        1 LWY      0.055700
     19 HBA         0.6290   -1.8840    2.1830 hc        1 LWY      0.055700
     20 HD          2.1260   -0.0360    0.4650 h1        1 LWY      0.039200
     21 HDA         1.5290    1.4170    0.7960 h1        1 LWY      0.039200
     22 HG          1.9990   -0.2130    2.4610 hc        1 LWY      0.027700
     23 HGA         0.7850    0.8350    2.5710 hc        1 LWY      0.027700
@<TRIPOS>BOND
     1    1    3 2   
     2    1   12 2   
     3    2    4 1   
     4    2    8 2   
     5    2   10 1   
     6    4    5 1   
     7    4    6 2   
     8    4    7 1   
     9    5   13 1   
    10    5   14 1   
    11    5   15 1   
    12    7   16 1   
    13    8    9 1   
    14    8   17 1   
    15    9   11 1   
    16    9   18 1   
    17    9   19 1   
    18   10   11 1   
    19   10   20 1   
    20   10   21 1   
    21   11   22 1   
    22   11   23 1   
@<TRIPOS>SUBSTRUCTURE
     1 LWY         1 TEMP              0 ****  ****    0 ROOT
