@<TRIPOS>MOLECULE
LX0
   56    59     1     0     0
SMALL
bcc


@<TRIPOS>ATOM
      1 O3          0.3870    0.1330   -0.3210 o         1 LX0     -0.757300
      2 C1          1.6230    0.2400   -0.3480 c         1 LX0      0.936600
      3 O2          2.4070    0.4330   -1.3150 o         1 LX0     -0.757300
      4 C4          2.3450    0.1000    1.0800 c3        1 LX0     -0.067500
      5 N5          3.8250    0.0320    0.8800 n4        1 LX0     -0.835600
      6 C6          1.9240    1.2760    1.9500 c3        1 LX0     -0.052100
      7 C7          2.5850    1.2540    3.2830 ca        1 LX0     -0.099300
      8 C12         3.6970    2.0670    3.5350 ca        1 LX0     -0.154000
      9 C11         4.3330    2.0330    4.7740 ca        1 LX0     -0.081000
     10 C10         3.8580    1.1800    5.7780 cp        1 LX0     -0.137500
     11 C9          2.7360    0.3790    5.5390 ca        1 LX0     -0.081000
     12 C8          2.1060    0.4160    4.2970 ca        1 LX0     -0.154000
     13 C13         4.5460    1.1310    7.0990 cp        1 LX0      0.774500
     14 N18         3.7560    1.0850    8.2060 nb        1 LX0     -0.812000
     15 C17         4.4440    1.0610    9.4260 ca        1 LX0      0.931900
     16 N16         5.8240    1.0350    9.5420 nb        1 LX0     -0.842000
     17 C15         6.5120    1.0610    8.3380 ca        1 LX0      0.922900
     18 N19         7.8960    0.9580    8.3880 nh        1 LX0     -0.940500
     19 N14         5.9130    1.1320    7.0800 nb        1 LX0     -0.824000
     20 N20         3.6660    1.1280   10.5750 nh        1 LX0     -0.838900
     21 C21         4.1970    0.8580   11.8990 c3        1 LX0      0.275800
     22 C22         4.5260   -0.6170   12.1520 c3        1 LX0     -0.118100
     23 C23         3.2240    1.3350   12.9550 ca        1 LX0     -0.100300
     24 C28         1.9370    0.7410   13.0530 ca        1 LX0     -0.126000
     25 C27         1.0530    1.1530   14.0180 ca        1 LX0     -0.112000
     26 C26         1.4070    2.1800   14.9350 ca        1 LX0     -0.033000
     27 C32         0.5110    2.6240   15.9450 ca        1 LX0     -0.118000
     28 C31         0.8820    3.6180   16.8170 ca        1 LX0     -0.123000
     29 C30         2.1630    4.2140   16.7190 ca        1 LX0     -0.125000
     30 C29         3.0470    3.8040   15.7530 ca        1 LX0     -0.116000
     31 C25         2.6900    2.7760   14.8380 ca        1 LX0     -0.038000
     32 C24         3.5860    2.3370   13.8260 ca        1 LX0     -0.095000
     33 H4          2.0100   -0.8660    1.5470 hx        1 LX0      0.089700
     34 HN5         3.9950    0.3300   -0.1090 hn        1 LX0      0.445467
     35 HN5A        4.1570   -0.9200    0.9990 hn        1 LX0      0.445467
     36 H6          0.8050    1.2010    2.0550 hc        1 LX0      0.093700
     37 H6A         2.1380    2.2430    1.4200 hc        1 LX0      0.093700
     38 H12         4.0540    2.7640    2.7610 ha        1 LX0      0.139000
     39 H11         5.2040    2.6800    4.9600 ha        1 LX0      0.153500
     40 H9          2.3440   -0.2790    6.3310 ha        1 LX0      0.153500
     41 H8          1.2190   -0.2090    4.1120 ha        1 LX0      0.139000
     42 HN19        8.3440    1.0930    9.2630 hn        1 LX0      0.438800
     43 HN1A        8.4090    1.1640    7.5660 hn        1 LX0      0.438800
     44 HN20        2.6810    1.0210   10.4600 hn        1 LX0      0.446800
     45 H21         5.1590    1.4480   12.0080 h1        1 LX0      0.083700
     46 H22         4.9230   -0.7240   13.1900 hc        1 LX0      0.048367
     47 H22A        3.6180   -1.2580   12.0510 hc        1 LX0      0.048367
     48 H22B        5.3010   -0.9750   11.4340 hc        1 LX0      0.048367
     49 H28         1.6610   -0.0600   12.3510 ha        1 LX0      0.132000
     50 H27         0.0540    0.6960   14.0980 ha        1 LX0      0.136000
     51 H32        -0.4820    2.1550   16.0130 ha        1 LX0      0.135000
     52 H31         0.1900    3.9640   17.5990 ha        1 LX0      0.134000
     53 H30         2.4360    5.0100   17.4290 ha        1 LX0      0.134000
     54 H29         4.0450    4.2630   15.6690 ha        1 LX0      0.134000
     55 H24         4.5750    2.8160   13.7560 ha        1 LX0      0.137000
     56 H53         4.3140    0.6520    1.5250 hn        1 LX0      0.445467
@<TRIPOS>BOND
     1    1    2 1   
     2    2    3 1   
     3    2    4 1   
     4    4    5 1   
     5    4    6 1   
     6    4   33 1   
     7    5   34 1   
     8    5   35 1   
     9    5   56 1   
    10    6    7 1   
    11    6   36 1   
    12    6   37 1   
    13    7    8 ar  
    14    7   12 ar  
    15    8    9 ar  
    16    8   38 1   
    17    9   10 ar  
    18    9   39 1   
    19   10   11 ar  
    20   10   13 1   
    21   11   12 ar  
    22   11   40 1   
    23   12   41 1   
    24   13   14 ar  
    25   13   19 ar  
    26   14   15 ar  
    27   15   16 ar  
    28   15   20 1   
    29   16   17 ar  
    30   17   18 1   
    31   17   19 ar  
    32   18   42 1   
    33   18   43 1   
    34   20   21 1   
    35   20   44 1   
    36   21   22 1   
    37   21   23 1   
    38   21   45 1   
    39   22   46 1   
    40   22   47 1   
    41   22   48 1   
    42   23   24 ar  
    43   23   32 ar  
    44   24   25 ar  
    45   24   49 1   
    46   25   26 ar  
    47   25   50 1   
    48   26   27 ar  
    49   26   31 ar  
    50   27   28 ar  
    51   27   51 1   
    52   28   29 ar  
    53   28   52 1   
    54   29   30 ar  
    55   29   53 1   
    56   30   31 ar  
    57   30   54 1   
    58   31   32 ar  
    59   32   55 1   
@<TRIPOS>SUBSTRUCTURE
     1 LX0         1 TEMP              0 ****  ****    0 ROOT
