@<TRIPOS>MOLECULE
LX0
   56    59     1     0     0
SMALL
bcc


@<TRIPOS>ATOM
      1 O3          0.3670    0.1340   -0.3160 o         1 LX0     -0.757300
      2 C1          1.6030    0.2320   -0.3460 c         1 LX0      0.936600
      3 O2          2.3870    0.4170   -1.3140 o         1 LX0     -0.757300
      4 C4          2.3260    0.0910    1.0820 c3        1 LX0     -0.067500
      5 N5          3.8060    0.0140    0.8800 nz        1 LX0     -0.835600
      6 C6          1.9140    1.2720    1.9500 c3        1 LX0     -0.052100
      7 C7          2.5760    1.2490    3.2820 ca        1 LX0     -0.099300
      8 C12         3.6930    2.0560    3.5300 ca        1 LX0     -0.154000
      9 C11         4.3310    2.0210    4.7690 ca        1 LX0     -0.081000
     10 C10         3.8530    1.1740    5.7750 cp        1 LX0     -0.137500
     11 C9          2.7260    0.3780    5.5400 ca        1 LX0     -0.081000
     12 C8          2.0950    0.4160    4.2980 ca        1 LX0     -0.154000
     13 C13         4.5430    1.1230    7.0950 cp        1 LX0      0.774500
     14 N18         3.7530    1.0840    8.2030 nb        1 LX0     -0.812000
     15 C17         4.4430    1.0590    9.4220 ca        1 LX0      0.931900
     16 N16         5.8230    1.0260    9.5370 nb        1 LX0     -0.842000
     17 C15         6.5090    1.0460    8.3310 ca        1 LX0      0.922900
     18 N19         7.8930    0.9350    8.3800 nv        1 LX0     -0.940500
     19 N14         5.9090    1.1170    7.0740 nb        1 LX0     -0.824000
     20 N20         3.6670    1.1330   10.5720 nu        1 LX0     -0.838900
     21 C21         4.1980    0.8630   11.8960 c3        1 LX0      0.275800
     22 C22         4.5190   -0.6140   12.1520 c3        1 LX0     -0.118100
     23 C23         3.2290    1.3480   12.9530 ca        1 LX0     -0.100300
     24 C28         1.9400    0.7610   13.0550 ca        1 LX0     -0.126000
     25 C27         1.0590    1.1810   14.0190 ca        1 LX0     -0.112000
     26 C26         1.4210    2.2080   14.9330 ca        1 LX0     -0.033000
     27 C32         0.5280    2.6590   15.9440 ca        1 LX0     -0.118000
     28 C31         0.9060    3.6540   16.8120 ca        1 LX0     -0.123000
     29 C30         2.1900    4.2430   16.7110 ca        1 LX0     -0.125000
     30 C29         3.0710    3.8260   15.7440 ca        1 LX0     -0.116000
     31 C25         2.7070    2.7970   14.8320 ca        1 LX0     -0.038000
     32 C24         3.5990    2.3500   13.8200 ca        1 LX0     -0.095000
     33 H4          1.9860   -0.8710    1.5510 hx        1 LX0      0.089700
     34 HN5         4.2990    0.6340    1.5220 hn        1 LX0      0.445467
     35 HN5A        4.1330   -0.9400    1.0020 hn        1 LX0      0.445467
     36 H6          2.1330    2.2360    1.4170 hc        1 LX0      0.093700
     37 H6A         0.7940    1.2040    2.0570 hc        1 LX0      0.093700
     38 H12         4.0530    2.7490    2.7550 ha        1 LX0      0.139000
     39 H11         5.2060    2.6640    4.9520 ha        1 LX0      0.153500
     40 H9          2.3300   -0.2760    6.3330 ha        1 LX0      0.153500
     41 H8          1.2040   -0.2050    4.1160 ha        1 LX0      0.139000
     42 HN19        8.4050    1.1370    7.5560 hn        1 LX0      0.438800
     43 HN1A        8.3420    1.0690    9.2540 hn        1 LX0      0.438800
     44 HN20        2.6810    1.0310   10.4600 hn        1 LX0      0.446800
     45 H21         5.1640    1.4480   12.0020 h1        1 LX0      0.083700
     46 H22         3.6070   -1.2490   12.0550 hc        1 LX0      0.048367
     47 H22A        4.9180   -0.7200   13.1900 hc        1 LX0      0.048367
     48 H22B        5.2920   -0.9770   11.4340 hc        1 LX0      0.048367
     49 H28         1.6580   -0.0400   12.3550 ha        1 LX0      0.132000
     50 H27         0.0590    0.7300   14.1020 ha        1 LX0      0.136000
     51 H32        -0.4670    2.1960   16.0140 ha        1 LX0      0.135000
     52 H31         0.2180    4.0060   17.5950 ha        1 LX0      0.134000
     53 H30         2.4690    5.0390   17.4180 ha        1 LX0      0.134000
     54 H29         4.0700    4.2780   15.6580 ha        1 LX0      0.134000
     55 H24         4.5900    2.8240   13.7470 ha        1 LX0      0.137000
     56 H53         3.9760    0.3080   -0.1100 hn        1 LX0      0.445467
@<TRIPOS>BOND
     1    1    2 1   
     2    2    3 1   
     3    2    4 1   
     4    4    5 1   
     5    4    6 1   
     6    4   33 1   
     7    5   34 1   
     8    5   35 1   
     9    5   56 1   
    10    6    7 1   
    11    6   36 1   
    12    6   37 1   
    13    7    8 ar  
    14    7   12 ar  
    15    8    9 ar  
    16    8   38 1   
    17    9   10 ar  
    18    9   39 1   
    19   10   11 ar  
    20   10   13 1   
    21   11   12 ar  
    22   11   40 1   
    23   12   41 1   
    24   13   14 ar  
    25   13   19 ar  
    26   14   15 ar  
    27   15   16 ar  
    28   15   20 1   
    29   16   17 ar  
    30   17   18 1   
    31   17   19 ar  
    32   18   42 1   
    33   18   43 1   
    34   20   21 1   
    35   20   44 1   
    36   21   22 1   
    37   21   23 1   
    38   21   45 1   
    39   22   46 1   
    40   22   47 1   
    41   22   48 1   
    42   23   24 ar  
    43   23   32 ar  
    44   24   25 ar  
    45   24   49 1   
    46   25   26 ar  
    47   25   50 1   
    48   26   27 ar  
    49   26   31 ar  
    50   27   28 ar  
    51   27   51 1   
    52   28   29 ar  
    53   28   52 1   
    54   29   30 ar  
    55   29   53 1   
    56   30   31 ar  
    57   30   54 1   
    58   31   32 ar  
    59   32   55 1   
@<TRIPOS>SUBSTRUCTURE
     1 LX0         1 TEMP              0 ****  ****    0 ROOT
