@<TRIPOS>MOLECULE
LX0
   58    61     1     0     0
SMALL
bcc


@<TRIPOS>ATOM
      1 O3          2.8970   -1.3520    4.4490 o         1 LX0     -0.756300
      2 C1          2.1100   -1.0230    3.5450 c         1 LX0      0.925600
      3 O2          0.8750   -0.8060    3.5730 o         1 LX0     -0.756300
      4 C4          2.7760   -0.8270    2.0900 c3        1 LX0     -0.075500
      5 N5          1.8010   -1.3340    1.0800 n4        1 LX0     -0.824600
      6 C6          3.1200    0.6490    1.8690 c3        1 LX0     -0.058100
      7 C7          3.6630    1.2350    3.1280 ca        1 LX0      0.056700
      8 C12         5.0460    1.3450    3.3420 ca        1 LX0     -0.131000
      9 C11         5.5370    1.7520    4.5730 ca        1 LX0     -0.017500
     10 C10         4.6450    2.0630    5.6290 cp        1 LX0     -0.232500
     11 C9          3.2520    2.0550    5.3710 ca        1 LX0     -0.017500
     12 C8          2.7750    1.6490    4.1350 ca        1 LX0     -0.131000
     13 C13         5.1340    2.2890    6.9740 cp        1 LX0      0.867500
     14 N18         4.2120    2.3900    8.0160 nb        1 LX0     -0.694000
     15 C17         4.7200    2.5010    9.2690 ca        1 LX0      0.817900
     16 N16         6.0640    2.5510    9.6080 nb        1 LX0     -0.757000
     17 C15         6.8810    2.4800    8.5000 ca        1 LX0      0.790900
     18 N19         8.3510    2.5470    8.7690 n4        1 LX0     -0.825300
     19 N14         6.5100    2.3530    7.2030 nb        1 LX0     -0.708000
     20 N20         3.7470    2.5630   10.3920 n4        1 LX0     -0.771700
     21 C21         3.5680    1.2050   11.1050 c3        1 LX0      0.229800
     22 C22         2.9810    0.1610   10.1740 c3        1 LX0     -0.131100
     23 C23         2.7130    1.4670   12.3000 ca        1 LX0     -0.215300
     24 C28         1.3240    1.7220   12.1370 ca        1 LX0     -0.149000
     25 C27         0.5260    1.9260   13.2330 ca        1 LX0     -0.074000
     26 C26         1.0710    1.8850   14.5480 ca        1 LX0     -0.008000
     27 C32         0.2610    2.0840   15.6970 ca        1 LX0     -0.121000
     28 C31         0.8150    2.0270   16.9540 ca        1 LX0     -0.080000
     29 C30         2.1980    1.7710   17.1200 ca        1 LX0     -0.097000
     30 C29         3.0060    1.5770   16.0250 ca        1 LX0     -0.116000
     31 C25         2.4600    1.6300   14.7130 ca        1 LX0     -0.054000
     32 C24         3.2680    1.4290   13.5650 ca        1 LX0     -0.044000
     33 H4          3.7070   -1.4540    2.0370 hx        1 LX0      0.105700
     34 HN5         1.8900   -2.3480    1.0030 hn        1 LX0      0.456133
     35 HN5A        0.8530   -1.1140    1.4500 hn        1 LX0      0.456133
     36 H6          3.8700    0.7490    1.0400 hc        1 LX0      0.071700
     37 H6A         2.2010    1.2280    1.5740 hc        1 LX0      0.071700
     38 H12         5.7490    1.0760    2.5370 ha        1 LX0      0.178500
     39 H11         6.6280    1.8010    4.7180 ha        1 LX0      0.156500
     40 H9          2.5230    2.3420    6.1460 ha        1 LX0      0.156500
     41 H8          1.6830    1.5750    3.9650 ha        1 LX0      0.178500
     42 HN19        8.5640    3.4040    9.3000 hn        1 LX0      0.495467
     43 HN1A        8.8740    2.5540    7.8780 hn        1 LX0      0.495467
     44 HN20        2.8240    2.8560   10.0320 hn        1 LX0      0.482300
     45 H21         4.6090    0.8920   11.4210 hx        1 LX0      0.101700
     46 H22         2.0070    0.4820    9.7290 hc        1 LX0      0.086700
     47 H22A        3.6890   -0.1010    9.3520 hc        1 LX0      0.086700
     48 H22B        2.7880   -0.7640   10.7810 hc        1 LX0      0.086700
     49 H28         0.8860    1.7270   11.1270 ha        1 LX0      0.133000
     50 H27        -0.5540    2.1160   13.1150 ha        1 LX0      0.163000
     51 H32        -0.8150    2.2790   15.5620 ha        1 LX0      0.157000
     52 H31         0.1880    2.1770   17.8490 ha        1 LX0      0.163000
     53 H30         2.6150    1.7270   18.1390 ha        1 LX0      0.161000
     54 H29         4.0800    1.3730   16.1480 ha        1 LX0      0.144000
     55 H24         4.3410    1.2220   13.7110 ha        1 LX0      0.137000
     56 H53         1.9290   -0.9020    0.1670 hn        1 LX0      0.456133
     57 H193        8.6310    1.7240    9.3230 hn        1 LX0      0.495467
     58 H202        4.0630    3.2530   11.0880 hn        1 LX0      0.482300
@<TRIPOS>BOND
     1    1    2 1   
     2    2    3 1   
     3    2    4 1   
     4    4    5 1   
     5    4    6 1   
     6    4   33 1   
     7    5   34 1   
     8    5   35 1   
     9    5   56 1   
    10    6    7 1   
    11    6   36 1   
    12    6   37 1   
    13    7    8 ar  
    14    7   12 ar  
    15    8    9 ar  
    16    8   38 1   
    17    9   10 ar  
    18    9   39 1   
    19   10   11 ar  
    20   10   13 1   
    21   11   12 ar  
    22   11   40 1   
    23   12   41 1   
    24   13   14 ar  
    25   13   19 ar  
    26   14   15 ar  
    27   15   16 ar  
    28   15   20 1   
    29   16   17 ar  
    30   17   18 1   
    31   17   19 ar  
    32   18   42 1   
    33   18   43 1   
    34   18   57 1   
    35   20   21 1   
    36   20   44 1   
    37   20   58 1   
    38   21   22 1   
    39   21   23 1   
    40   21   45 1   
    41   22   46 1   
    42   22   47 1   
    43   22   48 1   
    44   23   24 ar  
    45   23   32 ar  
    46   24   25 ar  
    47   24   49 1   
    48   25   26 ar  
    49   25   50 1   
    50   26   27 ar  
    51   26   31 ar  
    52   27   28 ar  
    53   27   51 1   
    54   28   29 ar  
    55   28   52 1   
    56   29   30 ar  
    57   29   53 1   
    58   30   31 ar  
    59   30   54 1   
    60   31   32 ar  
    61   32   55 1   
@<TRIPOS>SUBSTRUCTURE
     1 LX0         1 TEMP              0 ****  ****    0 ROOT
