@<TRIPOS>MOLECULE
LX0
   55    58     1     0     0
SMALL
bcc


@<TRIPOS>ATOM
      1 O3         -8.0190   -3.1790    0.0210 o         1 LX0     -0.839300
      2 C1         -8.3600   -2.0100   -0.3100 c         1 LX0      0.887600
      3 O2         -9.5430   -1.6510   -0.5690 o         1 LX0     -0.839300
      4 C4         -7.2240   -0.9360   -0.4330 c3        1 LX0      0.023500
      5 N5         -7.6930    0.4070   -0.7420 n3        1 LX0     -0.886800
      6 C6         -6.3750   -0.9990    0.8430 c3        1 LX0     -0.044100
      7 C7         -5.0470   -0.3510    0.6880 ca        1 LX0      0.004700
      8 C12        -4.7360    0.8340    1.3660 ca        1 LX0     -0.151500
      9 C11        -3.4840    1.4280    1.2290 ca        1 LX0     -0.081000
     10 C10        -2.5130    0.8380    0.4100 cp        1 LX0     -0.193500
     11 C9         -2.8150   -0.3510   -0.2710 ca        1 LX0     -0.081000
     12 C8         -4.0690   -0.9340   -0.1320 ca        1 LX0     -0.151500
     13 C13        -1.1780    1.4680    0.2570 cp        1 LX0      0.802500
     14 N18        -0.1030    0.6410    0.0760 nb        1 LX0     -0.808000
     15 C17         1.1230    1.2760   -0.0890 ca        1 LX0      0.906900
     16 N16         1.3000    2.6480   -0.1150 nb        1 LX0     -0.845000
     17 C15         0.1450    3.3810    0.1190 ca        1 LX0      0.898900
     18 N19         0.2760    4.7700    0.2330 nh        1 LX0     -0.928500
     19 N14        -1.1190    2.8370    0.2920 nb        1 LX0     -0.805000
     20 N20         2.2530    0.4410   -0.1650 nh        1 LX0     -0.824900
     21 C21         3.4810    0.9100   -0.7830 c3        1 LX0      0.259800
     22 C22         3.3800    1.1650   -2.2910 c3        1 LX0     -0.122100
     23 C23         4.6010   -0.0770   -0.5310 ca        1 LX0     -0.083300
     24 C28         4.5200   -1.3930   -1.0580 ca        1 LX0     -0.119000
     25 C27         5.5390   -2.2890   -0.8540 ca        1 LX0     -0.118000
     26 C26         6.6930   -1.9170   -0.1120 ca        1 LX0     -0.035000
     27 C32         7.7640   -2.8250    0.1140 ca        1 LX0     -0.117000
     28 C31         8.8650   -2.4380    0.8370 ca        1 LX0     -0.130000
     29 C30         8.9460   -1.1280    1.3700 ca        1 LX0     -0.131000
     30 C29         7.9260   -0.2320    1.1670 ca        1 LX0     -0.115000
     31 C25         6.7750   -0.6050    0.4210 ca        1 LX0     -0.037000
     32 C24         5.7040    0.3030    0.2000 ca        1 LX0     -0.102000
     33 H4         -6.5780   -1.2600   -1.3000 h1        1 LX0      0.043700
     34 HN5        -8.3740    0.3200   -1.4800 hn        1 LX0      0.331800
     35 HN5A       -8.1910    0.7630    0.0560 hn        1 LX0      0.331800
     36 H6         -6.9350   -0.5370    1.6980 hc        1 LX0      0.064200
     37 H6A        -6.2340   -2.0920    1.0800 hc        1 LX0      0.064200
     38 H12        -5.4960    1.3080    2.0050 ha        1 LX0      0.139000
     39 H11        -3.2670    2.3620    1.7680 ha        1 LX0      0.133500
     40 H9         -2.0660   -0.8270   -0.9210 ha        1 LX0      0.133500
     41 H8         -4.3100   -1.8630   -0.6740 ha        1 LX0      0.139000
     42 HN19        1.0950    5.1720   -0.1590 hn        1 LX0      0.421800
     43 HN1A       -0.5600    5.2980    0.1400 hn        1 LX0      0.421800
     44 HN20        2.0480   -0.5250   -0.3250 hn        1 LX0      0.428800
     45 H21         3.7540    1.8910   -0.2860 h1        1 LX0      0.086700
     46 H22         3.1080    0.2330   -2.8410 hc        1 LX0      0.045367
     47 H22A        2.6110    1.9460   -2.5040 hc        1 LX0      0.045367
     48 H22B        4.3680    1.5250   -2.6660 hc        1 LX0      0.045367
     49 H28         3.6300   -1.6850   -1.6370 ha        1 LX0      0.135000
     50 H27         5.4780   -3.3110   -1.2580 ha        1 LX0      0.134000
     51 H32         7.6890   -3.8410   -0.3020 ha        1 LX0      0.131000
     52 H31         9.6940   -3.1380    1.0140 ha        1 LX0      0.129000
     53 H30         9.8370   -0.8420    1.9480 ha        1 LX0      0.129000
     54 H29         7.9790    0.7870    1.5790 ha        1 LX0      0.132000
     55 H24         5.7740    1.3140    0.6310 ha        1 LX0      0.138000
@<TRIPOS>BOND
     1    1    2 1   
     2    2    3 1   
     3    2    4 1   
     4    4    5 1   
     5    4    6 1   
     6    4   33 1   
     7    5   34 1   
     8    5   35 1   
     9    6    7 1   
    10    6   36 1   
    11    6   37 1   
    12    7    8 ar  
    13    7   12 ar  
    14    8    9 ar  
    15    8   38 1   
    16    9   10 ar  
    17    9   39 1   
    18   10   11 ar  
    19   10   13 1   
    20   11   12 ar  
    21   11   40 1   
    22   12   41 1   
    23   13   14 ar  
    24   13   19 ar  
    25   14   15 ar  
    26   15   16 ar  
    27   15   20 1   
    28   16   17 ar  
    29   17   18 1   
    30   17   19 ar  
    31   18   42 1   
    32   18   43 1   
    33   20   21 1   
    34   20   44 1   
    35   21   22 1   
    36   21   23 1   
    37   21   45 1   
    38   22   46 1   
    39   22   47 1   
    40   22   48 1   
    41   23   24 ar  
    42   23   32 ar  
    43   24   25 ar  
    44   24   49 1   
    45   25   26 ar  
    46   25   50 1   
    47   26   27 ar  
    48   26   31 ar  
    49   27   28 ar  
    50   27   51 1   
    51   28   29 ar  
    52   28   52 1   
    53   29   30 ar  
    54   29   53 1   
    55   30   31 ar  
    56   30   54 1   
    57   31   32 ar  
    58   32   55 1   
@<TRIPOS>SUBSTRUCTURE
     1 LX0         1 TEMP              0 ****  ****    0 ROOT
