@<TRIPOS>MOLECULE
LX1
   24    23     1     0     0
SMALL
bcc


@<TRIPOS>ATOM
      1 O8          0.7350   -0.4510   -1.0210 o         1 LX1     -0.922500
      2 P           2.1660   -0.1690   -0.6900 p5        1 LX1      1.325900
      3 O6          2.7360   -0.7870    0.5520 o         1 LX1     -0.922500
      4 O7          3.1350   -0.0690   -1.8570 o         1 LX1     -0.922500
      5 O5          2.2010    1.5370   -0.3270 os        1 LX1     -0.562200
      6 C5          3.4560    1.9920   -0.0210 c3        1 LX1      0.204400
      7 C4          4.0770    2.8260   -1.1750 c3        1 LX1      0.095100
      8 O4          3.4180    2.6600   -2.4090 oh        1 LX1     -0.668800
      9 C3          5.5640    2.4550   -1.3570 c3        1 LX1      0.107100
     10 O3          5.7420    1.2580   -2.0840 oh        1 LX1     -0.666800
     11 C2          6.3190    3.5620   -2.1230 c3        1 LX1      0.145100
     12 O2          5.8960    3.6750   -3.4730 oh        1 LX1     -0.642800
     13 C1          7.8170    3.3000   -2.1140 c3        1 LX1     -0.100100
     14 H51         3.4040    2.6750    0.8780 h1        1 LX1     -0.006800
     15 H52         4.1420    1.1300    0.2240 h1        1 LX1     -0.006800
     16 H4          4.0050    3.9250   -0.9390 h1        1 LX1      0.006700
     17 HO4         2.9810    1.7710   -2.3830 ho        1 LX1      0.488000
     18 H3          6.0500    2.3330   -0.3480 h1        1 LX1      0.014700
     19 HO3         4.8980    0.7470   -2.0610 ho        1 LX1      0.503000
     20 H2          6.1080    4.5580   -1.6380 h1        1 LX1      0.011700
     21 HO2         5.1980    3.0120   -3.6070 ho        1 LX1      0.449000
     22 H11         8.0140    2.2730   -2.5050 hc        1 LX1      0.023367
     23 H12         8.2090    3.3750   -1.0720 hc        1 LX1      0.023367
     24 H13         8.3450    4.0410   -2.7590 hc        1 LX1      0.023367
@<TRIPOS>BOND
     1    1    2 1   
     2    2    3 1   
     3    2    4 1   
     4    2    5 1   
     5    5    6 1   
     6    6    7 1   
     7    6   14 1   
     8    6   15 1   
     9    7    8 1   
    10    7    9 1   
    11    7   16 1   
    12    8   17 1   
    13    9   10 1   
    14    9   11 1   
    15    9   18 1   
    16   10   19 1   
    17   11   12 1   
    18   11   13 1   
    19   11   20 1   
    20   12   21 1   
    21   13   22 1   
    22   13   23 1   
    23   13   24 1   
@<TRIPOS>SUBSTRUCTURE
     1 LX1         1 TEMP              0 ****  ****    0 ROOT
