@<TRIPOS>MOLECULE
LX1
   24    23     1     0     0
SMALL
bcc


@<TRIPOS>ATOM
      1 O8          0.6240   -0.2800   -1.0850 o         1 LX1     -0.922500
      2 P           2.0720   -0.0810   -0.7640 p5        1 LX1      1.325900
      3 O6          2.6310   -0.7880    0.4350 o         1 LX1     -0.922500
      4 O7          3.0270    0.0340   -1.9410 o         1 LX1     -0.922500
      5 O5          2.1920    1.6000   -0.3150 os        1 LX1     -0.562200
      6 C5          3.4710    1.9810   -0.0090 c3        1 LX1      0.204400
      7 C4          4.1130    2.8440   -1.1290 c3        1 LX1      0.095100
      8 O4          3.4290    2.7720   -2.3580 oh        1 LX1     -0.668800
      9 C3          5.5790    2.4140   -1.3550 c3        1 LX1      0.107100
     10 O3          5.6890    1.2500   -2.1450 oh        1 LX1     -0.666800
     11 C2          6.3730    3.5230   -2.0770 c3        1 LX1      0.145100
     12 O2          5.9350    3.7260   -3.4110 oh        1 LX1     -0.642800
     13 C1          7.8570    3.1920   -2.1070 c3        1 LX1     -0.100100
     14 H51         3.4640    2.6190    0.9250 h1        1 LX1     -0.006800
     15 H52         4.1200    1.0770    0.1800 h1        1 LX1     -0.006800
     16 H4          4.0960    3.9310   -0.8360 h1        1 LX1      0.006700
     17 HO4         2.9510    1.9030   -2.3700 ho        1 LX1      0.488000
     18 H3          6.0730    2.2180   -0.3620 h1        1 LX1      0.014700
     19 HO3         4.8230    0.7770   -2.1330 ho        1 LX1      0.503000
     20 H2          6.2160    4.5010   -1.5380 h1        1 LX1      0.011700
     21 HO2         5.2060    3.1030   -3.5670 ho        1 LX1      0.449000
     22 H11         8.0000    2.1790   -2.5530 hc        1 LX1      0.023367
     23 H12         8.2680    3.1950   -1.0700 hc        1 LX1      0.023367
     24 H13         8.4090    3.9410   -2.7220 hc        1 LX1      0.023367
@<TRIPOS>BOND
     1    1    2 1   
     2    2    3 1   
     3    2    4 1   
     4    2    5 1   
     5    5    6 1   
     6    6    7 1   
     7    6   14 1   
     8    6   15 1   
     9    7    8 1   
    10    7    9 1   
    11    7   16 1   
    12    8   17 1   
    13    9   10 1   
    14    9   11 1   
    15    9   18 1   
    16   10   19 1   
    17   11   12 1   
    18   11   13 1   
    19   11   20 1   
    20   12   21 1   
    21   13   22 1   
    22   13   23 1   
    23   13   24 1   
@<TRIPOS>SUBSTRUCTURE
     1 LX1         1 TEMP              0 ****  ****    0 ROOT
