@<TRIPOS>MOLECULE
LX1
   24    23     1     0     0
SMALL
bcc


@<TRIPOS>ATOM
      1 O8          0.8200   -1.0790   -3.2710 o         1 LX1     -0.922500
      2 P          -0.1350   -0.7870   -2.1570 p5        1 LX1      1.325900
      3 O6         -1.5390   -0.4000   -2.5150 o         1 LX1     -0.922500
      4 O7         -0.0060   -1.6360   -0.9020 o         1 LX1     -0.922500
      5 O5          0.4920    0.6620   -1.4160 os        1 LX1     -0.562200
      6 C5         -0.2490    1.0750   -0.3400 c3        1 LX1      0.204400
      7 C4          0.4620    0.7850    1.0100 c3        1 LX1      0.095100
      8 O4          1.5200   -0.1380    0.9030 oh        1 LX1     -0.668800
      9 C3         -0.5550    0.2510    2.0410 c3        1 LX1      0.107100
     10 O3         -0.8430   -1.1190    1.8620 oh        1 LX1     -0.666800
     11 C2         -0.0190    0.4130    3.4790 c3        1 LX1      0.145100
     12 O2          1.1010   -0.4190    3.7390 oh        1 LX1     -0.642800
     13 C1         -1.1000    0.0900    4.4980 c3        1 LX1     -0.100100
     14 H51        -1.2610    0.5760   -0.3410 h1        1 LX1     -0.006800
     15 H52        -0.4010    2.1940   -0.3900 h1        1 LX1     -0.006800
     16 H4          0.9230    1.7300    1.4130 h1        1 LX1      0.006700
     17 HO4         1.3310   -0.7010    0.1090 ho        1 LX1      0.488000
     18 H3         -1.5170    0.8300    1.9580 h1        1 LX1      0.014700
     19 HO3        -0.5840   -1.3790    0.9460 ho        1 LX1      0.503000
     20 H2          0.3310    1.4750    3.6260 h1        1 LX1      0.011700
     21 HO2         1.2840   -0.9110    2.9220 ho        1 LX1      0.449000
     22 H11        -0.6780    0.1030    5.5300 hc        1 LX1      0.023367
     23 H12        -1.9230    0.8390    4.4290 hc        1 LX1      0.023367
     24 H13        -1.5130   -0.9260    4.2880 hc        1 LX1      0.023367
@<TRIPOS>BOND
     1    1    2 1   
     2    2    3 1   
     3    2    4 1   
     4    2    5 1   
     5    5    6 1   
     6    6    7 1   
     7    6   14 1   
     8    6   15 1   
     9    7    8 1   
    10    7    9 1   
    11    7   16 1   
    12    8   17 1   
    13    9   10 1   
    14    9   11 1   
    15    9   18 1   
    16   10   19 1   
    17   11   12 1   
    18   11   13 1   
    19   11   20 1   
    20   12   21 1   
    21   13   22 1   
    22   13   23 1   
    23   13   24 1   
@<TRIPOS>SUBSTRUCTURE
     1 LX1         1 TEMP              0 ****  ****    0 ROOT
