@<TRIPOS>MOLECULE
LX2
   76    80     1     0     0
SMALL
bcc


@<TRIPOS>ATOM
      1 F40        -0.8330   -1.2650   -1.6090 f         1 LX2     -0.228633
      2 C37         0.4770   -1.4250   -1.2200 c3        1 LX2      0.692200
      3 F38         0.3910   -1.6030    0.1370 f         1 LX2     -0.228633
      4 F39         0.8120   -2.6590   -1.7200 f         1 LX2     -0.228633
      5 C34         1.4020   -0.2870   -1.6610 ca        1 LX2     -0.168300
      6 C35         2.7770   -0.2880   -1.3740 ca        1 LX2      0.072400
      7 Cl36        3.4580   -1.5520   -0.4740 cl        1 LX2     -0.033400
      8 C33         0.8340    0.7770   -2.3660 ca        1 LX2     -0.062000
      9 C32         1.6270    1.8450   -2.7770 ca        1 LX2     -0.136000
     10 C31         2.9900    1.8440   -2.4970 ca        1 LX2     -0.084000
     11 C30         3.5870    0.7740   -1.8190 ca        1 LX2     -0.128300
     12 C29         5.0480    0.8560   -1.4990 c3        1 LX2      0.157100
     13 N14         5.9920    0.4230   -2.5740 nx        1 LX2     -0.700400
     14 C15         6.0890    1.4000   -3.7030 c3        1 LX2      0.125800
     15 C16         6.9570    2.6340   -3.3600 c3        1 LX2     -0.010100
     16 C23         7.8520    2.9360   -4.5250 ca        1 LX2     -0.092800
     17 C24         8.9580    2.0870   -4.7120 ca        1 LX2     -0.128000
     18 C25         9.8370    2.2970   -5.7700 ca        1 LX2     -0.134250
     19 C26         9.6330    3.3600   -6.6510 ca        1 LX2     -0.125000
     20 C27         8.5530    4.2170   -6.4580 ca        1 LX2     -0.134250
     21 C28         7.6680    4.0100   -5.3980 ca        1 LX2     -0.128000
     22 C17         6.1150    3.7710   -2.8800 ca        1 LX2     -0.092800
     23 C18         6.3450    4.2690   -1.5880 ca        1 LX2     -0.128000
     24 C19         5.5980    5.3430   -1.1060 ca        1 LX2     -0.134250
     25 C20         4.6080    5.9230   -1.8990 ca        1 LX2     -0.125000
     26 C21         4.3580    5.4180   -3.1750 ca        1 LX2     -0.134250
     27 C22         5.1040    4.3450   -3.6610 ca        1 LX2     -0.128000
     28 C13         5.7180   -0.9630   -3.0660 c3        1 LX2      0.115800
     29 C12         6.9530   -1.6250   -3.6670 c3        1 LX2     -0.152400
     30 C11         6.8660   -3.1400   -3.7310 c3        1 LX2      0.143400
     31 O10         6.4490   -3.8440   -2.5620 os        1 LX2     -0.334900
     32 C9          6.9000   -3.3810   -1.3350 ca        1 LX2      0.119100
     33 C8          8.1590   -2.8380   -1.0870 ca        1 LX2     -0.125800
     34 C44         8.3620   -2.1360    0.1580 ca        1 LX2     -0.047200
     35 C43         7.4300   -2.2130    1.1940 ca        1 LX2     -0.130000
     36 C42         6.2570   -2.9310    0.9650 ca        1 LX2     -0.116000
     37 C41         5.9670   -3.4740   -0.2870 ca        1 LX2     -0.184000
     38 C7          9.3900   -2.6780   -1.8490 cc        1 LX2     -0.198200
     39 C6         10.2030   -1.8230   -1.1370 cd        1 LX2     -0.066100
     40 N5          9.6220   -1.4510    0.1180 na        1 LX2     -0.041400
     41 C4          9.5510   -0.0200    0.3910 c3        1 LX2     -0.080700
     42 C2          8.6200    0.7190   -0.5830 c         1 LX2      0.879600
     43 O1          7.6400    1.4030   -0.1700 o         1 LX2     -0.859300
     44 O3          8.7870    0.5660   -1.8420 o         1 LX2     -0.859300
     45 H33        -0.2460    0.7740   -2.5890 ha        1 LX2      0.165000
     46 H32         1.1740    2.6930   -3.3130 ha        1 LX2      0.154000
     47 H31         3.6060    2.7140   -2.7940 ha        1 LX2      0.164000
     48 H29         5.3000    0.2420   -0.5820 hx        1 LX2      0.130700
     49 H29A        5.3300    1.9280   -1.2500 hx        1 LX2      0.130700
     50 H15         6.5670    0.8550   -4.5670 hx        1 LX2      0.081700
     51 H15A        5.0510    1.7090   -4.0030 hx        1 LX2      0.081700
     52 H16         7.6660    2.3510   -2.5030 hc        1 LX2      0.150700
     53 H24         9.1400    1.2700   -3.9890 ha        1 LX2      0.154750
     54 H25        10.7000    1.6280   -5.9040 ha        1 LX2      0.134500
     55 H26        10.3290    3.5250   -7.4870 ha        1 LX2      0.133000
     56 H27         8.3960    5.0670   -7.1380 ha        1 LX2      0.134500
     57 H28         6.8400    4.7190   -5.2530 ha        1 LX2      0.154750
     58 H18         7.1130    3.7950   -0.9480 ha        1 LX2      0.154750
     59 H19         5.7920    5.7310   -0.0950 ha        1 LX2      0.134500
     60 H20         4.0240    6.7750   -1.5200 ha        1 LX2      0.133000
     61 H21         3.5770    5.8700   -3.8030 ha        1 LX2      0.134500
     62 H22         4.9000    3.9540   -4.6700 ha        1 LX2      0.154750
     63 H13         5.3750   -1.5790   -2.1820 hx        1 LX2      0.092200
     64 H13A        4.8840   -0.9180   -3.8180 hx        1 LX2      0.092200
     65 H12         7.1060   -1.2590   -4.7170 hc        1 LX2      0.091200
     66 H12A        7.8740   -1.3330   -3.0780 hc        1 LX2      0.091200
     67 H11         7.8730   -3.5360   -4.0370 h1        1 LX2      0.057700
     68 H11A        6.0910   -3.4600   -4.4830 h1        1 LX2      0.057700
     69 H43         7.6080   -1.7110    2.1550 ha        1 LX2      0.148000
     70 H42         5.5260   -3.0410    1.7800 ha        1 LX2      0.134000
     71 H41         5.0090   -3.9810   -0.4700 ha        1 LX2      0.143000
     72 H7          9.6180   -3.1780   -2.7860 ha        1 LX2      0.151000
     73 H6         11.1850   -1.4240   -1.3980 h4        1 LX2      0.170000
     74 H4         10.5870    0.4050    0.3040 h1        1 LX2      0.071700
     75 H4A         9.1760    0.1160    1.4420 h1        1 LX2      0.071700
     76 H141        6.9550    0.4160   -2.1180 hn        1 LX2      0.527800
@<TRIPOS>BOND
     1    1    2 1   
     2    2    3 1   
     3    2    4 1   
     4    2    5 1   
     5    5    6 ar  
     6    5    8 ar  
     7    6    7 1   
     8    6   11 ar  
     9    8    9 ar  
    10    8   45 1   
    11    9   10 ar  
    12    9   46 1   
    13   10   11 ar  
    14   10   47 1   
    15   11   12 1   
    16   12   13 1   
    17   12   48 1   
    18   12   49 1   
    19   13   14 1   
    20   13   28 1   
    21   13   76 1   
    22   14   15 1   
    23   14   50 1   
    24   14   51 1   
    25   15   16 1   
    26   15   22 1   
    27   15   52 1   
    28   16   17 ar  
    29   16   21 ar  
    30   17   18 ar  
    31   17   53 1   
    32   18   19 ar  
    33   18   54 1   
    34   19   20 ar  
    35   19   55 1   
    36   20   21 ar  
    37   20   56 1   
    38   21   57 1   
    39   22   23 ar  
    40   22   27 ar  
    41   23   24 ar  
    42   23   58 1   
    43   24   25 ar  
    44   24   59 1   
    45   25   26 ar  
    46   25   60 1   
    47   26   27 ar  
    48   26   61 1   
    49   27   62 1   
    50   28   29 1   
    51   28   63 1   
    52   28   64 1   
    53   29   30 1   
    54   29   65 1   
    55   29   66 1   
    56   30   31 1   
    57   30   67 1   
    58   30   68 1   
    59   31   32 1   
    60   32   33 ar  
    61   32   37 ar  
    62   33   34 ar  
    63   33   38 1   
    64   34   35 ar  
    65   34   40 1   
    66   35   36 ar  
    67   35   69 1   
    68   36   37 ar  
    69   36   70 1   
    70   37   71 1   
    71   38   39 2   
    72   38   72 1   
    73   39   40 1   
    74   39   73 1   
    75   40   41 1   
    76   41   42 1   
    77   41   74 1   
    78   41   75 1   
    79   42   43 1   
    80   42   44 1   
@<TRIPOS>SUBSTRUCTURE
     1 LX2         1 TEMP              0 ****  ****    0 ROOT
