@<TRIPOS>MOLECULE
LX2
   76    80     1     0     0
SMALL
bcc


@<TRIPOS>ATOM
      1 F40        -0.9010   -0.7770   -1.2480 f         1 LX2     -0.228633
      2 C37         0.4110   -0.9880   -0.8900 c3        1 LX2      0.692200
      3 F38         0.3630   -1.0620    0.4790 f         1 LX2     -0.228633
      4 F39         0.6550   -2.2720   -1.3070 f         1 LX2     -0.228633
      5 C34         1.3830    0.0570   -1.4420 ca        1 LX2     -0.168300
      6 C35         2.7660   -0.0060   -1.2000 ca        1 LX2      0.072400
      7 CL36        3.4040   -1.2410   -0.2310 cl        1 LX2     -0.033400
      8 C33         0.8540    1.1010   -2.2060 ca        1 LX2     -0.062000
      9 C32         1.6920    2.0870   -2.7190 ca        1 LX2     -0.136000
     10 C31         3.0620    2.0230   -2.4830 ca        1 LX2     -0.084000
     11 C30         3.6200    0.9710   -1.7470 ca        1 LX2     -0.128300
     12 C29         5.0930    0.9860   -1.4810 c3        1 LX2      0.157100
     13 N14         5.9720    0.4210   -2.5500 n4        1 LX2     -0.700400
     14 C15         6.0850    1.3070   -3.7500 c3        1 LX2      0.125800
     15 C16         7.0350    2.5080   -3.5250 c3        1 LX2     -0.010100
     16 C23         7.9040    2.6710   -4.7370 ca        1 LX2     -0.092800
     17 C24         8.9520    1.7460   -4.8940 ca        1 LX2     -0.128000
     18 C25         9.8040    1.8260   -5.9910 ca        1 LX2     -0.134250
     19 C26         9.6310    2.8340   -6.9420 ca        1 LX2     -0.125000
     20 C27         8.6090    3.7650   -6.7800 ca        1 LX2     -0.134250
     21 C28         7.7520    3.6880   -5.6810 ca        1 LX2     -0.128000
     22 C17         6.2780    3.7260   -3.1050 ca        1 LX2     -0.092800
     23 C18         6.5820    4.3000   -1.8610 ca        1 LX2     -0.128000
     24 C19         5.9160    5.4490   -1.4360 ca        1 LX2     -0.134250
     25 C20         4.9330    6.0290   -2.2390 ca        1 LX2     -0.125000
     26 C21         4.6100    5.4490   -3.4650 ca        1 LX2     -0.134250
     27 C22         5.2750    4.3010   -3.8940 ca        1 LX2     -0.128000
     28 C13         5.6000   -0.9770   -2.9300 c3        1 LX2      0.115800
     29 C12         6.7720   -1.7540   -3.5190 c3        1 LX2     -0.152400
     30 C11         6.5940   -3.2620   -3.4690 c3        1 LX2      0.143400
     31 O10         6.1790   -3.8540   -2.2390 os        1 LX2     -0.334900
     32 C9          6.6990   -3.3340   -1.0650 ca        1 LX2      0.119100
     33 C8          7.9950   -2.8520   -0.8970 ca        1 LX2     -0.125800
     34 C44         8.2830   -2.0760    0.2870 ca        1 LX2     -0.047200
     35 C43         7.3860   -2.0220    1.3540 ca        1 LX2     -0.130000
     36 C42         6.1660   -2.6830    1.2160 ca        1 LX2     -0.116000
     37 C41         5.8000   -3.2950    0.0170 ca        1 LX2     -0.184000
     38 C7          9.2060   -2.8210   -1.7070 cc        1 LX2     -0.198200
     39 C6         10.0920   -1.9680   -1.0850 cd        1 LX2     -0.066100
     40 N5          9.5790   -1.4740    0.1570 na        1 LX2     -0.041400
     41 C4          9.6010   -0.0250    0.3270 c3        1 LX2     -0.080700
     42 C2          8.6810    0.6980   -0.6690 c         1 LX2      0.879600
     43 O1          7.7580    1.4680   -0.2760 o         1 LX2     -0.859300
     44 O3          8.7940    0.4460   -1.9180 o         1 LX2     -0.859300
     45 H33        -0.2330    1.1470   -2.3940 ha        1 LX2      0.165000
     46 H32         1.2700    2.9190   -3.3030 ha        1 LX2      0.154000
     47 H31         3.7160    2.8300   -2.8630 ha        1 LX2      0.164000
     48 H29         5.3420    0.4260   -0.5290 hx        1 LX2      0.130700
     49 H29A        5.4460    2.0540   -1.3210 hx        1 LX2      0.130700
     50 H15         5.0570    1.6570   -4.0400 hx        1 LX2      0.081700
     51 H15A        6.5000    0.6740   -4.5870 hx        1 LX2      0.081700
     52 H16         7.7560    2.2450   -2.6730 hc        1 LX2      0.150700
     53 H24         9.1120    0.9740   -4.1190 ha        1 LX2      0.154750
     54 H25        10.6220    1.0990   -6.1020 ha        1 LX2      0.134500
     55 H26        10.3050    2.8970   -7.8090 ha        1 LX2      0.133000
     56 H27         8.4780    4.5730   -7.5160 ha        1 LX2      0.134500
     57 H28         6.9710    4.4540   -5.5630 ha        1 LX2      0.154750
     58 H18         7.3440    3.8280   -1.2120 ha        1 LX2      0.154750
     59 H19         6.1680    5.8960   -0.4630 ha        1 LX2      0.134500
     60 H20         4.4150    6.9400   -1.9050 ha        1 LX2      0.133000
     61 H21         3.8340    5.9020   -4.1000 ha        1 LX2      0.134500
     62 H22         5.0120    3.8520   -4.8650 ha        1 LX2      0.154750
     63 H13         4.7430   -0.9360   -3.6570 hx        1 LX2      0.092200
     64 H13A        5.2530   -1.5070   -1.9930 hx        1 LX2      0.092200
     65 H12         6.9080   -1.4740   -4.5980 hc        1 LX2      0.091200
     66 H12A        7.7280   -1.4770   -2.9830 hc        1 LX2      0.091200
     67 H11         7.5650   -3.7390   -3.7770 h1        1 LX2      0.057700
     68 H11A        5.7760   -3.5870   -4.1720 h1        1 LX2      0.057700
     69 H43         7.6270   -1.4650    2.2700 ha        1 LX2      0.148000
     70 H42         5.4590   -2.6900    2.0590 ha        1 LX2      0.134000
     71 H41         4.8080   -3.7540   -0.1000 ha        1 LX2      0.143000
     72 H7          9.3710   -3.3990   -2.6110 ha        1 LX2      0.151000
     73 H6         11.0860   -1.6490   -1.4050 h4        1 LX2      0.170000
     74 H4         10.6560    0.3290    0.1770 h1        1 LX2      0.071700
     75 H4A         9.2730    0.2070    1.3760 h1        1 LX2      0.071700
     76 H141        6.9480    0.3890   -2.1250 hn        1 LX2      0.527800
@<TRIPOS>BOND
     1    1    2 1   
     2    2    3 1   
     3    2    4 1   
     4    2    5 1   
     5    5    6 ar  
     6    5    8 ar  
     7    6    7 1   
     8    6   11 ar  
     9    8    9 ar  
    10    8   45 1   
    11    9   10 ar  
    12    9   46 1   
    13   10   11 ar  
    14   10   47 1   
    15   11   12 1   
    16   12   13 1   
    17   12   48 1   
    18   12   49 1   
    19   13   14 1   
    20   13   28 1   
    21   13   76 1   
    22   14   15 1   
    23   14   50 1   
    24   14   51 1   
    25   15   16 1   
    26   15   22 1   
    27   15   52 1   
    28   16   17 ar  
    29   16   21 ar  
    30   17   18 ar  
    31   17   53 1   
    32   18   19 ar  
    33   18   54 1   
    34   19   20 ar  
    35   19   55 1   
    36   20   21 ar  
    37   20   56 1   
    38   21   57 1   
    39   22   23 ar  
    40   22   27 ar  
    41   23   24 ar  
    42   23   58 1   
    43   24   25 ar  
    44   24   59 1   
    45   25   26 ar  
    46   25   60 1   
    47   26   27 ar  
    48   26   61 1   
    49   27   62 1   
    50   28   29 1   
    51   28   63 1   
    52   28   64 1   
    53   29   30 1   
    54   29   65 1   
    55   29   66 1   
    56   30   31 1   
    57   30   67 1   
    58   30   68 1   
    59   31   32 1   
    60   32   33 ar  
    61   32   37 ar  
    62   33   34 ar  
    63   33   38 1   
    64   34   35 ar  
    65   34   40 1   
    66   35   36 ar  
    67   35   69 1   
    68   36   37 ar  
    69   36   70 1   
    70   37   71 1   
    71   38   39 2   
    72   38   72 1   
    73   39   40 1   
    74   39   73 1   
    75   40   41 1   
    76   41   42 1   
    77   41   74 1   
    78   41   75 1   
    79   42   43 1   
    80   42   44 1   
@<TRIPOS>SUBSTRUCTURE
     1 LX2         1 TEMP              0 ****  ****    0 ROOT
