@<TRIPOS>MOLECULE
LX2
   75    79     1     0     0
SMALL
bcc


@<TRIPOS>ATOM
      1 F40        -4.8650    6.6850    1.9680 f         1 LX2     -0.236967
      2 C37        -3.7960    6.2070    1.2420 c3        1 LX2      0.692200
      3 F38        -3.6280    7.1610    0.2690 f         1 LX2     -0.236967
      4 F39        -2.7340    6.3870    2.0930 f         1 LX2     -0.236967
      5 C34        -3.9770    4.7810    0.7240 ca        1 LX2     -0.169300
      6 C35        -2.9900    4.1280   -0.0340 ca        1 LX2      0.069400
      7 CL36       -1.5370    4.9270   -0.4060 cl        1 LX2     -0.060400
      8 C33        -5.1730    4.1250    1.0250 ca        1 LX2     -0.085000
      9 C32        -5.3940    2.8280    0.5700 ca        1 LX2     -0.138000
     10 C31        -4.4190    2.1840   -0.1860 ca        1 LX2     -0.086000
     11 C30        -3.2080    2.8170   -0.4910 ca        1 LX2     -0.110300
     12 C29        -2.2050    2.0610   -1.3330 c3        1 LX2      0.236100
     13 N14        -1.4520    1.0120   -0.6970 n3        1 LX2     -0.767600
     14 C15        -2.2250   -0.1370   -0.2690 c3        1 LX2      0.199800
     15 C16        -1.3750   -1.3700    0.1170 c3        1 LX2      0.015900
     16 C23        -1.3370   -1.5520    1.6060 ca        1 LX2     -0.074300
     17 C24        -0.1030   -1.5500    2.2710 ca        1 LX2     -0.125750
     18 C25        -0.0460   -1.7160    3.6540 ca        1 LX2     -0.129750
     19 C26        -1.2180   -1.8870    4.3900 ca        1 LX2     -0.139500
     20 C27        -2.4490   -1.8950    3.7350 ca        1 LX2     -0.129750
     21 C28        -2.5080   -1.7310    2.3530 ca        1 LX2     -0.125750
     22 C17        -1.8700   -2.6080   -0.5700 ca        1 LX2     -0.074300
     23 C18        -0.9340   -3.4730   -1.1520 ca        1 LX2     -0.125750
     24 C19        -1.3470   -4.6370   -1.8030 ca        1 LX2     -0.129750
     25 C20        -2.7060   -4.9420   -1.8760 ca        1 LX2     -0.139500
     26 C21        -3.6450   -4.0850   -1.3010 ca        1 LX2     -0.129750
     27 C22        -3.2310   -2.9240   -0.6510 ca        1 LX2     -0.125750
     28 C13        -0.3880    1.4500    0.1880 c3        1 LX2      0.186800
     29 C12         0.9740    1.4500   -0.5110 c3        1 LX2     -0.126400
     30 C11         2.0860    1.7510    0.4760 c3        1 LX2      0.134400
     31 O10         3.3440    1.2470    0.0100 os        1 LX2     -0.346900
     32 C9          3.4900   -0.1270    0.1960 ca        1 LX2      0.111100
     33 C8          3.3220   -1.0070   -0.8810 ca        1 LX2     -0.097800
     34 C44         3.5320   -2.4280   -0.6490 ca        1 LX2     -0.061200
     35 C43         3.9200   -2.9050    0.6140 ca        1 LX2     -0.134000
     36 C42         4.0890   -1.9870    1.6380 ca        1 LX2     -0.139000
     37 C41         3.8710   -0.6130    1.4450 ca        1 LX2     -0.193000
     38 C7          2.9470   -0.8710   -2.2630 cc        1 LX2     -0.246200
     39 C6          2.9210   -2.1570   -2.8110 cd        1 LX2     -0.060100
     40 N5          3.2740   -3.1010   -1.8470 na        1 LX2     -0.025400
     41 C4          3.2940   -4.5240   -2.0350 c3        1 LX2     -0.107700
     42 C2          2.1960   -5.0740   -3.0020 c         1 LX2      0.913600
     43 O1          1.4770   -6.0050   -2.5490 o         1 LX2     -0.823300
     44 O3          2.1190   -4.5900   -4.1620 o         1 LX2     -0.823300
     45 H33        -5.9430    4.6370    1.6240 ha        1 LX2      0.152000
     46 H32        -6.3380    2.3160    0.8080 ha        1 LX2      0.142000
     47 H31        -4.5960    1.1600   -0.5550 ha        1 LX2      0.151000
     48 H29        -2.7770    1.5970   -2.1910 h1        1 LX2      0.066700
     49 H29A       -1.4600    2.7840   -1.7750 h1        1 LX2      0.066700
     50 H15        -2.9010    0.1250    0.6000 h1        1 LX2      0.030200
     51 H15A       -2.8870   -0.4190   -1.1390 h1        1 LX2      0.030200
     52 H16        -0.3130   -1.2000   -0.2410 hc        1 LX2      0.092700
     53 H24         0.8310   -1.4250    1.6980 ha        1 LX2      0.135000
     54 H25         0.9290   -1.7190    4.1620 ha        1 LX2      0.142000
     55 H26        -1.1720   -2.0200    5.4800 ha        1 LX2      0.123000
     56 H27        -3.3760   -2.0380    4.3090 ha        1 LX2      0.142000
     57 H28        -3.4820   -1.7570    1.8410 ha        1 LX2      0.135000
     58 H18         0.1420   -3.2410   -1.1070 ha        1 LX2      0.135000
     59 H19        -0.5800   -5.3010   -2.2570 ha        1 LX2      0.142000
     60 H20        -3.0350   -5.8560   -2.3890 ha        1 LX2      0.123000
     61 H21        -4.7160   -4.3240   -1.3600 ha        1 LX2      0.142000
     62 H22        -3.9790   -2.2540   -0.2040 ha        1 LX2      0.135000
     63 H13        -0.5920    2.4890    0.5790 h1        1 LX2      0.037700
     64 H13A       -0.3300    0.7660    1.0840 h1        1 LX2      0.037700
     65 H12         1.1660    0.4480   -0.9850 hc        1 LX2      0.067700
     66 H12A        0.9840    2.2070   -1.3360 hc        1 LX2      0.067700
     67 H11         2.2670    2.8560    0.5610 h1        1 LX2      0.040700
     68 H11A        1.8580    1.3280    1.4900 h1        1 LX2      0.040700
     69 H43         4.0770   -3.9790    0.7820 ha        1 LX2      0.133000
     70 H42         4.3970   -2.3390    2.6330 ha        1 LX2      0.115000
     71 H41         4.0030    0.0860    2.2810 ha        1 LX2      0.122000
     72 H7          2.7310    0.0600   -2.7740 ha        1 LX2      0.150000
     73 H6          2.6540   -2.5030   -3.8210 h4        1 LX2      0.219000
     74 H4          4.2940   -4.8180   -2.4610 h1        1 LX2      0.044700
     75 H4A         3.1660   -5.0200   -1.0340 h1        1 LX2      0.044700
@<TRIPOS>BOND
     1    1    2 1   
     2    2    3 1   
     3    2    4 1   
     4    2    5 1   
     5    5    6 ar  
     6    5    8 ar  
     7    6    7 1   
     8    6   11 ar  
     9    8    9 ar  
    10    8   45 1   
    11    9   10 ar  
    12    9   46 1   
    13   10   11 ar  
    14   10   47 1   
    15   11   12 1   
    16   12   13 1   
    17   12   48 1   
    18   12   49 1   
    19   13   14 1   
    20   13   28 1   
    21   14   15 1   
    22   14   50 1   
    23   14   51 1   
    24   15   16 1   
    25   15   22 1   
    26   15   52 1   
    27   16   17 ar  
    28   16   21 ar  
    29   17   18 ar  
    30   17   53 1   
    31   18   19 ar  
    32   18   54 1   
    33   19   20 ar  
    34   19   55 1   
    35   20   21 ar  
    36   20   56 1   
    37   21   57 1   
    38   22   23 ar  
    39   22   27 ar  
    40   23   24 ar  
    41   23   58 1   
    42   24   25 ar  
    43   24   59 1   
    44   25   26 ar  
    45   25   60 1   
    46   26   27 ar  
    47   26   61 1   
    48   27   62 1   
    49   28   29 1   
    50   28   63 1   
    51   28   64 1   
    52   29   30 1   
    53   29   65 1   
    54   29   66 1   
    55   30   31 1   
    56   30   67 1   
    57   30   68 1   
    58   31   32 1   
    59   32   33 ar  
    60   32   37 ar  
    61   33   34 ar  
    62   33   38 1   
    63   34   35 ar  
    64   34   40 1   
    65   35   36 ar  
    66   35   69 1   
    67   36   37 ar  
    68   36   70 1   
    69   37   71 1   
    70   38   39 2   
    71   38   72 1   
    72   39   40 1   
    73   39   73 1   
    74   40   41 1   
    75   41   42 1   
    76   41   74 1   
    77   41   75 1   
    78   42   43 1   
    79   42   44 1   
@<TRIPOS>SUBSTRUCTURE
     1 LX2         1 TEMP              0 ****  ****    0 ROOT
