@<TRIPOS>MOLECULE
LX2
   76    80     1     0     0
SMALL
bcc


@<TRIPOS>ATOM
      1 F40        -0.9160   -0.7610   -1.3270 f         1 LX2     -0.228633
      2 C37         0.3910   -0.9880   -0.9660 c3        1 LX2      0.692200
      3 F38         0.3350   -1.0960    0.4000 f         1 LX2     -0.228633
      4 F39         0.6300   -2.2640   -1.4140 f         1 LX2     -0.228633
      5 C34         1.3740    0.0640   -1.4870 ca        1 LX2     -0.168300
      6 C35         2.7540   -0.0140   -1.2380 ca        1 LX2      0.072400
      7 CL36        3.3790   -1.2760   -0.2950 cl        1 LX2     -0.033400
      8 C33         0.8550    1.1300   -2.2280 ca        1 LX2     -0.062000
      9 C32         1.7030    2.1230   -2.7110 ca        1 LX2     -0.136000
     10 C31         3.0710    2.0450   -2.4690 ca        1 LX2     -0.084000
     11 C30         3.6180    0.9710   -1.7550 ca        1 LX2     -0.128300
     12 C29         5.0890    0.9710   -1.4800 c3        1 LX2      0.157100
     13 N14         5.9710    0.4270   -2.5570 n4        1 LX2     -0.700400
     14 C15         6.0960    1.3410   -3.7350 c3        1 LX2      0.125800
     15 C16         7.0530    2.5300   -3.4740 c3        1 LX2     -0.010100
     16 C23         7.9300    2.7180   -4.6770 ca        1 LX2     -0.092800
     17 C24         8.9730    1.7900   -4.8510 ca        1 LX2     -0.128000
     18 C25         9.8310    1.8910   -5.9420 ca        1 LX2     -0.134250
     19 C26         9.6700    2.9240   -6.8680 ca        1 LX2     -0.125000
     20 C27         8.6540    3.8580   -6.6880 ca        1 LX2     -0.134250
     21 C28         7.7890    3.7590   -5.5960 ca        1 LX2     -0.128000
     22 C17         6.3010    3.7420   -3.0280 ca        1 LX2     -0.092800
     23 C18         6.6010    4.2830   -1.7690 ca        1 LX2     -0.128000
     24 C19         5.9390    5.4250   -1.3190 ca        1 LX2     -0.134250
     25 C20         4.9650    6.0310   -2.1130 ca        1 LX2     -0.125000
     26 C21         4.6460    5.4840   -3.3550 ca        1 LX2     -0.134250
     27 C22         5.3060    4.3430   -3.8090 ca        1 LX2     -0.128000
     28 C13         5.5930   -0.9600   -2.9730 c3        1 LX2      0.115800
     29 C12         6.7640   -1.7290   -3.5740 c3        1 LX2     -0.152400
     30 C11         6.5770   -3.2360   -3.5630 c3        1 LX2      0.143400
     31 O10         6.1510   -3.8560   -2.3500 os        1 LX2     -0.334900
     32 C9          6.6670   -3.3680   -1.1600 ca        1 LX2      0.119100
     33 C8          7.9650   -2.8980   -0.9730 ca        1 LX2     -0.125800
     34 C44         8.2510   -2.1530    0.2320 ca        1 LX2     -0.047200
     35 C43         7.3480   -2.1200    1.2940 ca        1 LX2     -0.130000
     36 C42         6.1250   -2.7690    1.1330 ca        1 LX2     -0.116000
     37 C41         5.7620   -3.3500   -0.0830 ca        1 LX2     -0.184000
     38 C7          9.1810   -2.8550   -1.7750 cc        1 LX2     -0.198200
     39 C6         10.0680   -2.0230   -1.1270 cd        1 LX2     -0.066100
     40 N5          9.5510   -1.5560    0.1240 na        1 LX2     -0.041400
     41 C4          9.5810   -0.1120    0.3290 c3        1 LX2     -0.080700
     42 C2          8.6710    0.6410   -0.6540 c         1 LX2      0.879600
     43 O1          7.7500    1.4070   -0.2480 o         1 LX2     -0.859300
     44 O3          8.7900    0.4190   -1.9080 o         1 LX2     -0.859300
     45 H33        -0.2300    1.1870   -2.4210 ha        1 LX2      0.165000
     46 H32         1.2890    2.9720   -3.2760 ha        1 LX2      0.154000
     47 H31         3.7320    2.8570   -2.8240 ha        1 LX2      0.164000
     48 H29         5.3280    0.3860   -0.5400 hx        1 LX2      0.130700
     49 H29A        5.4480    2.0320   -1.2910 hx        1 LX2      0.130700
     50 H15         6.5130    0.7260   -4.5840 hx        1 LX2      0.081700
     51 H15A        5.0730    1.7040   -4.0210 hx        1 LX2      0.081700
     52 H16         7.7670    2.2420   -2.6250 hc        1 LX2      0.150700
     53 H24         9.1230    0.9970   -4.0950 ha        1 LX2      0.154750
     54 H25        10.6450    1.1620   -6.0660 ha        1 LX2      0.134500
     55 H26        10.3500    3.0040   -7.7290 ha        1 LX2      0.133000
     56 H27         8.5320    4.6840   -7.4040 ha        1 LX2      0.134500
     57 H28         7.0130    4.5270   -5.4630 ha        1 LX2      0.154750
     58 H18         7.3560    3.7900   -1.1270 ha        1 LX2      0.154750
     59 H19         6.1890    5.8470   -0.3340 ha        1 LX2      0.134500
     60 H20         4.4500    6.9370   -1.7600 ha        1 LX2      0.133000
     61 H21         3.8770    5.9570   -3.9830 ha        1 LX2      0.134500
     62 H22         5.0460    3.9200   -4.7920 ha        1 LX2      0.154750
     63 H13         5.2380   -1.5100   -2.0510 hx        1 LX2      0.092200
     64 H13A        4.7410   -0.8950   -3.7040 hx        1 LX2      0.092200
     65 H12         6.9090   -1.4230   -4.6450 hc        1 LX2      0.091200
     66 H12A        7.7190   -1.4710   -3.0260 hc        1 LX2      0.091200
     67 H11         7.5470   -3.7120   -3.8770 h1        1 LX2      0.057700
     68 H11A        5.7610   -3.5400   -4.2770 h1        1 LX2      0.057700
     69 H43         7.5870   -1.5870    2.2250 ha        1 LX2      0.148000
     70 H42         5.4120   -2.7920    1.9710 ha        1 LX2      0.134000
     71 H41         4.7680   -3.8000   -0.2160 ha        1 LX2      0.143000
     72 H7          9.3480   -3.4120   -2.6910 ha        1 LX2      0.151000
     73 H6         11.0670   -1.7030   -1.4330 h4        1 LX2      0.170000
     74 H4         10.6390    0.2390    0.1940 h1        1 LX2      0.071700
     75 H4A         9.2470    0.0970    1.3820 h1        1 LX2      0.071700
     76 H141        6.9440    0.3780   -2.1270 hn        1 LX2      0.527800
@<TRIPOS>BOND
     1    1    2 1   
     2    2    3 1   
     3    2    4 1   
     4    2    5 1   
     5    5    6 ar  
     6    5    8 ar  
     7    6    7 1   
     8    6   11 ar  
     9    8    9 ar  
    10    8   45 1   
    11    9   10 ar  
    12    9   46 1   
    13   10   11 ar  
    14   10   47 1   
    15   11   12 1   
    16   12   13 1   
    17   12   48 1   
    18   12   49 1   
    19   13   14 1   
    20   13   28 1   
    21   13   76 1   
    22   14   15 1   
    23   14   50 1   
    24   14   51 1   
    25   15   16 1   
    26   15   22 1   
    27   15   52 1   
    28   16   17 ar  
    29   16   21 ar  
    30   17   18 ar  
    31   17   53 1   
    32   18   19 ar  
    33   18   54 1   
    34   19   20 ar  
    35   19   55 1   
    36   20   21 ar  
    37   20   56 1   
    38   21   57 1   
    39   22   23 ar  
    40   22   27 ar  
    41   23   24 ar  
    42   23   58 1   
    43   24   25 ar  
    44   24   59 1   
    45   25   26 ar  
    46   25   60 1   
    47   26   27 ar  
    48   26   61 1   
    49   27   62 1   
    50   28   29 1   
    51   28   63 1   
    52   28   64 1   
    53   29   30 1   
    54   29   65 1   
    55   29   66 1   
    56   30   31 1   
    57   30   67 1   
    58   30   68 1   
    59   31   32 1   
    60   32   33 ar  
    61   32   37 ar  
    62   33   34 ar  
    63   33   38 1   
    64   34   35 ar  
    65   34   40 1   
    66   35   36 ar  
    67   35   69 1   
    68   36   37 ar  
    69   36   70 1   
    70   37   71 1   
    71   38   39 2   
    72   38   72 1   
    73   39   40 1   
    74   39   73 1   
    75   40   41 1   
    76   41   42 1   
    77   41   74 1   
    78   41   75 1   
    79   42   43 1   
    80   42   44 1   
@<TRIPOS>SUBSTRUCTURE
     1 LX2         1 TEMP              0 ****  ****    0 ROOT
