@<TRIPOS>MOLECULE
LX2
   75    66     1     0     0
SMALL
bcc


@<TRIPOS>ATOM
      1 F40        -6.5810   -0.3220    4.0570 f         1 LX2     -0.165667
      2 C37        -5.2640   -0.4960    3.8750 c3        1 LX2      0.471000
      3 F38        -4.6370   -0.4310    5.0570 f         1 LX2     -0.165667
      4 F39        -5.0450   -1.6940    3.3180 f         1 LX2     -0.165667
      5 C34        -4.7300    0.5960    2.9570 c2        1 LX2     -0.162000
      6 C35        -3.3550    0.8040    2.8450 c2        1 LX2     -0.009000
      7 CL36       -2.2560   -0.1010    3.8550 cl        1 LX2      0.017000
      8 C33        -5.6120    1.4130    2.2670 c1        1 LX2     -0.085000
      9 C32        -5.1270    2.4380    1.4650 c1        1 LX2     -0.132250
     10 C31        -3.7520    2.6470    1.3520 c1        1 LX2     -0.132250
     11 C30        -2.8690    1.8320    2.0410 c1        1 LX2     -0.103000
     12 C29        -1.3450    2.1560    2.0320 c3        1 LX2     -0.008000
     13 N14        -0.7370    1.6260    0.7980 n3        1 LX2     -0.293000
     14 C15        -1.4250    2.1950   -0.3760 c3        1 LX2     -0.038000
     15 C16        -0.7430    3.5550   -0.7780 c3        1 LX2     -0.037000
     16 C23         0.6300    3.2780   -1.3650 c2        1 LX2     -0.069500
     17 C24         0.7650    2.3800   -2.4100 c2        1 LX2     -0.113000
     18 C25         1.9970    2.2140   -3.0270 c1        1 LX2     -0.120500
     19 C26         3.0950    2.9470   -2.5960 c1        1 LX2     -0.132250
     20 C27         2.9600    3.8440   -1.5520 c1        1 LX2     -0.132250
     21 C28         1.7290    4.0120   -0.9340 c1        1 LX2     -0.133000
     22 C17        -1.6160    4.2840   -1.8330 c2        1 LX2     -0.069500
     23 C18        -1.6110    5.6780   -1.8980 c2        1 LX2     -0.113000
     24 C19        -2.3670    6.3320   -2.8650 c1        1 LX2     -0.120500
     25 C20        -3.1250    5.6000   -3.7640 c1        1 LX2     -0.132250
     26 C21        -3.1310    4.2070   -3.7000 c1        1 LX2     -0.132250
     27 C22        -2.3740    3.5510   -2.7300 c1        1 LX2     -0.133000
     28 C13        -0.8640    0.1630    0.7780 c3        1 LX2     -0.052000
     29 C12         0.5070   -0.4830    1.1420 c3        1 LX2     -0.204000
     30 C11         0.5460   -1.9440    0.6290 c3        1 LX2     -0.015000
     31 O10         1.8600   -2.4900    0.8460 os        1 LX2     -0.232000
     32 C9          1.9970   -3.8590    0.4360 c2        1 LX2      0.065000
     33 C8          3.1840   -4.5120    0.8200 c1        1 LX2     -0.085000
     34 C44         3.5020   -5.7380    0.2760 c1        1 LX2     -0.018000
     35 C43         2.6430   -6.3340   -0.6600 c1        1 LX2     -0.132250
     36 C42         1.4670   -5.6860   -1.0400 c1        1 LX2     -0.132250
     37 C41         1.1460   -4.4500   -0.4930 c1        1 LX2     -0.187000
     38 C7          4.2190   -4.1360    1.6580 c1        1 LX2     -0.266000
     39 C6          5.1830   -5.1410    1.6280 c1        1 LX2     -0.026000
     40 N5          4.7430   -6.1250    0.7800 n1        1 LX2     -0.115000
     41 C4          5.4220   -7.3860    0.5590 c2        1 LX2     -0.117000
     42 C2          6.5610   -7.1830   -0.4330 c2        1 LX2      0.336000
     43 O1          6.6430   -7.9180   -1.4560 o         1 LX2     -0.561000
     44 O3          7.4720   -6.3510   -0.1820 o         1 LX2     -0.561000
     45 H33        -6.5740    1.2300    2.2990 ha        1 LX2      0.152000
     46 H32        -5.7510    3.0260    0.9940 ha        1 LX2      0.128125
     47 H31        -3.4180    3.4220    0.8640 ha        1 LX2      0.128125
     48 H29        -1.2170    3.1260    2.0680 h1        1 LX2      0.104500
     49 H29A       -0.9180    1.7410    2.8110 h1        1 LX2      0.104500
     50 H15        -2.3650    2.3550   -0.1570 h1        1 LX2      0.068500
     51 H15A       -1.3660    1.5680   -1.1230 h1        1 LX2      0.068500
     52 H16        -0.6510    4.1200    0.0150 hc        1 LX2      0.132000
     53 H24        -0.0000    1.8530   -2.7000 ha        1 LX2      0.148000
     54 H25         2.0830    1.6080   -3.7880 ha        1 LX2      0.158000
     55 H26         3.9740    2.7820   -2.9860 ha        1 LX2      0.128125
     56 H27         3.7320    4.3610   -1.2490 ha        1 LX2      0.128125
     57 H28         1.6370    4.6380   -0.1900 ha        1 LX2      0.130000
     58 H18        -1.0770    6.1940   -1.2640 ha        1 LX2      0.148000
     59 H19        -2.3630    7.3100   -2.9110 ha        1 LX2      0.158000
     60 H20        -3.6570    6.0620   -4.4450 ha        1 LX2      0.128125
     61 H21        -3.7250    3.6950   -4.2840 ha        1 LX2      0.128125
     62 H22        -2.3770    2.5810   -2.6850 ha        1 LX2      0.130000
     63 H13        -1.1340   -0.1280   -0.1140 h1        1 LX2      0.078500
     64 H13A       -1.5390   -0.1160    1.4320 h1        1 LX2      0.078500
     65 H12         0.6230   -0.4760    2.1180 hc        1 LX2      0.105500
     66 H12A        1.2290    0.0280    0.7240 hc        1 LX2      0.105500
     67 H11        -0.1160   -2.4800    1.1170 h1        1 LX2      0.080500
     68 H11A        0.3390   -1.9600   -0.3270 h1        1 LX2      0.080500
     69 H43         2.8690   -7.2060   -1.0460 ha        1 LX2      0.128125
     70 H42         0.8690   -6.1020   -1.6940 ha        1 LX2      0.128125
     71 H41         0.3570   -3.9650   -0.8120 ha        1 LX2      0.123000
     72 H7          4.2630   -3.3140    2.1830 DU        1 LX2      0.182000
     73 H6          5.9990   -5.1690    2.1650 DU        1 LX2      0.182000
     74 H4          4.7880   -8.0370    0.1980 ha        1 LX2      0.086000
     75 H4A         5.7830   -7.7160    1.4070 ha        1 LX2      0.086000
@<TRIPOS>BOND
     1    1    2 1   
     2    2    3 1   
     3    2    4 1   
     4    2    5 1   
     5    5    6 1   
     6    5    8 1   
     7    6    7 1   
     8    6   11 1   
     9    8   45 1   
    10    9   10 1   
    11    9   46 1   
    12   10   47 1   
    13   11   12 1   
    14   12   13 1   
    15   12   48 1   
    16   12   49 1   
    17   13   14 1   
    18   13   28 1   
    19   14   15 1   
    20   14   50 1   
    21   14   51 1   
    22   15   16 1   
    23   15   22 1   
    24   15   52 1   
    25   16   17 1   
    26   16   21 1   
    27   17   18 1   
    28   17   53 1   
    29   18   54 1   
    30   19   20 1   
    31   19   55 1   
    32   20   56 1   
    33   21   57 1   
    34   22   23 1   
    35   22   27 1   
    36   23   24 1   
    37   23   58 1   
    38   24   59 1   
    39   25   26 1   
    40   25   60 1   
    41   26   61 1   
    42   27   62 1   
    43   28   29 1   
    44   28   63 1   
    45   28   64 1   
    46   29   30 1   
    47   29   65 1   
    48   29   66 1   
    49   30   31 1   
    50   30   67 1   
    51   30   68 1   
    52   31   32 1   
    53   32   33 1   
    54   32   37 1   
    55   33   34 1   
    56   35   36 1   
    57   35   69 1   
    58   36   70 1   
    59   37   71 1   
    60   38   39 1   
    61   39   40 1   
    62   41   42 1   
    63   41   74 1   
    64   41   75 1   
    65   42   43 1   
    66   42   44 1   
@<TRIPOS>SUBSTRUCTURE
     1 LX2         1 TEMP              0 ****  ****    0 ROOT
