@<TRIPOS>MOLECULE
LX8
   50    52     1     0     0
SMALL
bcc


@<TRIPOS>ATOM
      1 CAA         6.8030    0.0520   -1.7250 c2        1 LX8     -0.195000
      2 CAB        -6.9310    2.1470   -0.2650 c3        1 LX8     -0.152100
      3 CAC         6.1010    0.4900    1.0420 c3        1 LX8     -0.093100
      4 CAD         5.1010    2.5180    0.0530 c3        1 LX8     -0.093100
      5 CAE        -5.1040   -1.7640    0.2200 c3        1 LX8     -0.123600
      6 CAF        -3.7190   -0.5470   -1.4820 c3        1 LX8     -0.123600
      7 OAG        -6.5700    0.0610   -1.4920 o         1 LX8     -0.540000
      8 OAH         4.6030   -1.9440    0.0480 o         1 LX8     -0.560500
      9 CAI         5.6590    0.6620   -1.4330 c2        1 LX8     -0.170200
     10 CAJ         0.1900    1.1790    0.5870 ca        1 LX8     -0.029000
     11 CAK         0.1410   -1.6900    0.5620 ca        1 LX8     -0.176000
     12 CAL         2.6630    1.0930    0.2750 cc        1 LX8     -0.016200
     13 CAM        -2.3960    0.9710    0.9050 c3        1 LX8     -0.040100
     14 OAN        -5.1090    0.6790    0.1090 os        1 LX8     -0.457900
     15 OAO        -2.2720   -1.4570    0.8680 os        1 LX8     -0.309900
     16 OAP         2.4810   -1.7230    0.2790 os        1 LX8     -0.325200
     17 CAQ        -6.2370    0.8790   -0.6350 c         1 LX8      0.645100
     18 CAR        -0.9940    0.4970    0.7260 ca        1 LX8     -0.180300
     19 CAS        -1.0030   -0.9300    0.7110 ca        1 LX8      0.157100
     20 CAT         3.8010    0.3730    0.1300 cd        1 LX8     -0.183400
     21 CAU         3.7220   -1.0910    0.1400 c         1 LX8      0.727800
     22 CAV         1.3880    0.4440    0.4310 ca        1 LX8     -0.188800
     23 CAW         1.3460   -0.9630    0.4230 ca        1 LX8      0.186100
     24 CAX        -3.2070   -0.3400    1.0020 c3        1 LX8      0.136100
     25 CAY         5.1640    0.9930   -0.0530 c3        1 LX8      0.040400
     26 CAZ        -4.3010   -0.5070   -0.0810 c3        1 LX8      0.170800
     27 HAA         7.5110   -0.3070   -0.9670 ha        1 LX8      0.116000
     28 HAAA        7.1020   -0.1450   -2.7640 ha        1 LX8      0.116000
     29 HAB        -7.9620    1.9010    0.0900 hc        1 LX8      0.076033
     30 HABA       -6.3800    2.6900    0.5400 hc        1 LX8      0.076033
     31 HABB       -7.0030    2.7960   -1.1720 hc        1 LX8      0.076033
     32 HAC         5.6800    0.7360    2.0460 hc        1 LX8      0.043867
     33 HACA        6.2370   -0.6160    0.9680 hc        1 LX8      0.043867
     34 HACB        7.0980    0.9830    0.9430 hc        1 LX8      0.043867
     35 HAD         6.1290    2.9390   -0.0650 hc        1 LX8      0.043867
     36 HADA        4.4540    2.9470   -0.7480 hc        1 LX8      0.043867
     37 HADB        4.7060    2.8240    1.0510 hc        1 LX8      0.043867
     38 HAE        -4.4040   -2.6300    0.3060 hc        1 LX8      0.059367
     39 HAEA       -5.6590   -1.6460    1.1800 hc        1 LX8      0.059367
     40 HAEB       -5.8370   -1.9620   -0.5990 hc        1 LX8      0.059367
     41 HAF        -4.5200   -0.7810   -2.2250 hc        1 LX8      0.059367
     42 HAFA       -3.2630    0.4360   -1.7470 hc        1 LX8      0.059367
     43 HAFB       -2.9330   -1.3400   -1.5290 hc        1 LX8      0.059367
     44 HAI         4.9740    0.9920   -2.2330 ha        1 LX8      0.118000
     45 HAJ         0.2240    2.2790    0.5940 ha        1 LX8      0.143000
     46 HAK         0.1360   -2.7870    0.5520 ha        1 LX8      0.177000
     47 HAL         2.6630    2.1960    0.2770 ha        1 LX8      0.148000
     48 HAM        -2.5130    1.5710    1.8420 hc        1 LX8      0.073700
     49 HAMA       -2.7430    1.5960    0.0450 hc        1 LX8      0.073700
     50 HAX        -3.6690   -0.4600    2.0170 h1        1 LX8      0.080700
@<TRIPOS>BOND
     1    1    9 2   
     2    1   27 1   
     3    1   28 1   
     4    2   17 1   
     5    2   29 1   
     6    2   30 1   
     7    2   31 1   
     8    3   25 1   
     9    3   32 1   
    10    3   33 1   
    11    3   34 1   
    12    4   25 1   
    13    4   35 1   
    14    4   36 1   
    15    4   37 1   
    16    5   26 1   
    17    5   38 1   
    18    5   39 1   
    19    5   40 1   
    20    6   26 1   
    21    6   41 1   
    22    6   42 1   
    23    6   43 1   
    24    7   17 2   
    25    8   21 2   
    26    9   25 1   
    27    9   44 1   
    28   10   18 ar  
    29   10   22 ar  
    30   10   45 1   
    31   11   19 ar  
    32   11   23 ar  
    33   11   46 1   
    34   12   20 2   
    35   12   22 1   
    36   12   47 1   
    37   13   18 1   
    38   13   24 1   
    39   13   48 1   
    40   13   49 1   
    41   14   17 1   
    42   14   26 1   
    43   15   19 1   
    44   15   24 1   
    45   16   21 1   
    46   16   23 1   
    47   18   19 ar  
    48   20   21 1   
    49   20   25 1   
    50   22   23 ar  
    51   24   26 1   
    52   24   50 1   
@<TRIPOS>SUBSTRUCTURE
     1 LX8         1 TEMP              0 ****  ****    0 ROOT
