@<TRIPOS>MOLECULE
LX8
   50    52     1     0     0
SMALL
bcc


@<TRIPOS>ATOM
      1 CAA         0.4090    0.0510   -0.5470 c2        1 LX8     -0.195000
      2 CAB        13.3310    4.8770    1.6630 c3        1 LX8     -0.152100
      3 CAC         1.0600    0.0460    2.2670 c3        1 LX8     -0.093100
      4 CAD         2.9730   -1.2600    1.4150 c3        1 LX8     -0.093100
      5 CAE         9.8200    7.4240    1.8910 c3        1 LX8     -0.123600
      6 CAF         9.3020    5.6660    0.1780 c3        1 LX8     -0.123600
      7 OAG        12.0870    6.5110    0.3310 o         1 LX8     -0.540000
      8 OAH         1.2590    2.8870    1.2430 o         1 LX8     -0.560500
      9 CAI         1.6850    0.0750   -0.1740 c2        1 LX8     -0.170200
     10 CAJ         6.5870    2.2940    2.1280 ca        1 LX8     -0.029000
     11 CAK         5.2490    4.8290    1.9830 ca        1 LX8     -0.176000
     12 CAL         4.4040    1.1700    1.6930 cc        1 LX8     -0.016200
     13 CAM         8.7270    3.7310    2.5620 c3        1 LX8     -0.040100
     14 OAN        11.0080    5.2870    1.8860 os        1 LX8     -0.457900
     15 OAO         7.4510    5.7960    2.4140 os        1 LX8     -0.309900
     16 OAP         3.2060    3.7230    1.5860 os        1 LX8     -0.325200
     17 CAQ        12.1370    5.6460    1.2060 c         1 LX8      0.645100
     18 CAR         7.2840    3.4650    2.2950 ca        1 LX8     -0.180300
     19 CAS         6.6060    4.7190    2.2190 ca        1 LX8      0.157100
     20 CAT         3.0710    1.2480    1.4630 cd        1 LX8     -0.183400
     21 CAU         2.4340    2.5670    1.4140 c         1 LX8      0.727800
     22 CAV         5.1950    2.3560    1.8830 ca        1 LX8     -0.188800
     23 CAW         4.5550    3.6080    1.8170 ca        1 LX8      0.186100
     24 CAX         8.7980    5.2720    2.6410 c3        1 LX8      0.136100
     25 CAY         2.1900    0.0430    1.2410 c3        1 LX8      0.040400
     26 CAZ         9.7420    5.9320    1.6070 c3        1 LX8      0.170800
     27 HAA         0.1190    0.0640   -1.6060 ha        1 LX8      0.116000
     28 HAAA       -0.4300    0.0340    0.1610 ha        1 LX8      0.116000
     29 HAB        13.0600    4.1470    2.4630 hc        1 LX8      0.076033
     30 HABA       13.7620    4.3300    0.7880 hc        1 LX8      0.076033
     31 HABB       14.0920    5.5960    2.0550 hc        1 LX8      0.076033
     32 HAC         1.4830    0.0490    3.3000 hc        1 LX8      0.043867
     33 HACA        0.4320   -0.8680    2.1420 hc        1 LX8      0.043867
     34 HACB        0.4130    0.9480    2.1390 hc        1 LX8      0.043867
     35 HAD         3.4030   -1.3220    2.4430 hc        1 LX8      0.043867
     36 HADA        2.2850   -2.1270    1.2660 hc        1 LX8      0.043867
     37 HADB        3.7960   -1.3330    0.6660 hc        1 LX8      0.043867
     38 HAE        10.3020    7.6030    2.8820 hc        1 LX8      0.059367
     39 HAEA       10.4160    7.9410    1.1010 hc        1 LX8      0.059367
     40 HAEB        8.7850    7.8450    1.9070 hc        1 LX8      0.059367
     41 HAF         9.3930    4.5810   -0.0660 hc        1 LX8      0.059367
     42 HAFA        9.9360    6.2480   -0.5340 hc        1 LX8      0.059367
     43 HAFB        8.2360    5.9790    0.0590 hc        1 LX8      0.059367
     44 HAI         2.4930    0.1050   -0.9260 ha        1 LX8      0.118000
     45 HAJ         7.0860    1.3150    2.1810 ha        1 LX8      0.143000
     46 HAK         4.7250    5.7910    1.9260 ha        1 LX8      0.177000
     47 HAL         4.9350    0.2050    1.7430 ha        1 LX8      0.148000
     48 HAM         9.3850    3.3400    1.7470 hc        1 LX8      0.073700
     49 HAMA        9.0590    3.2760    3.5270 hc        1 LX8      0.073700
     50 HAX         9.0800    5.6150    3.6710 h1        1 LX8      0.080700
@<TRIPOS>BOND
     1    1    9 2   
     2    1   27 1   
     3    1   28 1   
     4    2   17 1   
     5    2   29 1   
     6    2   30 1   
     7    2   31 1   
     8    3   25 1   
     9    3   32 1   
    10    3   33 1   
    11    3   34 1   
    12    4   25 1   
    13    4   35 1   
    14    4   36 1   
    15    4   37 1   
    16    5   26 1   
    17    5   38 1   
    18    5   39 1   
    19    5   40 1   
    20    6   26 1   
    21    6   41 1   
    22    6   42 1   
    23    6   43 1   
    24    7   17 2   
    25    8   21 2   
    26    9   25 1   
    27    9   44 1   
    28   10   18 ar  
    29   10   22 ar  
    30   10   45 1   
    31   11   19 ar  
    32   11   23 ar  
    33   11   46 1   
    34   12   20 2   
    35   12   22 1   
    36   12   47 1   
    37   13   18 1   
    38   13   24 1   
    39   13   48 1   
    40   13   49 1   
    41   14   17 1   
    42   14   26 1   
    43   15   19 1   
    44   15   24 1   
    45   16   21 1   
    46   16   23 1   
    47   18   19 ar  
    48   20   21 1   
    49   20   25 1   
    50   22   23 ar  
    51   24   26 1   
    52   24   50 1   
@<TRIPOS>SUBSTRUCTURE
     1 LX8         1 TEMP              0 ****  ****    0 ROOT
