@<TRIPOS>MOLECULE
LX8
   50    52     1     0     0
SMALL
bcc


@<TRIPOS>ATOM
      1 CAA         0.4080    0.0580   -0.5540 c2        1 LX8     -0.195000
      2 CAB        13.3310    4.8800    1.6620 c3        1 LX8     -0.152100
      3 CAC         1.0630    0.0390    2.2590 c3        1 LX8     -0.093100
      4 CAD         2.9750   -1.2610    1.3980 c3        1 LX8     -0.093100
      5 CAE         9.8180    7.4240    1.9070 c3        1 LX8     -0.123600
      6 CAF         9.2990    5.6740    0.1860 c3        1 LX8     -0.123600
      7 OAG        12.0840    6.5200    0.3400 o         1 LX8     -0.540000
      8 OAH         1.2590    2.8850    1.2490 o         1 LX8     -0.560500
      9 CAI         1.6850    0.0800   -0.1830 c2        1 LX8     -0.170200
     10 CAJ         6.5880    2.2910    2.1230 ca        1 LX8     -0.029000
     11 CAK         5.2490    4.8260    1.9930 ca        1 LX8     -0.176000
     12 CAL         4.4060    1.1670    1.6860 cc        1 LX8     -0.016200
     13 CAM         8.7280    3.7270    2.5610 c3        1 LX8     -0.040100
     14 OAN        11.0080    5.2870    1.8900 os        1 LX8     -0.457900
     15 OAO         7.4510    5.7920    2.4250 os        1 LX8     -0.309900
     16 OAP         3.2060    3.7200    1.5930 os        1 LX8     -0.325200
     17 CAQ        12.1350    5.6510    1.2100 c         1 LX8      0.645100
     18 CAR         7.2850    3.4620    2.2950 ca        1 LX8     -0.180300
     19 CAS         6.6060    4.7150    2.2260 ca        1 LX8      0.157100
     20 CAT         3.0720    1.2460    1.4580 cd        1 LX8     -0.183400
     21 CAU         2.4340    2.5650    1.4170 c         1 LX8      0.727800
     22 CAV         5.1970    2.3540    1.8810 ca        1 LX8     -0.188800
     23 CAW         4.5550    3.6060    1.8210 ca        1 LX8      0.186100
     24 CAX         8.7990    5.2670    2.6480 c3        1 LX8      0.136100
     25 CAY         2.1920    0.0420    1.2310 c3        1 LX8      0.040400
     26 CAZ         9.7410    5.9330    1.6150 c3        1 LX8      0.170800
     27 HAA         0.1170    0.0760   -1.6130 ha        1 LX8      0.116000
     28 HAAA       -0.4300    0.0360    0.1540 ha        1 LX8      0.116000
     29 HAB        13.0620    4.1470    2.4590 hc        1 LX8      0.076033
     30 HABA       14.0910    5.5980    2.0570 hc        1 LX8      0.076033
     31 HABB       13.7610    4.3380    0.7850 hc        1 LX8      0.076033
     32 HAC         0.4150    0.9410    2.1360 hc        1 LX8      0.043867
     33 HACA        1.4870    0.0370    3.2910 hc        1 LX8      0.043867
     34 HACB        0.4350   -0.8750    2.1300 hc        1 LX8      0.043867
     35 HAD         3.7980   -1.3310    0.6470 hc        1 LX8      0.043867
     36 HADA        3.4070   -1.3290    2.4250 hc        1 LX8      0.043867
     37 HADB        2.2880   -2.1280    1.2450 hc        1 LX8      0.043867
     38 HAE        10.4130    7.9440    1.1190 hc        1 LX8      0.059367
     39 HAEA       10.3010    7.5980    2.8980 hc        1 LX8      0.059367
     40 HAEB        8.7830    7.8440    1.9260 hc        1 LX8      0.059367
     41 HAF         9.3910    4.5900   -0.0630 hc        1 LX8      0.059367
     42 HAFA        9.9320    6.2590   -0.5240 hc        1 LX8      0.059367
     43 HAFB        8.2330    5.9870    0.0700 hc        1 LX8      0.059367
     44 HAI         2.4910    0.1150   -0.9360 ha        1 LX8      0.118000
     45 HAJ         7.0880    1.3120    2.1710 ha        1 LX8      0.143000
     46 HAK         4.7240    5.7880    1.9410 ha        1 LX8      0.177000
     47 HAL         4.9370    0.2030    1.7300 ha        1 LX8      0.148000
     48 HAM         9.3850    3.3400    1.7440 hc        1 LX8      0.073700
     49 HAMA        9.0620    3.2680    3.5240 hc        1 LX8      0.073700
     50 HAX         9.0820    5.6060    3.6800 h1        1 LX8      0.080700
@<TRIPOS>BOND
     1    1    9 2   
     2    1   27 1   
     3    1   28 1   
     4    2   17 1   
     5    2   29 1   
     6    2   30 1   
     7    2   31 1   
     8    3   25 1   
     9    3   32 1   
    10    3   33 1   
    11    3   34 1   
    12    4   25 1   
    13    4   35 1   
    14    4   36 1   
    15    4   37 1   
    16    5   26 1   
    17    5   38 1   
    18    5   39 1   
    19    5   40 1   
    20    6   26 1   
    21    6   41 1   
    22    6   42 1   
    23    6   43 1   
    24    7   17 2   
    25    8   21 2   
    26    9   25 1   
    27    9   44 1   
    28   10   18 ar  
    29   10   22 ar  
    30   10   45 1   
    31   11   19 ar  
    32   11   23 ar  
    33   11   46 1   
    34   12   20 2   
    35   12   22 1   
    36   12   47 1   
    37   13   18 1   
    38   13   24 1   
    39   13   48 1   
    40   13   49 1   
    41   14   17 1   
    42   14   26 1   
    43   15   19 1   
    44   15   24 1   
    45   16   21 1   
    46   16   23 1   
    47   18   19 ar  
    48   20   21 1   
    49   20   25 1   
    50   22   23 ar  
    51   24   26 1   
    52   24   50 1   
@<TRIPOS>SUBSTRUCTURE
     1 LX8         1 TEMP              0 ****  ****    0 ROOT
