@<TRIPOS>MOLECULE
LX9
   54    59     1     0     0
SMALL
bcc


@<TRIPOS>ATOM
      1 N1          0.0540    0.6920   -0.0150 na        1 LX9      0.239300
      2 N2          1.3510    0.9620    0.0200 nc        1 LX9     -0.439800
      3 C3          1.7350    0.7660    1.3380 cd        1 LX9      0.276200
      4 C4          0.6060    0.3580    2.1520 cd        1 LX9     -0.142300
      5 C5         -0.4630    0.3230    1.2390 cc        1 LX9     -0.094300
      6 C7          0.6250    0.0730    3.5650 ca        1 LX9     -0.043000
      7 C8          1.5180   -0.8820    4.0780 ca        1 LX9     -0.169000
      8 C10         1.5380   -1.1650    5.4450 ca        1 LX9     -0.030300
      9 C11         0.6690   -0.4740    6.3050 ca        1 LX9     -0.113600
     10 C12        -0.2250    0.4710    5.7970 ca        1 LX9     -0.057000
     11 C14        -0.2500    0.7440    4.4300 ca        1 LX9     -0.116000
     12 C16         0.6700   -0.7550    7.7710 c         1 LX9      0.703100
     13 N17         1.6780   -1.5540    8.2670 n         1 LX9     -0.567900
     14 C19         2.7820   -1.9860    7.4620 c3        1 LX9      0.103000
     15 C22         2.4300   -2.2230    5.9900 c3        1 LX9     -0.062100
     16 O25        -0.2110   -0.3030    8.5270 o         1 LX9     -0.615500
     17 N26         3.0750    0.9700    1.8340 n4        1 LX9     -0.768300
     18 C29        -0.7420    0.7740   -1.2120 ca        1 LX9     -0.041200
     19 C30        -0.2130    0.3560   -2.4440 ca        1 LX9     -0.097000
     20 C32        -1.0090    0.4250   -3.5970 cp        1 LX9      0.004000
     21 C33        -2.3210    0.9080   -3.5030 ca        1 LX9     -0.095000
     22 C35        -2.8340    1.3250   -2.2760 ca        1 LX9     -0.108000
     23 C37        -2.0570    1.2690   -1.1220 ca        1 LX9     -0.127000
     24 C39        -0.4640   -0.0090   -4.8830 cp        1 LX9     -0.061000
     25 C40        -1.2560   -0.7640   -5.7480 ca        1 LX9     -0.116000
     26 C42        -0.6980   -1.1610   -6.9700 ca        1 LX9     -0.052200
     27 N43        -1.2310   -1.9130   -8.0180 na        1 LX9     -0.189400
     28 C45        -0.2610   -2.0230   -9.0180 cc        1 LX9     -0.086100
     29 C47         0.9020   -1.3580   -8.6360 cd        1 LX9     -0.189200
     30 C49         0.6580   -0.7940   -7.3300 ca        1 LX9     -0.075800
     31 C50         1.4170   -0.0320   -6.4410 ca        1 LX9     -0.078000
     32 C52         0.8580    0.3500   -5.2330 ca        1 LX9     -0.147000
     33 H5         -1.5130    0.0550    1.3820 h4        1 LX9      0.220000
     34 H8          2.1640   -1.4560    3.3970 ha        1 LX9      0.128000
     35 H12        -0.9130    0.9890    6.4900 ha        1 LX9      0.184000
     36 H14        -0.9600    1.4840    4.0310 ha        1 LX9      0.152000
     37 HN17        1.7060   -1.7360    9.2440 hn        1 LX9      0.341500
     38 H19         3.1850   -2.9480    7.8930 h1        1 LX9      0.050700
     39 H19A        3.6100   -1.2170    7.5140 h1        1 LX9      0.050700
     40 H22         3.3850   -2.2800    5.4050 hc        1 LX9      0.071200
     41 H22A        1.9090   -3.2140    5.8800 hc        1 LX9      0.071200
     42 HN26        3.0930    0.6500    2.8150 hn        1 LX9      0.470467
     43 HN2A        3.7490    0.4310    1.2780 hn        1 LX9      0.470467
     44 H30         0.8160   -0.0310   -2.5260 ha        1 LX9      0.161000
     45 H33        -2.9460    0.9680   -4.4090 ha        1 LX9      0.160000
     46 H35        -3.8650    1.7110   -2.2150 ha        1 LX9      0.157000
     47 H37        -2.4750    1.6170   -0.1650 ha        1 LX9      0.147000
     48 H40        -2.2820   -1.0460   -5.4760 ha        1 LX9      0.136000
     49 H45        -0.4750   -2.5750   -9.9370 h4        1 LX9      0.176000
     50 H47         1.8210   -1.2730   -9.2080 ha        1 LX9      0.166000
     51 H50         2.4440    0.2610   -6.7050 ha        1 LX9      0.142000
     52 H52         1.4450    0.9620   -4.5320 ha        1 LX9      0.127000
     53 HN43       -2.1430   -2.2840   -8.0510 hn        1 LX9      0.304700
     54 H263        3.3180    1.9680    1.7880 hn        1 LX9      0.470467
@<TRIPOS>BOND
     1    1    2 1   
     2    1    5 1   
     3    1   18 1   
     4    2    3 2   
     5    3    4 1   
     6    3   17 1   
     7    4    5 2   
     8    4    6 1   
     9    5   33 1   
    10    6    7 ar  
    11    6   11 ar  
    12    7    8 ar  
    13    7   34 1   
    14    8    9 ar  
    15    8   15 1   
    16    9   10 ar  
    17    9   12 1   
    18   10   11 ar  
    19   10   35 1   
    20   11   36 1   
    21   12   13 1   
    22   12   16 2   
    23   13   14 1   
    24   13   37 1   
    25   14   15 1   
    26   14   38 1   
    27   14   39 1   
    28   15   40 1   
    29   15   41 1   
    30   17   42 1   
    31   17   43 1   
    32   17   54 1   
    33   18   19 ar  
    34   18   23 ar  
    35   19   20 ar  
    36   19   44 1   
    37   20   21 ar  
    38   20   24 1   
    39   21   22 ar  
    40   21   45 1   
    41   22   23 ar  
    42   22   46 1   
    43   23   47 1   
    44   24   25 ar  
    45   24   32 ar  
    46   25   26 ar  
    47   25   48 1   
    48   26   27 1   
    49   26   30 ar  
    50   27   28 1   
    51   27   53 1   
    52   28   29 2   
    53   28   49 1   
    54   29   30 1   
    55   29   50 1   
    56   30   31 ar  
    57   31   32 ar  
    58   31   51 1   
    59   32   52 1   
@<TRIPOS>SUBSTRUCTURE
     1 LX9         1 TEMP              0 ****  ****    0 ROOT
