@<TRIPOS>MOLECULE
LX9
   53    58     1     0     0
SMALL
bcc


@<TRIPOS>ATOM
      1 N1          0.1120    0.5570   -0.0180 na        1 LX9      0.163300
      2 N2          1.4630    0.5970   -0.0320 nc        1 LX9     -0.554800
      3 C3          1.8720    0.3810    1.2660 cd        1 LX9      0.533200
      4 C4          0.6970    0.2100    2.1320 cd        1 LX9     -0.253300
      5 C5         -0.3990    0.3310    1.2630 cc        1 LX9     -0.091300
      6 C7          0.6650   -0.0180    3.5510 ca        1 LX9      0.038000
      7 C8          1.5740   -0.8960    4.1610 ca        1 LX9     -0.143000
      8 C10         1.5370   -1.1080    5.5410 ca        1 LX9     -0.042300
      9 C11         0.5810   -0.4390    6.3220 ca        1 LX9     -0.146600
     10 C12        -0.3360    0.4260    5.7180 ca        1 LX9     -0.067000
     11 C14        -0.2940    0.6350    4.3430 ca        1 LX9     -0.148000
     12 C16         0.5270   -0.6450    7.7930 c         1 LX9      0.712100
     13 N17         1.5540   -1.3610    8.3790 n         1 LX9     -0.574900
     14 C19         2.7310   -1.7420    7.6530 c3        1 LX9      0.104000
     15 C22         2.4750   -2.0680    6.1790 c3        1 LX9     -0.053100
     16 O25        -0.4080   -0.2170    8.5020 o         1 LX9     -0.648500
     17 N26         3.1960    0.2700    1.6910 nh        1 LX9     -0.889500
     18 C29        -0.6860    0.6940   -1.1890 ca        1 LX9      0.025800
     19 C30        -0.1870    0.3100   -2.4490 ca        1 LX9     -0.110000
     20 C32        -0.9880    0.4440   -3.5900 cp        1 LX9     -0.016000
     21 C33        -2.2870    0.9560   -3.4730 ca        1 LX9     -0.128000
     22 C35        -2.7760    1.3390   -2.2270 ca        1 LX9     -0.115000
     23 C37        -1.9910    1.2200   -1.0840 ca        1 LX9     -0.152000
     24 C39        -0.4650    0.0460   -4.8980 cp        1 LX9     -0.031000
     25 C40        -1.2820   -0.6530   -5.7850 ca        1 LX9     -0.130000
     26 C42        -0.7440   -1.0160   -7.0270 ca        1 LX9     -0.050200
     27 N43        -1.3100   -1.7090   -8.1010 na        1 LX9     -0.195400
     28 C45        -0.3490   -1.8150   -9.1100 cc        1 LX9     -0.104100
     29 C47         0.8340   -1.1960   -8.7140 cd        1 LX9     -0.188200
     30 C49         0.6160   -0.6740   -7.3850 ca        1 LX9     -0.087800
     31 C50         1.4030    0.0290   -6.4730 ca        1 LX9     -0.083000
     32 C52         0.8650    0.3800   -5.2460 ca        1 LX9     -0.143000
     33 H5         -1.4670    0.2540    1.4660 h4        1 LX9      0.183000
     34 H8          2.3070   -1.4440    3.5480 ha        1 LX9      0.152000
     35 H12        -1.0870    0.9340    6.3450 ha        1 LX9      0.160000
     36 H14        -1.0140    1.3190    3.8700 ha        1 LX9      0.137000
     37 HN17        1.5630   -1.4540    9.3680 hn        1 LX9      0.323500
     38 H19         3.4960   -0.9120    7.7090 h1        1 LX9      0.038700
     39 H19A        3.1780   -2.6490    8.1510 h1        1 LX9      0.038700
     40 H22         3.4620   -2.0700    5.6440 hc        1 LX9      0.065200
     41 H22A        2.0420   -3.1020    6.0900 hc        1 LX9      0.065200
     42 HN26        3.3070    0.5850    2.6330 hn        1 LX9      0.394800
     43 HN2A        3.8620    0.6740    1.0660 hn        1 LX9      0.394800
     44 H30         0.8310   -0.1020   -2.5510 ha        1 LX9      0.166000
     45 H33        -2.9150    1.0650   -4.3700 ha        1 LX9      0.140000
     46 H35        -3.7950    1.7480   -2.1410 ha        1 LX9      0.138000
     47 H37        -2.3940    1.5450   -0.1140 ha        1 LX9      0.139000
     48 H40        -2.3130   -0.9190   -5.5130 ha        1 LX9      0.135000
     49 H45        -0.5850   -2.3280  -10.0450 h4        1 LX9      0.165000
     50 H47         1.7510   -1.1150   -9.2880 ha        1 LX9      0.158000
     51 H50         2.4380    0.2990   -6.7300 ha        1 LX9      0.137000
     52 H52         1.4760    0.9380   -4.5210 ha        1 LX9      0.138000
     53 HN43       -2.2190   -2.0840   -8.1230 hn        1 LX9      0.298700
@<TRIPOS>BOND
     1    1    2 1   
     2    1    5 1   
     3    1   18 1   
     4    2    3 2   
     5    3    4 1   
     6    3   17 1   
     7    4    5 2   
     8    4    6 1   
     9    5   33 1   
    10    6    7 ar  
    11    6   11 ar  
    12    7    8 ar  
    13    7   34 1   
    14    8    9 ar  
    15    8   15 1   
    16    9   10 ar  
    17    9   12 1   
    18   10   11 ar  
    19   10   35 1   
    20   11   36 1   
    21   12   13 1   
    22   12   16 2   
    23   13   14 1   
    24   13   37 1   
    25   14   15 1   
    26   14   38 1   
    27   14   39 1   
    28   15   40 1   
    29   15   41 1   
    30   17   42 1   
    31   17   43 1   
    32   18   19 ar  
    33   18   23 ar  
    34   19   20 ar  
    35   19   44 1   
    36   20   21 ar  
    37   20   24 1   
    38   21   22 ar  
    39   21   45 1   
    40   22   23 ar  
    41   22   46 1   
    42   23   47 1   
    43   24   25 ar  
    44   24   32 ar  
    45   25   26 ar  
    46   25   48 1   
    47   26   27 1   
    48   26   30 ar  
    49   27   28 1   
    50   27   53 1   
    51   28   29 2   
    52   28   49 1   
    53   29   30 1   
    54   29   50 1   
    55   30   31 ar  
    56   31   32 ar  
    57   31   51 1   
    58   32   52 1   
@<TRIPOS>SUBSTRUCTURE
     1 LX9         1 TEMP              0 ****  ****    0 ROOT
