@<TRIPOS>MOLECULE
LX9
   53    58     1     0     0
SMALL
bcc


@<TRIPOS>ATOM
      1 N1          0.0640   -0.3660   -0.6930 na        1 LX9      0.163300
      2 N2         -0.0840    0.9200   -1.0840 nc        1 LX9     -0.554800
      3 C3         -1.4230    1.2160   -0.9450 cd        1 LX9      0.533200
      4 C4         -2.1410    0.0340   -0.4490 cd        1 LX9     -0.253300
      5 C5         -1.1470   -0.9450   -0.3050 cc        1 LX9     -0.091300
      6 C7         -3.5470   -0.1010   -0.1800 ca        1 LX9      0.038000
      7 C8         -4.2650    0.9280    0.4490 ca        1 LX9     -0.143000
      8 C10        -5.6310    0.7870    0.7020 ca        1 LX9     -0.042300
      9 C11        -6.2900   -0.3950    0.3270 ca        1 LX9     -0.146600
     10 C12        -5.5770   -1.4290   -0.2870 ca        1 LX9     -0.067000
     11 C14        -4.2170   -1.2840   -0.5380 ca        1 LX9     -0.148000
     12 C16        -7.7440   -0.5640    0.5820 c         1 LX9      0.712100
     13 N17        -8.4510    0.5400    1.0230 n         1 LX9     -0.574900
     14 C19        -7.8720    1.8510    1.0640 c3        1 LX9      0.104000
     15 C22        -6.3790    1.8630    1.4030 c3        1 LX9     -0.053100
     16 O25        -8.3350   -1.6540    0.4330 o         1 LX9     -0.648500
     17 N26        -2.0030    2.4640   -1.1700 nh        1 LX9     -0.889500
     18 C29         1.3230   -1.0300   -0.6510 ca        1 LX9      0.025800
     19 C30         2.5130   -0.3050   -0.4490 ca        1 LX9     -0.110000
     20 C32         3.7420   -0.9740   -0.4030 cp        1 LX9     -0.016000
     21 C33         3.7830   -2.3660   -0.5530 ca        1 LX9     -0.128000
     22 C35         2.6050   -3.0810   -0.7570 ca        1 LX9     -0.115000
     23 C37         1.3770   -2.4310   -0.8130 ca        1 LX9     -0.152000
     24 C39         4.9770   -0.2160   -0.1950 cp        1 LX9     -0.031000
     25 C40         5.9550   -0.7110    0.6660 ca        1 LX9     -0.130000
     26 C42         7.1230    0.0450    0.8380 ca        1 LX9     -0.050200
     27 N43         8.2550   -0.1900    1.6220 na        1 LX9     -0.195400
     28 C45         9.1420    0.8760    1.4430 cc        1 LX9     -0.104100
     29 C47         8.6080    1.7990    0.5480 cd        1 LX9     -0.188200
     30 C49         7.3150    1.2990    0.1410 ca        1 LX9     -0.087800
     31 C50         6.3160    1.7610   -0.7160 ca        1 LX9     -0.083000
     32 C52         5.1630    1.0100   -0.8760 ca        1 LX9     -0.143000
     33 H5         -1.2200   -1.9720    0.0540 h4        1 LX9      0.183000
     34 H8         -3.7460    1.8450    0.7680 ha        1 LX9      0.152000
     35 H12        -6.1080   -2.3550   -0.5640 ha        1 LX9      0.160000
     36 H14        -3.6580   -2.0980   -1.0240 ha        1 LX9      0.137000
     37 HN17       -9.4340    0.4580    1.1380 hn        1 LX9      0.323500
     38 H19        -8.0170    2.3610    0.0650 h1        1 LX9      0.038700
     39 H19A       -8.4230    2.4590    1.8370 h1        1 LX9      0.038700
     40 H22        -6.2420    1.7280    2.5110 hc        1 LX9      0.065200
     41 H22A       -5.9670    2.8710    1.1330 hc        1 LX9      0.065200
     42 HN26       -1.4620    3.0690   -1.7520 hn        1 LX9      0.394800
     43 HN2A       -2.9510    2.3780   -1.4770 hn        1 LX9      0.394800
     44 H30         2.4910    0.7900   -0.3210 ha        1 LX9      0.166000
     45 H33         4.7490   -2.8920   -0.5210 ha        1 LX9      0.140000
     46 H35         2.6430   -4.1740   -0.8830 ha        1 LX9      0.138000
     47 H37         0.4620   -3.0150   -0.9930 ha        1 LX9      0.139000
     48 H40         5.8090   -1.6590    1.2010 ha        1 LX9      0.135000
     49 H45        10.0980    0.8930    1.9700 h4        1 LX9      0.165000
     50 H47         9.0680    2.7230    0.2120 ha        1 LX9      0.158000
     51 H50         6.4480    2.7100   -1.2550 ha        1 LX9      0.137000
     52 H52         4.3710    1.3640   -1.5530 ha        1 LX9      0.138000
     53 HN43        8.3860   -0.9590    2.2220 hn        1 LX9      0.298700
@<TRIPOS>BOND
     1    1    2 1   
     2    1    5 1   
     3    1   18 1   
     4    2    3 2   
     5    3    4 1   
     6    3   17 1   
     7    4    5 2   
     8    4    6 1   
     9    5   33 1   
    10    6    7 ar  
    11    6   11 ar  
    12    7    8 ar  
    13    7   34 1   
    14    8    9 ar  
    15    8   15 1   
    16    9   10 ar  
    17    9   12 1   
    18   10   11 ar  
    19   10   35 1   
    20   11   36 1   
    21   12   13 1   
    22   12   16 2   
    23   13   14 1   
    24   13   37 1   
    25   14   15 1   
    26   14   38 1   
    27   14   39 1   
    28   15   40 1   
    29   15   41 1   
    30   17   42 1   
    31   17   43 1   
    32   18   19 ar  
    33   18   23 ar  
    34   19   20 ar  
    35   19   44 1   
    36   20   21 ar  
    37   20   24 1   
    38   21   22 ar  
    39   21   45 1   
    40   22   23 ar  
    41   22   46 1   
    42   23   47 1   
    43   24   25 ar  
    44   24   32 ar  
    45   25   26 ar  
    46   25   48 1   
    47   26   27 1   
    48   26   30 ar  
    49   27   28 1   
    50   27   53 1   
    51   28   29 2   
    52   28   49 1   
    53   29   30 1   
    54   29   50 1   
    55   30   31 ar  
    56   31   32 ar  
    57   31   51 1   
    58   32   52 1   
@<TRIPOS>SUBSTRUCTURE
     1 LX9         1 TEMP              0 ****  ****    0 ROOT
