@<TRIPOS>MOLECULE
LX9
   53    42     1     0     0
SMALL
bcc


@<TRIPOS>ATOM
      1 N1          0.5440   -0.7940   -0.6550 n3        1 LX9     -0.076000
      2 N2          1.9130   -0.8630   -0.6510 n2        1 LX9     -0.122000
      3 C3          2.3270   -0.8660    0.6390 c1        1 LX9      0.013000
      4 C4          1.2330   -0.7990    1.4280 c2        1 LX9     -0.188000
      5 C5          0.1290   -0.7550    0.6200 c1        1 LX9     -0.067000
      6 C7          1.2270   -0.8210    2.8640 c1        1 LX9      0.037000
      7 C8          1.3790   -2.0350    3.5460 c1        1 LX9     -0.143000
      8 C10         1.3250   -2.0640    4.9380 c1        1 LX9     -0.035000
      9 C11         1.1120   -0.8500    5.6700 c1        1 LX9     -0.125000
     10 C12         0.9630    0.3470    4.9920 c1        1 LX9     -0.067000
     11 C14         1.0190    0.3710    3.5820 c1        1 LX9     -0.147000
     12 C16         1.0880   -0.9480    7.2680 c2        1 LX9      0.348000
     13 N17         1.4330   -2.1400    7.8180 n         1 LX9     -0.383000
     14 C19         1.0270   -3.3000    7.1600 c3        1 LX9     -0.013000
     15 C22         1.3660   -3.3990    5.7560 c3        1 LX9     -0.139000
     16 O25         1.1530    0.0790    7.9460 o         1 LX9     -0.372000
     17 N26         3.7000   -0.8940    1.0980 n2        1 LX9     -0.288000
     18 C29        -0.2550   -0.8430   -1.7490 c1        1 LX9      0.072000
     19 C30        -0.3690    0.2640   -2.5720 c1        1 LX9     -0.127667
     20 C32        -1.1880    0.2170   -3.6870 c1        1 LX9     -0.017333
     21 C33        -1.9020   -0.9520   -3.9830 c1        1 LX9     -0.121500
     22 C35        -1.7880   -2.0610   -3.1590 c1        1 LX9     -0.121500
     23 C37        -0.9680   -2.0120   -2.0440 c1        1 LX9     -0.152000
     24 C39        -1.2770    1.3190   -4.5300 c1        1 LX9     -0.017333
     25 C40        -2.3650    2.1900   -4.3560 c1        1 LX9     -0.127667
     26 C42        -2.4640    3.3580   -5.1360 c1        1 LX9     -0.017333
     27 N43        -3.4270    4.3600   -5.1830 n1        1 LX9     -0.218000
     28 C45        -3.0520    5.2690   -6.1460 c1        1 LX9     -0.077000
     29 C47        -1.8490    4.8320   -6.7020 c1        1 LX9     -0.200000
     30 C49        -1.4930    3.6500   -6.0720 c1        1 LX9     -0.076000
     31 C50        -0.3990    2.7760   -6.2480 c1        1 LX9     -0.083000
     32 C52        -0.2990    1.6110   -5.4720 c1        1 LX9     -0.127667
     33 H5         -0.7960   -0.7040    0.9200 DU        1 LX9      0.188500
     34 H8          1.5020   -2.8690    3.0420 ha        1 LX9      0.152000
     35 H12         0.8230    1.1540    5.4760 ha        1 LX9      0.160000
     36 H14         1.0230    1.1950    3.1280 ha        1 LX9      0.138000
     37 HN17        1.7270   -2.1810    8.7370 hn        1 LX9      0.237000
     38 H19         1.4320   -4.0300    7.5990 h1        1 LX9      0.079000
     39 H19A        0.0210   -3.3550    7.2360 h1        1 LX9      0.079000
     40 H22         2.2750   -3.7720    5.6860 hc        1 LX9      0.104000
     41 H22A        0.7250   -4.0500    5.3230 hc        1 LX9      0.104000
     42 HN26        3.8880   -0.9110    2.0290 hn        1 LX9      0.190500
     43 HN2A        4.4060   -0.8650    0.4770 hn        1 LX9      0.190500
     44 H30         0.1350    1.0890   -2.3620 ha        1 LX9      0.145667
     45 H33        -2.4660   -0.9830   -4.7500 ha        1 LX9      0.139000
     46 H35        -2.2960   -2.8920   -3.3680 ha        1 LX9      0.139000
     47 H37        -0.8870   -2.7900   -1.4650 ha        1 LX9      0.140000
     48 H40        -3.0290    2.0030   -3.6880 ha        1 LX9      0.145667
     49 H45        -3.5740    6.0430   -6.4390 DU        1 LX9      0.188500
     50 H47        -1.3450    5.2810   -7.4120 DU        1 LX9      0.188500
     51 H50         0.2850    2.9820   -6.9090 ha        1 LX9      0.137000
     52 H52         0.4890    1.0050   -5.5790 ha        1 LX9      0.145667
     53 HN43       -4.1820    4.4050   -4.6630 DU        1 LX9      0.188500
@<TRIPOS>BOND
     1    1    2 1   
     2    1    5 1   
     3    1   18 1   
     4    2    3 1   
     5    3    4 1   
     6    4    5 1   
     7    4    6 1   
     8    6   11 1   
     9    7    8 1   
    10    7   34 1   
    11    8   15 1   
    12    9   10 1   
    13    9   12 1   
    14   10   35 1   
    15   11   36 1   
    16   12   13 1   
    17   12   16 1   
    18   13   14 1   
    19   13   37 1   
    20   14   15 1   
    21   14   38 1   
    22   14   39 1   
    23   15   40 1   
    24   15   41 1   
    25   17   42 1   
    26   17   43 1   
    27   18   23 1   
    28   19   20 1   
    29   19   44 1   
    30   21   22 1   
    31   21   45 1   
    32   22   46 1   
    33   23   47 1   
    34   24   32 1   
    35   25   26 1   
    36   25   48 1   
    37   27   28 1   
    38   28   29 1   
    39   29   30 1   
    40   30   31 1   
    41   31   51 1   
    42   32   52 1   
@<TRIPOS>SUBSTRUCTURE
     1 LX9         1 TEMP              0 ****  ****    0 ROOT
