@<TRIPOS>MOLECULE
LX9
   53    58     1     0     0
SMALL
bcc


@<TRIPOS>ATOM
      1 N1          0.0970    0.5500   -0.0180 na        1 LX9      0.163300
      2 N2          1.4470    0.6120   -0.0320 nc        1 LX9     -0.554800
      3 C3          1.8590    0.4040    1.2670 cd        1 LX9      0.533200
      4 C4          0.6870    0.2130    2.1320 cd        1 LX9     -0.253300
      5 C5         -0.4100    0.3160    1.2630 cc        1 LX9     -0.091300
      6 C7          0.6590   -0.0160    3.5510 ca        1 LX9      0.038000
      7 C8          1.5820   -0.8790    4.1620 ca        1 LX9     -0.143000
      8 C10         1.5480   -1.0910    5.5410 ca        1 LX9     -0.042300
      9 C11         0.5820   -0.4380    6.3220 ca        1 LX9     -0.146600
     10 C12        -0.3490    0.4130    5.7180 ca        1 LX9     -0.067000
     11 C14        -0.3110    0.6220    4.3430 ca        1 LX9     -0.148000
     12 C16         0.5310   -0.6440    7.7930 c         1 LX9      0.712100
     13 N17         1.5700   -1.3440    8.3800 ns        1 LX9     -0.574900
     14 C19         2.7520   -1.7060    7.6530 c3        1 LX9      0.104000
     15 C22         2.5020   -2.0360    6.1790 c3        1 LX9     -0.053100
     16 O25        -0.4100   -0.2310    8.5020 o         1 LX9     -0.648500
     17 N26         3.1850    0.3140    1.6910 nv        1 LX9     -0.889500
     18 C29        -0.7030    0.6730   -1.1890 ca        1 LX9      0.025800
     19 C30        -0.1970    0.3000   -2.4490 ca        1 LX9     -0.110000
     20 C32        -0.9990    0.4210   -3.5900 cp        1 LX9     -0.016000
     21 C33        -2.3080    0.9090   -3.4730 ca        1 LX9     -0.128000
     22 C35        -2.8050    1.2810   -2.2270 ca        1 LX9     -0.115000
     23 C37        -2.0180    1.1750   -1.0840 ca        1 LX9     -0.152000
     24 C39        -0.4690    0.0350   -4.8990 cp        1 LX9     -0.031000
     25 C40        -1.2720   -0.6770   -5.7870 ca        1 LX9     -0.130000
     26 C42        -0.7270   -1.0280   -7.0300 ca        1 LX9     -0.050200
     27 N43        -1.2800   -1.7290   -8.1050 na        1 LX9     -0.195400
     28 C45        -0.3170   -1.8160   -9.1150 cc        1 LX9     -0.104100
     29 C47         0.8540   -1.1760   -8.7170 cd        1 LX9     -0.188200
     30 C49         0.6270   -0.6600   -7.3870 ca        1 LX9     -0.087800
     31 C50         1.4010    0.0560   -6.4730 ca        1 LX9     -0.083000
     32 C52         0.8550    0.3940   -5.2460 ca        1 LX9     -0.143000
     33 H5         -1.4770    0.2200    1.4650 h4        1 LX9      0.183000
     34 H8          2.3230   -1.4140    3.5490 ha        1 LX9      0.152000
     35 H12        -1.1080    0.9090    6.3450 ha        1 LX9      0.160000
     36 H14        -1.0420    1.2940    3.8690 ha        1 LX9      0.137000
     37 HN17        1.5800   -1.4360    9.3680 hn        1 LX9      0.323500
     38 H19         3.2140   -2.6060    8.1520 h1        1 LX9      0.038700
     39 H19A        3.5040   -0.8640    7.7090 h1        1 LX9      0.038700
     40 H22         2.0850   -3.0770    6.0900 hc        1 LX9      0.065200
     41 H22A        3.4880   -2.0230    5.6440 hc        1 LX9      0.065200
     42 HN26        3.8450    0.7300    1.0670 hn        1 LX9      0.394800
     43 HN2A        3.2910    0.6320    2.6330 hn        1 LX9      0.394800
     44 H30         0.8280   -0.0920   -2.5520 ha        1 LX9      0.166000
     45 H33        -2.9370    1.0080   -4.3700 ha        1 LX9      0.140000
     46 H35        -3.8300    1.6720   -2.1410 ha        1 LX9      0.138000
     47 H37        -2.4270    1.4920   -0.1140 ha        1 LX9      0.139000
     48 H40        -2.2980   -0.9620   -5.5170 ha        1 LX9      0.135000
     49 H45        -0.5430   -2.3310  -10.0500 h4        1 LX9      0.165000
     50 H47         1.7700   -1.0770   -9.2910 ha        1 LX9      0.158000
     51 H50         2.4300    0.3450   -6.7300 ha        1 LX9      0.137000
     52 H52         1.4560    0.9630   -4.5200 ha        1 LX9      0.138000
     53 HN43       -2.1820   -2.1210   -8.1290 hn        1 LX9      0.298700
@<TRIPOS>BOND
     1    1    2 1   
     2    1    5 1   
     3    1   18 1   
     4    2    3 2   
     5    3    4 1   
     6    3   17 1   
     7    4    5 2   
     8    4    6 1   
     9    5   33 1   
    10    6    7 ar  
    11    6   11 ar  
    12    7    8 ar  
    13    7   34 1   
    14    8    9 ar  
    15    8   15 1   
    16    9   10 ar  
    17    9   12 1   
    18   10   11 ar  
    19   10   35 1   
    20   11   36 1   
    21   12   13 1   
    22   12   16 2   
    23   13   14 1   
    24   13   37 1   
    25   14   15 1   
    26   14   38 1   
    27   14   39 1   
    28   15   40 1   
    29   15   41 1   
    30   17   42 1   
    31   17   43 1   
    32   18   19 ar  
    33   18   23 ar  
    34   19   20 ar  
    35   19   44 1   
    36   20   21 ar  
    37   20   24 1   
    38   21   22 ar  
    39   21   45 1   
    40   22   23 ar  
    41   22   46 1   
    42   23   47 1   
    43   24   25 ar  
    44   24   32 ar  
    45   25   26 ar  
    46   25   48 1   
    47   26   27 1   
    48   26   30 ar  
    49   27   28 1   
    50   27   53 1   
    51   28   29 2   
    52   28   49 1   
    53   29   30 1   
    54   29   50 1   
    55   30   31 ar  
    56   31   32 ar  
    57   31   51 1   
    58   32   52 1   
@<TRIPOS>SUBSTRUCTURE
     1 LX9         1 TEMP              0 ****  ****    0 ROOT
