@<TRIPOS>MOLECULE
LXB
   30    30     1     0     0
SMALL
bcc


@<TRIPOS>ATOM
      1 O1         -0.5610   -2.0070   -0.6270 oh        1 LXB     -0.575800
      2 C1          0.0200   -0.7460   -0.7320 c3        1 LXB      0.317900
      3 C2         -0.6970    0.3550    0.1050 c3        1 LXB      0.047700
      4 C3          0.1320    1.6570    0.0020 c3        1 LXB      0.101100
      5 C4          1.5960    1.3880    0.4140 c3        1 LXB      0.086100
      6 C5          2.1620    0.1900   -0.3590 c3        1 LXB      0.071100
      7 C6          3.5450   -0.2210    0.1530 c3        1 LXB      0.143400
      8 C8         -4.4580   -0.1280   -0.2810 c3        1 LXB     -0.171100
      9 N2         -2.0760    0.5410   -0.2570 n         1 LXB     -0.557900
     10 O3          0.0700    2.1010   -1.3450 oh        1 LXB     -0.603800
     11 O4          1.6790    1.2190    1.8150 oh        1 LXB     -0.584800
     12 O5          1.3230   -0.9520   -0.1810 os        1 LXB     -0.459600
     13 O6          4.1000   -1.2400   -0.6470 oh        1 LXB     -0.595800
     14 O7         -2.7740   -1.1590    1.1080 o         1 LXB     -0.616100
     15 HO1        -0.7420   -2.1860    0.3090 ho        1 LXB      0.432000
     16 H1          0.0710   -0.4920   -1.8260 h2        1 LXB      0.093700
     17 H2         -0.6670    0.0280    1.1900 h1        1 LXB      0.091700
     18 H3         -0.3000    2.4380    0.6890 h1        1 LXB      0.066700
     19 H4          2.2180    2.3030    0.2020 h1        1 LXB      0.082700
     20 H5          2.2110    0.4510   -1.4540 h1        1 LXB      0.072700
     21 H6          4.2540    0.6450    0.0680 h1        1 LXB      0.058700
     22 H6A         3.4710   -0.5520    1.2230 h1        1 LXB      0.058700
     23 H8         -5.1360   -0.8270    0.2680 hc        1 LXB      0.069700
     24 H8A        -4.8070    0.9200   -0.1190 hc        1 LXB      0.069700
     25 H8B        -4.4980   -0.3640   -1.3710 hc        1 LXB      0.069700
     26 HN2        -2.2530    1.0720   -1.0760 hn        1 LXB      0.320500
     27 HO3         0.4920    2.9690   -1.3740 ho        1 LXB      0.412000
     28 HO4         1.3560    0.3300    2.0170 ho        1 LXB      0.415000
     29 HO6         3.4810   -1.9820   -0.6310 ho        1 LXB      0.418000
     30 C7         -3.0550   -0.3090    0.2390 c         1 LXB      0.664100
@<TRIPOS>BOND
     1    1    2 1   
     2    1   15 1   
     3    2    3 1   
     4    2   12 1   
     5    2   16 1   
     6    3    4 1   
     7    3    9 1   
     8    3   17 1   
     9    4    5 1   
    10    4   10 1   
    11    4   18 1   
    12    5    6 1   
    13    5   11 1   
    14    5   19 1   
    15    6    7 1   
    16    6   12 1   
    17    6   20 1   
    18    7   13 1   
    19    7   21 1   
    20    7   22 1   
    21    8   23 1   
    22    8   24 1   
    23    8   25 1   
    24    8   30 1   
    25    9   26 1   
    26    9   30 1   
    27   10   27 1   
    28   11   28 1   
    29   13   29 1   
    30   14   30 2   
@<TRIPOS>SUBSTRUCTURE
     1 LXB         1 TEMP              0 ****  ****    0 ROOT
