@<TRIPOS>MOLECULE
LXC
   20    20     1     0     0
SMALL
bcc


@<TRIPOS>ATOM
      1 C5         -0.0520    0.0200    0.1020 c3        1 LXC      0.110400
      2 O5          1.3600    0.1390    0.1670 os        1 LXC     -0.449600
      3 C1          1.8770   -0.0030    1.4840 c3        1 LXC      0.305900
      4 O1          3.2670   -0.0190    1.2730 oh        1 LXC     -0.606800
      5 C2          1.4900   -1.3380    2.1590 c3        1 LXC      0.124100
      6 O2          1.8020   -1.2480    3.5380 oh        1 LXC     -0.582800
      7 C3         -0.0230   -1.5800    2.0610 c3        1 LXC      0.153100
      8 O3         -0.2440   -2.9330    2.4170 oh        1 LXC     -0.584800
      9 C4         -0.5030   -1.3470    0.6160 c3        1 LXC      0.065100
     10 O4         -1.9200   -1.4190    0.6670 oh        1 LXC     -0.598800
     11 H5C1       -0.5390    0.8400    0.6940 h1        1 LXC      0.060200
     12 H5C2       -0.2920    0.1420   -0.9880 h1        1 LXC      0.060200
     13 H1          1.5780    0.8760    2.1220 h2        1 LXC      0.054700
     14 HA          3.4600    0.5230    0.4950 ho        1 LXC      0.434000
     15 H2          2.0490   -2.1870    1.6790 h1        1 LXC      0.077700
     16 HB          2.7670   -1.2490    3.5970 ho        1 LXC      0.417000
     17 H3         -0.5720   -0.8970    2.7650 h1        1 LXC      0.068700
     18 HC         -1.2030   -3.0570    2.4180 ho        1 LXC      0.417000
     19 H4         -0.0980   -2.1630   -0.0460 h1        1 LXC      0.064700
     20 HD         -2.2350   -1.3860   -0.2440 ho        1 LXC      0.409000
@<TRIPOS>BOND
     1    1    2 1   
     2    1    9 1   
     3    1   11 1   
     4    1   12 1   
     5    2    3 1   
     6    3    4 1   
     7    3    5 1   
     8    3   13 1   
     9    4   14 1   
    10    5    6 1   
    11    5    7 1   
    12    5   15 1   
    13    6   16 1   
    14    7    8 1   
    15    7    9 1   
    16    7   17 1   
    17    8   18 1   
    18    9   10 1   
    19    9   19 1   
    20   10   20 1   
@<TRIPOS>SUBSTRUCTURE
     1 LXC         1 TEMP              0 ****  ****    0 ROOT
