@<TRIPOS>MOLECULE
LXC
   20    20     1     0     0
SMALL
bcc


@<TRIPOS>ATOM
      1 C5          1.7390   -0.3240    0.5920 c3        1 LXC      0.110400
      2 O5          1.6680    0.0820   -0.7660 os        1 LXC     -0.449600
      3 C1          0.4770   -0.3380   -1.4180 c3        1 LXC      0.305900
      4 O1          0.5580    0.3120   -2.6630 oh        1 LXC     -0.606800
      5 C2         -0.8140    0.1460   -0.7200 c3        1 LXC      0.124100
      6 O2         -1.9110   -0.5580   -1.2720 oh        1 LXC     -0.582800
      7 C3         -0.7800   -0.1870    0.7780 c3        1 LXC      0.153100
      8 O3         -1.8290    0.5470    1.3840 oh        1 LXC     -0.584800
      9 C4          0.5660    0.2490    1.3880 c3        1 LXC      0.065100
     10 O4          0.5680   -0.2580    2.7140 oh        1 LXC     -0.598800
     11 H5C1        2.7160    0.0910    0.9560 h1        1 LXC      0.060200
     12 H5C2        1.7490   -1.4430    0.6630 h1        1 LXC      0.060200
     13 H1          0.4730   -1.4570   -1.5490 h2        1 LXC      0.054700
     14 HA          1.4930    0.4050   -2.8940 ho        1 LXC      0.434000
     15 H2         -0.9360    1.2540   -0.8660 h1        1 LXC      0.077700
     16 HB         -2.0180   -0.2280   -2.1740 ho        1 LXC      0.417000
     17 H3         -0.9360   -1.2900    0.9350 h1        1 LXC      0.068700
     18 HC         -1.8430    0.2800    2.3130 ho        1 LXC      0.417000
     19 H4          0.6200    1.3730    1.4020 h1        1 LXC      0.064700
     20 HD          1.3520    0.0980    3.1480 ho        1 LXC      0.409000
@<TRIPOS>BOND
     1    1    2 1   
     2    1    9 1   
     3    1   11 1   
     4    1   12 1   
     5    2    3 1   
     6    3    4 1   
     7    3    5 1   
     8    3   13 1   
     9    4   14 1   
    10    5    6 1   
    11    5    7 1   
    12    5   15 1   
    13    6   16 1   
    14    7    8 1   
    15    7    9 1   
    16    7   17 1   
    17    8   18 1   
    18    9   10 1   
    19    9   19 1   
    20   10   20 1   
@<TRIPOS>SUBSTRUCTURE
     1 LXC         1 TEMP              0 ****  ****    0 ROOT
