@<TRIPOS>MOLECULE
LXC
   20    20     1     0     0
SMALL
bcc


@<TRIPOS>ATOM
      1 C5          0.0070    0.1770    0.0260 c3        1 LXC      0.138400
      2 O5          1.4080    0.2840    0.2380 os        1 LXC     -0.445600
      3 C1          1.8000    0.0620    1.5850 c3        1 LXC      0.308900
      4 O1          3.1950    0.1900    1.5370 oh        1 LXC     -0.597800
      5 C2          1.3810   -1.3440    2.0620 c3        1 LXC      0.053100
      6 O2          1.6400   -1.4980    3.4460 oh        1 LXC     -0.601800
      7 C3         -0.1300   -1.5280    1.8710 c3        1 LXC      0.108100
      8 O3         -0.5150   -2.8700    2.1070 oh        1 LXC     -0.606800
      9 C4         -0.5020   -1.2160    0.4110 c3        1 LXC      0.114100
     10 O4         -1.9080   -1.1940    0.2500 oh        1 LXC     -0.593800
     11 H5C1       -0.5350    0.9650    0.6110 h1        1 LXC      0.071200
     12 H5C2       -0.1230    0.3550   -1.0740 h1        1 LXC      0.071200
     13 H1          1.4170    0.8640    2.2750 h2        1 LXC      0.086700
     14 HA          3.5040   -0.1670    0.6910 ho        1 LXC      0.429000
     15 H2          1.9430   -2.1280    1.4830 h1        1 LXC      0.061700
     16 HB          2.5650   -1.2530    3.5830 ho        1 LXC      0.424000
     17 H3         -0.6890   -0.8470    2.5710 h1        1 LXC      0.064700
     18 HC         -0.2100   -3.0930    2.9970 ho        1 LXC      0.427000
     19 H4         -0.0520   -1.9990   -0.2610 h1        1 LXC      0.060700
     20 HD         -2.2310   -2.0480    0.5680 ho        1 LXC      0.425000
@<TRIPOS>BOND
     1    1    2 1   
     2    1    9 1   
     3    1   11 1   
     4    1   12 1   
     5    2    3 1   
     6    3    4 1   
     7    3    5 1   
     8    3   13 1   
     9    4   14 1   
    10    5    6 1   
    11    5    7 1   
    12    5   15 1   
    13    6   16 1   
    14    7    8 1   
    15    7    9 1   
    16    7   17 1   
    17    8   18 1   
    18    9   10 1   
    19    9   19 1   
    20   10   20 1   
@<TRIPOS>SUBSTRUCTURE
     1 LXC         1 TEMP              0 ****  ****    0 ROOT
