@<TRIPOS>MOLECULE
LXG
   43    46     1     0     0
SMALL
bcc


@<TRIPOS>ATOM
      1 C1         -0.0320   -1.5940    0.0220 c3        1 LXG      0.081600
      2 N1          0.9650   -0.5130    0.2460 n4        1 LXG     -0.672400
      3 O1          3.1450   -1.3750   -5.2590 o         1 LXG     -0.573500
      4 S1          0.9450    0.7740   -6.2750 ss        1 LXG      0.262500
      5 C2          1.4070   -0.4880    1.6650 c3        1 LXG      0.081600
      6 N2          0.9030    0.5550   -2.3890 nc        1 LXG     -0.604300
      7 C3          2.1490   -0.6690   -0.6600 c3        1 LXG      0.081500
      8 N3          2.5990   -1.0220   -3.0760 n         1 LXG     -0.476400
      9 C4          1.8370   -0.3520   -2.1240 cd        1 LXG      0.404900
     10 C5          0.6860    0.8480   -3.7230 cc        1 LXG      0.155400
     11 C6         -0.2710    1.7970   -4.2400 ca        1 LXG     -0.055800
     12 C7         -1.1710    2.6150   -3.5440 ca        1 LXG     -0.085000
     13 C8         -2.0030    3.4740   -4.2560 ca        1 LXG     -0.023800
     14 C9         -2.9540    4.3100   -3.5390 ce        1 LXG     -0.158200
     15 C10        -3.2060    5.6070   -3.7570 c2        1 LXG     -0.083200
     16 C11        -2.5450    6.4600   -4.7430 cx        1 LXG     -0.127500
     17 C12        -3.3890    7.3460   -5.6310 cx        1 LXG     -0.115400
     18 C13        -2.5620    7.9580   -4.5460 cx        1 LXG     -0.115400
     19 C14        -1.9410    3.4990   -5.6720 ca        1 LXG     -0.092000
     20 C15        -1.0600    2.6930   -6.3680 ca        1 LXG     -0.090000
     21 C16        -0.2070    1.8310   -5.6620 ca        1 LXG     -0.108100
     22 C17         1.4050    0.2330   -4.7750 cd        1 LXG     -0.241600
     23 C18         2.4290   -0.7560   -4.4600 c         1 LXG      0.739700
     24 H1         -0.3410   -1.5970   -1.0580 hx        1 LXG      0.108033
     25 H1A         0.4200   -2.5860    0.2890 hx        1 LXG      0.108033
     26 H1B        -0.9310   -1.4030    0.6680 hx        1 LXG      0.108033
     27 H2          0.5050   -0.3860    2.3280 hx        1 LXG      0.108033
     28 H2A         1.9460   -1.4410    1.9110 hx        1 LXG      0.108033
     29 H2B         2.0920    0.3870    1.8290 hx        1 LXG      0.108033
     30 H3          2.9500    0.0510   -0.3160 hx        1 LXG      0.116700
     31 H3A         2.5280   -1.7250   -0.5490 hx        1 LXG      0.116700
     32 H7         -1.2090    2.5800   -2.4460 ha        1 LXG      0.139000
     33 H9         -3.5000    3.7830   -2.7350 ha        1 LXG      0.129000
     34 H10        -3.9710    6.1160   -3.1400 ha        1 LXG      0.131000
     35 H11        -1.6290    6.0140   -5.1830 hc        1 LXG      0.086700
     36 H12        -3.0830    7.4780   -6.6840 hc        1 LXG      0.078450
     37 H12A       -4.4880    7.3220   -5.5200 hc        1 LXG      0.078450
     38 H13        -3.0680    8.3750   -3.6560 hc        1 LXG      0.078450
     39 H13A       -1.6580    8.5330   -4.8130 hc        1 LXG      0.078450
     40 H14        -2.6190    4.1750   -6.2190 ha        1 LXG      0.159000
     41 H15        -1.0240    2.7230   -7.4680 ha        1 LXG      0.153000
     42 H111        0.5080    0.3910    0.0330 hn        1 LXG      0.479800
     43 HN3         3.3100   -1.6640   -2.8020 hn        1 LXG      0.344500
@<TRIPOS>BOND
     1    1    2 1   
     2    1   24 1   
     3    1   25 1   
     4    1   26 1   
     5    2    5 1   
     6    2    7 1   
     7    2   42 1   
     8    3   23 2   
     9    4   21 1   
    10    4   22 1   
    11    5   27 1   
    12    5   28 1   
    13    5   29 1   
    14    6    9 2   
    15    6   10 1   
    16    7    9 1   
    17    7   30 1   
    18    7   31 1   
    19    8    9 1   
    20    8   23 1   
    21    8   43 1   
    22   10   11 1   
    23   10   22 2   
    24   11   12 ar  
    25   11   21 ar  
    26   12   13 ar  
    27   12   32 1   
    28   13   14 1   
    29   13   19 ar  
    30   14   15 2   
    31   14   33 1   
    32   15   16 1   
    33   15   34 1   
    34   16   17 1   
    35   16   18 1   
    36   16   35 1   
    37   17   18 1   
    38   17   36 1   
    39   17   37 1   
    40   18   38 1   
    41   18   39 1   
    42   19   20 ar  
    43   19   40 1   
    44   20   21 ar  
    45   20   41 1   
    46   22   23 1   
@<TRIPOS>SUBSTRUCTURE
     1 LXG         1 TEMP              0 ****  ****    0 ROOT
