@<TRIPOS>MOLECULE
LXG
   42    45     1     0     0
SMALL
bcc


@<TRIPOS>ATOM
      1 C1         -3.6450   -3.7430   -1.2580 c3        1 LXG      0.153600
      2 N1         -4.2830   -3.1340   -0.1120 n3        1 LXG     -0.753600
      3 O1         -4.0170    1.7090   -1.3870 o         1 LXG     -0.627500
      4 S1         -0.8810    2.5120   -1.2630 ss        1 LXG      0.141500
      5 C2         -5.1930   -4.0260    0.5720 c3        1 LXG      0.153600
      6 N2         -1.4280   -1.0200    0.3160 nc        1 LXG     -0.608300
      7 C3         -3.3400   -2.4980    0.7930 c3        1 LXG      0.127500
      8 N3         -3.6280   -0.2950   -0.3570 n         1 LXG     -0.462400
      9 C4         -2.7420   -1.2090    0.2070 cd        1 LXG      0.483900
     10 C5         -0.9400    0.1780   -0.1720 cc        1 LXG      0.201400
     11 C6          0.4480    0.5930   -0.1540 ca        1 LXG     -0.072800
     12 C7          1.5590   -0.0970    0.3420 ca        1 LXG     -0.055000
     13 C8          2.8230    0.4880    0.2550 ca        1 LXG     -0.064800
     14 C9          3.9730   -0.2350    0.7710 ce        1 LXG     -0.117200
     15 C10         5.2450   -0.0160    0.4070 c2        1 LXG     -0.124200
     16 C11         6.3700   -0.7740    0.9550 cx        1 LXG     -0.099500
     17 C12         7.5400   -1.1050    0.0570 cx        1 LXG     -0.124400
     18 C13         7.7010   -0.0830    1.1390 cx        1 LXG     -0.124400
     19 C14         2.9580    1.7720   -0.3230 ca        1 LXG     -0.097000
     20 C15         1.8640    2.4620   -0.8140 ca        1 LXG     -0.108000
     21 C16         0.5910    1.8820   -0.7400 ca        1 LXG     -0.077100
     22 C17        -1.7500    1.1680   -0.7640 cd        1 LXG     -0.254600
     23 C18        -3.1820    0.9370   -0.8820 c         1 LXG      0.731700
     24 H1         -3.0130   -4.6330   -0.9900 h1        1 LXG      0.039033
     25 H1A        -4.4400   -4.0720   -1.9770 h1        1 LXG      0.039033
     26 H1B        -2.9930   -2.9810   -1.7610 h1        1 LXG      0.039033
     27 H2         -4.6750   -4.8940    1.0650 h1        1 LXG      0.039033
     28 H2A        -5.7530   -3.4510    1.3560 h1        1 LXG      0.039033
     29 H2B        -5.9290   -4.4260   -0.1740 h1        1 LXG      0.039033
     30 H3         -3.8780   -2.2010    1.7390 h1        1 LXG      0.069200
     31 H3A        -2.4940   -3.1910    1.0780 h1        1 LXG      0.069200
     32 H7          1.4250   -1.0920    0.7930 ha        1 LXG      0.153000
     33 H9          3.7330   -1.0240    1.5070 ha        1 LXG      0.128000
     34 H10         5.5090    0.7510   -0.3400 ha        1 LXG      0.122000
     35 H11         6.0770   -1.5300    1.7120 hc        1 LXG      0.082700
     36 H12         8.0250   -2.0900    0.1670 hc        1 LXG      0.072450
     37 H12A        7.5150   -0.7720   -0.9960 hc        1 LXG      0.072450
     38 H13         7.7930    0.9820    0.8620 hc        1 LXG      0.072450
     39 H13A        8.3030   -0.3310    2.0310 hc        1 LXG      0.072450
     40 H14         3.9560    2.2350   -0.3750 ha        1 LXG      0.136000
     41 H15         1.9870    3.4610   -1.2590 ha        1 LXG      0.140000
     42 HN3        -4.5950   -0.5260   -0.4420 hn        1 LXG      0.352500
@<TRIPOS>BOND
     1    1    2 1   
     2    1   24 1   
     3    1   25 1   
     4    1   26 1   
     5    2    5 1   
     6    2    7 1   
     7    3   23 2   
     8    4   21 1   
     9    4   22 1   
    10    5   27 1   
    11    5   28 1   
    12    5   29 1   
    13    6    9 2   
    14    6   10 1   
    15    7    9 1   
    16    7   30 1   
    17    7   31 1   
    18    8    9 1   
    19    8   23 1   
    20    8   42 1   
    21   10   11 1   
    22   10   22 2   
    23   11   12 ar  
    24   11   21 ar  
    25   12   13 ar  
    26   12   32 1   
    27   13   14 1   
    28   13   19 ar  
    29   14   15 2   
    30   14   33 1   
    31   15   16 1   
    32   15   34 1   
    33   16   17 1   
    34   16   18 1   
    35   16   35 1   
    36   17   18 1   
    37   17   36 1   
    38   17   37 1   
    39   18   38 1   
    40   18   39 1   
    41   19   20 ar  
    42   19   40 1   
    43   20   21 ar  
    44   20   41 1   
    45   22   23 1   
@<TRIPOS>SUBSTRUCTURE
     1 LXG         1 TEMP              0 ****  ****    0 ROOT
