@<TRIPOS>MOLECULE
LXG
   43    46     1     0     0
SMALL
bcc


@<TRIPOS>ATOM
      1 C1         -0.1440   -1.5150    0.1170 c3        1 LXG      0.081600
      2 N1          0.8950   -0.4670    0.3010 n4        1 LXG     -0.672400
      3 O1          2.9820   -1.5520   -5.2000 o         1 LXG     -0.573500
      4 S1          0.8530    0.6510   -6.2510 ss        1 LXG      0.262500
      5 C2          1.3540   -0.4210    1.7150 c3        1 LXG      0.081600
      6 N2          0.8450    0.5330   -2.3600 nc        1 LXG     -0.604300
      7 C3          2.0620   -0.6910   -0.6130 c3        1 LXG      0.081500
      8 N3          2.4730   -1.1230   -3.0220 n         1 LXG     -0.476400
      9 C4          1.7470   -0.4000   -2.0810 cd        1 LXG      0.404900
     10 C5          0.6240    0.8000   -3.6990 cc        1 LXG      0.155400
     11 C6         -0.3020    1.7710   -4.2310 ca        1 LXG     -0.055800
     12 C7         -1.1640    2.6400   -3.5490 ca        1 LXG     -0.085000
     13 C8         -1.9710    3.5110   -4.2750 ca        1 LXG     -0.023800
     14 C9         -2.8830    4.4000   -3.5700 ce        1 LXG     -0.158200
     15 C10        -3.0860    5.7010   -3.8180 c2        1 LXG     -0.083200
     16 C11        -2.4010    6.5030   -4.8290 cx        1 LXG     -0.127500
     17 C12        -3.2170    7.4050   -5.7270 cx        1 LXG     -0.115400
     18 C13        -2.3530    8.0050   -4.6640 cx        1 LXG     -0.115400
     19 C14        -1.9220    3.4970   -5.6910 ca        1 LXG     -0.092000
     20 C15        -1.0790    2.6410   -6.3740 ca        1 LXG     -0.090000
     21 C16        -0.2520    1.7660   -5.6550 ca        1 LXG     -0.108100
     22 C17         1.3090    0.1320   -4.7420 cd        1 LXG     -0.241600
     23 C18         2.2980   -0.8860   -4.4110 c         1 LXG      0.739700
     24 H1         -1.0280   -1.2730    0.7660 hx        1 LXG      0.108033
     25 H1A         0.2730   -2.5160    0.4060 hx        1 LXG      0.108033
     26 H1B        -0.4650   -1.5340   -0.9610 hx        1 LXG      0.108033
     27 H2          1.8590   -1.3870    1.9810 hx        1 LXG      0.108033
     28 H2A         2.0730    0.4310    1.8490 hx        1 LXG      0.108033
     29 H2B         0.4640   -0.2680    2.3840 hx        1 LXG      0.108033
     30 H3          2.4030   -1.7580   -0.4780 hx        1 LXG      0.116700
     31 H3A         2.8940    0.0060   -0.2950 hx        1 LXG      0.116700
     32 HN3         3.1630   -1.7840   -2.7380 hn        1 LXG      0.344500
     33 H7         -1.1920    2.6350   -2.4500 ha        1 LXG      0.139000
     34 H9         -3.4420    3.9130   -2.7500 ha        1 LXG      0.130000
     35 H10        -3.8250    6.2530   -3.2070 ha        1 LXG      0.131000
     36 H11        -1.5090    6.0090   -5.2690 hc        1 LXG      0.086700
     37 H12        -4.3140    7.4300   -5.6040 hc        1 LXG      0.078450
     38 H12A       -2.9180    7.5010   -6.7860 hc        1 LXG      0.078450
     39 H13        -1.4270    8.5340   -4.9530 hc        1 LXG      0.078450
     40 H13A       -2.8290    8.4610   -3.7790 hc        1 LXG      0.078450
     41 H14        -2.5810    4.1840   -6.2490 ha        1 LXG      0.159000
     42 H15        -1.0540    2.6420   -7.4750 ha        1 LXG      0.153000
     43 H111        0.4700    0.4490    0.0690 hn        1 LXG      0.479800
@<TRIPOS>BOND
     1    1    2 1   
     2    1   24 1   
     3    1   25 1   
     4    1   26 1   
     5    2    5 1   
     6    2    7 1   
     7    2   43 1   
     8    3   23 2   
     9    4   21 1   
    10    4   22 1   
    11    5   27 1   
    12    5   28 1   
    13    5   29 1   
    14    6    9 2   
    15    6   10 1   
    16    7    9 1   
    17    7   30 1   
    18    7   31 1   
    19    8    9 1   
    20    8   23 1   
    21    8   32 1   
    22   10   11 1   
    23   10   22 2   
    24   11   12 ar  
    25   11   21 ar  
    26   12   13 ar  
    27   12   33 1   
    28   13   14 1   
    29   13   19 ar  
    30   14   15 2   
    31   14   34 1   
    32   15   16 1   
    33   15   35 1   
    34   16   17 1   
    35   16   18 1   
    36   16   36 1   
    37   17   18 1   
    38   17   37 1   
    39   17   38 1   
    40   18   39 1   
    41   18   40 1   
    42   19   20 ar  
    43   19   41 1   
    44   20   21 ar  
    45   20   42 1   
    46   22   23 1   
@<TRIPOS>SUBSTRUCTURE
     1 LXG         1 TEMP              0 ****  ****    0 ROOT
