@<TRIPOS>MOLECULE
LXG
   42    39     1     0     0
SMALL
bcc


@<TRIPOS>ATOM
      1 C1          2.9530   -2.5600    5.1110 c3        1 LXG     -0.122500
      2 N1          1.9180   -2.2090    4.1740 n3        1 LXG     -0.280000
      3 O1         -2.7890    0.9130    3.0820 o         1 LXG     -0.339000
      4 S1         -2.1560    0.7850    0.0090 ss        1 LXG      0.509000
      5 C2          0.7620   -3.0190    4.4120 c3        1 LXG     -0.122500
      6 N2          0.8470   -0.5660    1.8720 n1        1 LXG     -0.169000
      7 C3          1.5740   -0.8210    4.3370 c3        1 LXG     -0.034000
      8 N3         -0.7390    0.1260    3.7010 n3        1 LXG     -0.295000
      9 C4          0.5370   -0.4270    3.2870 c2        1 LXG      0.111000
     10 C5         -0.1100   -0.1560    0.8820 c1        1 LXG      0.036000
     11 C6          0.0030   -0.0160   -0.7280 c1        1 LXG      0.036000
     12 C7          1.1120   -0.0990   -1.5620 c1        1 LXG     -0.182000
     13 C8          1.0320    0.3650   -2.8850 c1        1 LXG     -0.077000
     14 C9          0.0440   -0.1640   -3.9390 c1        1 LXG     -0.127000
     15 C10        -0.8930    0.7010   -4.5160 c1        1 LXG     -0.127000
     16 C11        -0.8820    2.1370   -4.1720 cu        1 LXG     -0.149000
     17 C12        -0.7320    2.7500   -5.5430 cx        1 LXG     -0.201500
     18 C13        -2.0570    2.6250   -4.9840 cx        1 LXG     -0.201500
     19 C14        -0.1670    0.9130   -3.3660 c2        1 LXG     -0.121000
     20 C15        -1.2910    0.9990   -2.5240 c1        1 LXG     -0.062000
     21 C16        -1.2150    0.5400   -1.2160 c1        1 LXG     -0.372500
     22 C17        -1.3930    0.3240    1.2860 c1        1 LXG     -0.372500
     23 C18        -1.7110    0.4590    2.7330 c1        1 LXG      0.358000
     24 H1          2.6370   -2.3910    6.0280 h1        1 LXG      0.079333
     25 H1A         3.7540   -2.0170    4.9340 h1        1 LXG      0.079333
     26 H1B         3.1750   -3.5160    5.0120 h1        1 LXG      0.079333
     27 H2          0.2090   -2.6040    5.1110 h1        1 LXG      0.079333
     28 H2A         1.0420   -3.9120    4.7050 h1        1 LXG      0.079333
     29 H2B         0.2390   -3.0950    3.5840 h1        1 LXG      0.079333
     30 H3          1.2020   -0.6800    5.2330 h1        1 LXG      0.111000
     31 H3A         2.3800   -0.2690    4.2260 h1        1 LXG      0.111000
     32 HN3        -0.9340    0.2130    4.5970 hn        1 LXG      0.270000
     33 H7          1.9520   -0.4840   -1.2260 ha        1 LXG      0.167000
     34 H9          0.0360   -1.1220   -4.1690 ha        1 LXG      0.136500
     35 H10        -1.5250    0.3620   -5.1900 ha        1 LXG      0.136500
     36 H11        -0.4990    2.1230   -3.2680 ha        1 LXG      0.115000
     37 H12        -0.3630    3.6610   -5.5630 hc        1 LXG      0.112750
     38 H12A       -0.5150    2.1220   -6.2670 hc        1 LXG      0.112750
     39 H13        -2.4700    3.4650   -4.6730 hc        1 LXG      0.112750
     40 H13A       -2.6190    1.9270   -5.3770 hc        1 LXG      0.112750
     41 H14        -0.2210    1.2360   -4.2860 ha        1 LXG      0.181000
     42 H15        -2.1300    1.3830   -2.8620 ha        1 LXG      0.149000
@<TRIPOS>BOND
     1    1    2 1   
     2    1   24 1   
     3    1   25 1   
     4    1   26 1   
     5    2    5 1   
     6    2    7 1   
     7    3   23 1   
     8    4   21 1   
     9    4   22 1   
    10    5   27 1   
    11    5   28 1   
    12    5   29 1   
    13    6    9 1   
    14    7    9 1   
    15    7   30 1   
    16    7   31 1   
    17    8    9 1   
    18    8   23 1   
    19    8   32 1   
    20   10   11 1   
    21   10   22 1   
    22   11   21 1   
    23   12   13 1   
    24   12   33 1   
    25   13   19 1   
    26   14   15 1   
    27   14   34 1   
    28   15   35 1   
    29   16   17 1   
    30   16   18 1   
    31   16   36 1   
    32   17   18 1   
    33   17   37 1   
    34   17   38 1   
    35   18   39 1   
    36   18   40 1   
    37   19   20 1   
    38   19   41 1   
    39   20   42 1   
@<TRIPOS>SUBSTRUCTURE
     1 LXG         1 TEMP              0 ****  ****    0 ROOT
