@<TRIPOS>MOLECULE
LXG
   43    46     1     0     0
SMALL
bcc


@<TRIPOS>ATOM
      1 C1         -0.1030   -1.4800    0.1540 c3        1 LXG      0.081600
      2 N1          0.9460   -0.4370    0.3060 nx        1 LXG     -0.672400
      3 O1          2.9130   -1.5990   -5.2240 o         1 LXG     -0.573500
      4 S1          0.7770    0.6050   -6.2570 ss        1 LXG      0.262500
      5 C2          1.4340   -0.3790    1.7090 c3        1 LXG      0.081600
      6 N2          0.8490    0.5330   -2.3660 nc        1 LXG     -0.604300
      7 C3          2.0940   -0.6790   -0.6290 c3        1 LXG      0.081500
      8 N3          2.4520   -1.1420   -3.0410 ns        1 LXG     -0.476400
      9 C4          1.7500   -0.4030   -2.0940 cd        1 LXG      0.404900
     10 C5          0.6020    0.7860   -3.7030 cc        1 LXG      0.155400
     11 C6         -0.3290    1.7570   -4.2270 ca        1 LXG     -0.055800
     12 C7         -1.1700    2.6390   -3.5370 ca        1 LXG     -0.085000
     13 C8         -1.9860    3.5080   -4.2570 ca        1 LXG     -0.023800
     14 C9         -2.8770    4.4110   -3.5440 ce        1 LXG     -0.158200
     15 C10        -3.0780    5.7100   -3.8050 c2        1 LXG     -0.083200
     16 C11        -2.4110    6.4950   -4.8410 cx        1 LXG     -0.127500
     17 C12        -3.2420    7.3870   -5.7360 cx        1 LXG     -0.115400
     18 C13        -2.3550    7.9990   -4.6990 cx        1 LXG     -0.115400
     19 C14        -1.9670    3.4770   -5.6740 ca        1 LXG     -0.092000
     20 C15        -1.1440    2.6070   -6.3640 ca        1 LXG     -0.090000
     21 C16        -0.3070    1.7350   -5.6510 ca        1 LXG     -0.108100
     22 C17         1.2610    0.1010   -4.7510 cd        1 LXG     -0.241600
     23 C18         2.2500   -0.9200   -4.4290 c         1 LXG      0.739700
     24 H1         -0.9720   -1.2260    0.8190 hx        1 LXG      0.108033
     25 H1A         0.3140   -2.4800    0.4460 hx        1 LXG      0.108033
     26 H1B        -0.4460   -1.5090   -0.9160 hx        1 LXG      0.108033
     27 H2          0.5590   -0.2120    2.3940 hx        1 LXG      0.108033
     28 H2A         2.1620    0.4700    1.8190 hx        1 LXG      0.108033
     29 H2B         1.9380   -1.3450    1.9760 hx        1 LXG      0.108033
     30 H3          2.9360    0.0160   -0.3370 hx        1 LXG      0.116700
     31 H3A         2.4300   -1.7460   -0.4880 hx        1 LXG      0.116700
     32 HN3         3.1430   -1.8040   -2.7640 hn        1 LXG      0.344500
     33 H7         -1.1750    2.6480   -2.4380 ha        1 LXG      0.139000
     34 H9         -3.4200    3.9390   -2.7050 ha        1 LXG      0.129000
     35 H10        -3.8000    6.2740   -3.1850 ha        1 LXG      0.131000
     36 H11        -1.5300    5.9920   -5.2910 hc        1 LXG      0.086700
     37 H12        -2.9640    7.4660   -6.8020 hc        1 LXG      0.078450
     38 H12A       -4.3370    7.4160   -5.5910 hc        1 LXG      0.078450
     39 H13        -1.4340    8.5210   -5.0150 hc        1 LXG      0.078450
     40 H13A       -2.8130    8.4700   -3.8120 hc        1 LXG      0.078450
     41 H14        -2.6320    4.1610   -6.2260 ha        1 LXG      0.159000
     42 H15        -1.1410    2.5950   -7.4650 ha        1 LXG      0.153000
     43 H111        0.5230    0.4780    0.0720 hn        1 LXG      0.479800
@<TRIPOS>BOND
     1    1    2 1   
     2    1   24 1   
     3    1   25 1   
     4    1   26 1   
     5    2    5 1   
     6    2    7 1   
     7    2   43 1   
     8    3   23 2   
     9    4   21 1   
    10    4   22 1   
    11    5   27 1   
    12    5   28 1   
    13    5   29 1   
    14    6    9 2   
    15    6   10 1   
    16    7    9 1   
    17    7   30 1   
    18    7   31 1   
    19    8    9 1   
    20    8   23 1   
    21    8   32 1   
    22   10   11 1   
    23   10   22 2   
    24   11   12 ar  
    25   11   21 ar  
    26   12   13 ar  
    27   12   33 1   
    28   13   14 1   
    29   13   19 ar  
    30   14   15 2   
    31   14   34 1   
    32   15   16 1   
    33   15   35 1   
    34   16   17 1   
    35   16   18 1   
    36   16   36 1   
    37   17   18 1   
    38   17   37 1   
    39   17   38 1   
    40   18   39 1   
    41   18   40 1   
    42   19   20 ar  
    43   19   41 1   
    44   20   21 ar  
    45   20   42 1   
    46   22   23 1   
@<TRIPOS>SUBSTRUCTURE
     1 LXG         1 TEMP              0 ****  ****    0 ROOT
