@<TRIPOS>MOLECULE
LXL
   63    65     1     0     0
SMALL
bcc


@<TRIPOS>ATOM
      1 C11        -0.3460    0.2410    1.3750 c3        1 LXL     -0.138100
      2 C10         1.1290    0.0380    1.6480 c3        1 LXL      0.108800
      3 N9          1.5580   -1.3790    1.4670 n4        1 LXL     -0.679800
      4 C8          3.0900   -1.5320    1.6110 c         1 LXL      0.628100
      5 O32         3.6310   -1.8520    0.5490 o         1 LXL     -0.480100
      6 N7          3.6130   -1.4440    2.8770 n         1 LXL     -0.363100
      7 C6          5.0090   -1.2220    3.0580 ca        1 LXL     -0.060400
      8 C5          5.4530   -0.2130    3.9580 ca        1 LXL      0.122100
      9 C4          6.8180   -0.0460    4.2100 ca        1 LXL     -0.148000
     10 O12         4.4630    0.5590    4.5370 os        1 LXL     -0.370900
     11 C13         4.8720    1.4190    5.6030 c3        1 LXL      0.115700
     12 C1          5.9660   -2.0220    2.4060 ca        1 LXL     -0.083000
     13 C2          7.3210   -1.8450    2.6610 ca        1 LXL     -0.110000
     14 C3          7.7500   -0.8640    3.5640 cp        1 LXL     -0.050500
     15 C14         9.2030   -0.6870    3.8490 cp        1 LXL      0.695500
     16 N19        10.0530   -0.8160    2.7910 nb        1 LXL     -0.748000
     17 N15         9.5530   -0.4200    5.1450 nb        1 LXL     -0.723000
     18 C16        10.8730   -0.2810    5.3800 ca        1 LXL      0.454200
     19 C17        11.8560   -0.3830    4.3860 ca        1 LXL     -0.343900
     20 C20        13.2850   -0.2180    4.7110 c3        1 LXL     -0.048800
     21 C18        11.3950   -0.6490    3.0450 ca        1 LXL      0.687200
     22 N21        12.3120   -0.6560    1.9990 nh        1 LXL     -0.830900
     23 C22        11.9770   -1.1560    0.6760 c3        1 LXL      0.262800
     24 C29        13.0240   -0.7200   -0.3680 c3        1 LXL     -0.082400
     25 C30        13.0290    0.7780   -0.5830 c3        1 LXL     -0.079400
     26 C31        13.9650    1.1620   -1.7000 c3        1 LXL     -0.096100
     27 C23        11.8410   -2.6580    0.6230 ca        1 LXL     -0.236600
     28 C24        10.6210   -3.2560    0.2890 ca        1 LXL     -0.075000
     29 C25        10.5430   -4.6490    0.2340 ca        1 LXL     -0.251300
     30 C26        11.6960   -5.4000    0.5270 ca        1 LXL      0.403200
     31 N27        12.8770   -4.8430    0.8590 nb        1 LXL     -0.655000
     32 C28        12.9390   -3.4990    0.9010 ca        1 LXL      0.402200
     33 H1         -0.5810    1.3250    1.5290 hc        1 LXL      0.081367
     34 H2         -0.6120   -0.0240    0.3220 hc        1 LXL      0.081367
     35 H3         -0.9830   -0.3560    2.0720 hc        1 LXL      0.081367
     36 H4          1.3710    0.3440    2.7060 hx        1 LXL      0.107700
     37 H5          1.7450    0.6690    0.9420 hx        1 LXL      0.107700
     38 H6          1.0650   -1.9820    2.1310 hn        1 LXL      0.460300
     39 H7          3.0460   -1.0670    3.6150 hn        1 LXL      0.345500
     40 H8          7.1590    0.7270    4.9170 ha        1 LXL      0.177000
     41 H9          3.9040    1.8400    5.9760 h1        1 LXL      0.061367
     42 H10         5.5310    2.2300    5.2100 h1        1 LXL      0.061367
     43 H11         5.3880    0.8370    6.4040 h1        1 LXL      0.061367
     44 H12         5.6440   -2.7910    1.6840 ha        1 LXL      0.160000
     45 H13         8.0560   -2.4840    2.1430 ha        1 LXL      0.173000
     46 H14        11.1520   -0.0760    6.4310 h4        1 LXL      0.036100
     47 H15        13.8610   -1.1430    4.4510 hc        1 LXL      0.053700
     48 H16        13.4250   -0.0220    5.8040 hc        1 LXL      0.053700
     49 H17        13.7240    0.6430    4.1470 hc        1 LXL      0.053700
     50 H18        13.2580   -0.8150    2.2780 hn        1 LXL      0.425800
     51 H19        10.9880   -0.6920    0.3770 h1        1 LXL      0.087700
     52 H20        12.7670   -1.2360   -1.3310 hc        1 LXL      0.054700
     53 H21        14.0460   -1.0670   -0.0660 hc        1 LXL      0.054700
     54 H22        11.9900    1.1260   -0.8250 hc        1 LXL      0.044700
     55 H23        13.3400    1.2990    0.3610 hc        1 LXL      0.044700
     56 H24        13.9620    2.2700   -1.8420 hc        1 LXL      0.038033
     57 H25        15.0090    0.8390   -1.4710 hc        1 LXL      0.038033
     58 H26        13.6540    0.6830   -2.6600 hc        1 LXL      0.038033
     59 H27         9.7380   -2.6360    0.0770 ha        1 LXL      0.139000
     60 H28         9.6070   -5.1540   -0.0350 ha        1 LXL      0.143000
     61 H29        11.6790   -6.5040    0.4950 h4        1 LXL      0.029100
     62 H30        13.9240   -3.0750    1.1660 h4        1 LXL      0.020100
     63 H92         1.3210   -1.6890    0.5130 hn        1 LXL      0.460300
@<TRIPOS>BOND
     1    1    2 1   
     2    1   33 1   
     3    1   34 1   
     4    1   35 1   
     5    2    3 1   
     6    2   36 1   
     7    2   37 1   
     8    3    4 1   
     9    3   38 1   
    10    3   63 1   
    11    4    5 2   
    12    4    6 1   
    13    6    7 1   
    14    6   39 1   
    15    7    8 ar  
    16    7   12 ar  
    17    8    9 ar  
    18    8   10 1   
    19    9   14 ar  
    20    9   40 1   
    21   10   11 1   
    22   11   41 1   
    23   11   42 1   
    24   11   43 1   
    25   12   13 ar  
    26   12   44 1   
    27   13   14 ar  
    28   13   45 1   
    29   14   15 1   
    30   15   16 ar  
    31   15   17 ar  
    32   16   21 ar  
    33   17   18 ar  
    34   18   19 ar  
    35   18   46 1   
    36   19   20 1   
    37   19   21 ar  
    38   20   47 1   
    39   20   48 1   
    40   20   49 1   
    41   21   22 1   
    42   22   23 1   
    43   22   50 1   
    44   23   24 1   
    45   23   27 1   
    46   23   51 1   
    47   24   25 1   
    48   24   52 1   
    49   24   53 1   
    50   25   26 1   
    51   25   54 1   
    52   25   55 1   
    53   26   56 1   
    54   26   57 1   
    55   26   58 1   
    56   27   28 ar  
    57   27   32 ar  
    58   28   29 ar  
    59   28   59 1   
    60   29   30 ar  
    61   29   60 1   
    62   30   31 ar  
    63   30   61 1   
    64   31   32 ar  
    65   32   62 1   
@<TRIPOS>SUBSTRUCTURE
     1 LXL         1 TEMP              0 ****  ****    0 ROOT
