@<TRIPOS>MOLECULE
LXL
   63    65     1     0     0
SMALL
bcc


@<TRIPOS>ATOM
      1 C11        -0.3220    0.3110    1.2230 c3        1 LXL     -0.138100
      2 C10         1.1470    0.0930    1.5220 c3        1 LXL      0.108800
      3 N9          1.5690   -1.3250    1.3340 ny        1 LXL     -0.679800
      4 C8          3.0960   -1.4900    1.5060 c         1 LXL      0.628100
      5 O32         3.6550   -1.8020    0.4520 o         1 LXL     -0.480100
      6 N7          3.5940   -1.4200    2.7830 ns        1 LXL     -0.363100
      7 C6          4.9890   -1.2110    2.9940 ca        1 LXL     -0.060400
      8 C5          5.4220   -0.2150    3.9140 ca        1 LXL      0.122100
      9 C4          6.7820   -0.0610    4.1940 ca        1 LXL     -0.148000
     10 O12         4.4260    0.5570    4.4820 os        1 LXL     -0.370900
     11 C13         4.8200    1.4020    5.5660 c3        1 LXL      0.115700
     12 C1          5.9520   -2.0100    2.3520 ca        1 LXL     -0.083000
     13 C2          7.3030   -1.8460    2.6350 ca        1 LXL     -0.110000
     14 C3          7.7210   -0.8780    3.5570 cp        1 LXL     -0.050500
     15 C14         9.1690   -0.7150    3.8720 cp        1 LXL      0.695500
     16 N19        10.0400   -0.8390    2.8290 nb        1 LXL     -0.748000
     17 N15         9.4960   -0.4660    5.1770 nb        1 LXL     -0.723000
     18 C16        10.8120   -0.3380    5.4390 ca        1 LXL      0.454200
     19 C17        11.8140   -0.4360    4.4630 ca        1 LXL     -0.343900
     20 C20        13.2370   -0.2850    4.8180 c3        1 LXL     -0.048800
     21 C18        11.3770   -0.6830    3.1110 ca        1 LXL      0.687200
     22 N21        12.3150   -0.6850    2.0830 nu        1 LXL     -0.830900
     23 C22        12.0020   -1.1680    0.7480 c3        1 LXL      0.262800
     24 C29        13.0710   -0.7270   -0.2710 c3        1 LXL     -0.082400
     25 C30        13.0910    0.7720   -0.4680 c3        1 LXL     -0.079400
     26 C31        14.0510    1.1630   -1.5630 c3        1 LXL     -0.096100
     27 C23        11.8570   -2.6680    0.6760 ca        1 LXL     -0.236600
     28 C24        10.6400   -3.2550    0.3120 ca        1 LXL     -0.075000
     29 C25        10.5540   -4.6450    0.2390 ca        1 LXL     -0.251300
     30 C26        11.6960   -5.4070    0.5450 ca        1 LXL      0.403200
     31 N27        12.8740   -4.8630    0.9060 nb        1 LXL     -0.655000
     32 C28        12.9440   -3.5200    0.9650 ca        1 LXL      0.402200
     33 H1         -0.9770   -0.2880    1.9020 hc        1 LXL      0.081367
     34 H2         -0.5700    0.0590    0.1630 hc        1 LXL      0.081367
     35 H3         -0.5520    1.3950    1.3850 hc        1 LXL      0.081367
     36 H4          1.7800    0.7280    0.8350 hx        1 LXL      0.107700
     37 H5          1.3700    0.3870    2.5880 hx        1 LXL      0.107700
     38 H6          1.0580   -1.9310    1.9810 hn        1 LXL      0.460300
     39 H7          3.0170   -1.0470    3.5140 hn        1 LXL      0.345500
     40 H8          7.1160    0.7010    4.9170 ha        1 LXL      0.177000
     41 H9          5.4920    2.2130    5.1950 h1        1 LXL      0.061367
     42 H10         5.3170    0.8060    6.3700 h1        1 LXL      0.061367
     43 H11         3.8480    1.8250    5.9250 h1        1 LXL      0.061367
     44 H12         5.6390   -2.7680    1.6140 ha        1 LXL      0.160000
     45 H13         8.0430   -2.4840    2.1240 ha        1 LXL      0.173000
     46 H14        11.0730   -0.1480    6.4980 h4        1 LXL      0.036100
     47 H15        13.6930    0.5790    4.2720 hc        1 LXL      0.053700
     48 H16        13.8120   -1.2110    4.5590 hc        1 LXL      0.053700
     49 H17        13.3570   -0.1030    5.9160 hc        1 LXL      0.053700
     50 H18        13.2530   -0.8540    2.3780 hn        1 LXL      0.425800
     51 H19        11.0210   -0.6940    0.4360 h1        1 LXL      0.087700
     52 H20        12.8310   -1.2310   -1.2440 hc        1 LXL      0.054700
     53 H21        14.0860   -1.0840    0.0470 hc        1 LXL      0.054700
     54 H22        13.3860    1.2810    0.4870 hc        1 LXL      0.044700
     55 H23        12.0590    1.1300   -0.7270 hc        1 LXL      0.044700
     56 H24        15.0880    0.8310   -1.3160 hc        1 LXL      0.038033
     57 H25        14.0580    2.2720   -1.6920 hc        1 LXL      0.038033
     58 H26        13.7560    0.6970   -2.5340 hc        1 LXL      0.038033
     59 H27         9.7650   -2.6260    0.0900 ha        1 LXL      0.139000
     60 H28         9.6190   -5.1410   -0.0520 ha        1 LXL      0.143000
     61 H29        11.6720   -6.5110    0.5010 h4        1 LXL      0.029100
     62 H30        13.9270   -3.1050    1.2530 h4        1 LXL      0.020100
     63 H92         1.3480   -1.6220    0.3720 hn        1 LXL      0.460300
@<TRIPOS>BOND
     1    1    2 1   
     2    1   33 1   
     3    1   34 1   
     4    1   35 1   
     5    2    3 1   
     6    2   36 1   
     7    2   37 1   
     8    3    4 1   
     9    3   38 1   
    10    3   63 1   
    11    4    5 2   
    12    4    6 1   
    13    6    7 1   
    14    6   39 1   
    15    7    8 ar  
    16    7   12 ar  
    17    8    9 ar  
    18    8   10 1   
    19    9   14 ar  
    20    9   40 1   
    21   10   11 1   
    22   11   41 1   
    23   11   42 1   
    24   11   43 1   
    25   12   13 ar  
    26   12   44 1   
    27   13   14 ar  
    28   13   45 1   
    29   14   15 1   
    30   15   16 ar  
    31   15   17 ar  
    32   16   21 ar  
    33   17   18 ar  
    34   18   19 ar  
    35   18   46 1   
    36   19   20 1   
    37   19   21 ar  
    38   20   47 1   
    39   20   48 1   
    40   20   49 1   
    41   21   22 1   
    42   22   23 1   
    43   22   50 1   
    44   23   24 1   
    45   23   27 1   
    46   23   51 1   
    47   24   25 1   
    48   24   52 1   
    49   24   53 1   
    50   25   26 1   
    51   25   54 1   
    52   25   55 1   
    53   26   56 1   
    54   26   57 1   
    55   26   58 1   
    56   27   28 ar  
    57   27   32 ar  
    58   28   29 ar  
    59   28   59 1   
    60   29   30 ar  
    61   29   60 1   
    62   30   31 ar  
    63   30   61 1   
    64   31   32 ar  
    65   32   62 1   
@<TRIPOS>SUBSTRUCTURE
     1 LXL         1 TEMP              0 ****  ****    0 ROOT
