@<TRIPOS>MOLECULE
LXN
   12    12     1     0     0
SMALL
bcc


@<TRIPOS>ATOM
      1 OAB        -0.0590   -0.0030    0.0140 o         1 LXN     -0.529500
      2 CAH         1.1780   -0.0020    0.0210 c         1 LXN      0.610500
      3 CAJ         1.9700   -0.0000    1.3180 c         1 LXN      0.431100
      4 OAD         1.4110    0.0010    2.4050 o         1 LXN     -0.367100
      5 CAI         3.4860   -0.0010    1.2090 c         1 LXN      0.610500
      6 OAC         4.2110   -0.0000    2.2110 o         1 LXN     -0.529500
      7 NAF         4.0450   -0.0010   -0.0640 n         1 LXN     -0.589500
      8 CAG         3.2940   -0.0020   -1.2540 c         1 LXN      0.818500
      9 OAA         3.8630   -0.0020   -2.3620 o         1 LXN     -0.598500
     10 NAE         1.8890   -0.0020   -1.1740 n         1 LXN     -0.589500
     11 HAE         1.3890   -0.0030   -2.0410 hn        1 LXN      0.366500
     12 HAF         5.0400   -0.0010   -0.1620 hn        1 LXN      0.366500
@<TRIPOS>BOND
     1    1    2 2   
     2    2    3 1   
     3    2   10 1   
     4    3    4 2   
     5    3    5 1   
     6    5    6 2   
     7    5    7 1   
     8    7    8 1   
     9    7   12 1   
    10    8    9 2   
    11    8   10 1   
    12   10   11 1   
@<TRIPOS>SUBSTRUCTURE
     1 LXN         1 TEMP              0 ****  ****    0 ROOT
