@<TRIPOS>MOLECULE
LXN
   12    12     1     0     0
SMALL
bcc


@<TRIPOS>ATOM
      1 OAB         0.9980   -2.4010   -0.0020 o         1 LXN     -0.529500
      2 CAH         0.4390   -1.2980   -0.0010 c         1 LXN      0.610500
      3 CAJ         1.2300   -0.0000   -0.0000 c         1 LXN      0.431100
      4 OAD         2.4520   -0.0000    0.0000 o         1 LXN     -0.367100
      5 CAI         0.4390    1.2980    0.0010 c         1 LXN      0.610500
      6 OAC         0.9980    2.4010    0.0020 o         1 LXN     -0.529500
      7 NAF        -0.9490    1.2120    0.0010 n         1 LXN     -0.589500
      8 CAG        -1.6630    0.0000   -0.0010 c         1 LXN      0.818500
      9 OAA        -2.9080    0.0000   -0.0010 o         1 LXN     -0.598500
     10 NAE        -0.9490   -1.2120   -0.0020 n         1 LXN     -0.589500
     11 HAE        -1.4910   -2.0530   -0.0030 hn        1 LXN      0.366500
     12 HAF        -1.4910    2.0530    0.0010 hn        1 LXN      0.366500
@<TRIPOS>BOND
     1    1    2 2   
     2    2    3 1   
     3    2   10 1   
     4    3    4 2   
     5    3    5 1   
     6    5    6 2   
     7    5    7 1   
     8    7    8 1   
     9    7   12 1   
    10    8    9 2   
    11    8   10 1   
    12   10   11 1   
@<TRIPOS>SUBSTRUCTURE
     1 LXN         1 TEMP              0 ****  ****    0 ROOT
