@<TRIPOS>MOLECULE
LXP
   25    24     1     0     0
SMALL
bcc


@<TRIPOS>ATOM
      1 O8         -0.9210    1.0600   -3.6230 o         1 LXP     -0.920500
      2 P           0.0460    0.8120   -2.5090 p5        1 LXP      1.326900
      3 O6          1.4680    0.4970   -2.8630 o         1 LXP     -0.920500
      4 O7         -0.1270    1.6490   -1.2500 o         1 LXP     -0.920500
      5 O5         -0.5070   -0.6690   -1.7730 os        1 LXP     -0.562200
      6 C5          0.2680   -1.0630   -0.7150 c3        1 LXP      0.202400
      7 C4         -0.4270   -0.8060    0.6510 c3        1 LXP      0.096100
      8 O4         -1.5350    0.0590    0.5660 oh        1 LXP     -0.668800
      9 C3          0.5830   -0.2130    1.6560 c3        1 LXP      0.110100
     10 O3          0.8240    1.1610    1.4450 oh        1 LXP     -0.671800
     11 C2          0.0630   -0.3550    3.1000 c3        1 LXP      0.110100
     12 O2         -1.0930    0.4300    3.3470 oh        1 LXP     -0.650800
     13 C1          1.1400    0.0820    4.0980 c3        1 LXP      0.113400
     14 O1          0.6480    0.1210    5.4280 oh        1 LXP     -0.643800
     15 H51         1.2630   -0.5300   -0.7320 h1        1 LXP     -0.004800
     16 H52         0.4560   -2.1760   -0.7760 h1        1 LXP     -0.004800
     17 H4         -0.8260   -1.7710    1.0690 h1        1 LXP      0.008700
     18 HO4        -1.3930    0.6310   -0.2320 ho        1 LXP      0.489000
     19 H3          1.5630   -0.7630    1.5800 h1        1 LXP      0.016700
     20 HO3         0.5310    1.4010    0.5300 ho        1 LXP      0.508000
     21 H2         -0.2300   -1.4230    3.3020 h1        1 LXP      0.029700
     22 HO2        -1.2890    0.9160    2.5270 ho        1 LXP      0.458000
     23 H11         1.5250    1.0970    3.8140 h1        1 LXP      0.043200
     24 H12         1.9830   -0.6560    4.1160 h1        1 LXP      0.043200
     25 HO1        -0.2270    0.5280    5.3840 ho        1 LXP      0.413000
@<TRIPOS>BOND
     1    1    2 1   
     2    2    3 1   
     3    2    4 1   
     4    2    5 1   
     5    5    6 1   
     6    6    7 1   
     7    6   15 1   
     8    6   16 1   
     9    7    8 1   
    10    7    9 1   
    11    7   17 1   
    12    8   18 1   
    13    9   10 1   
    14    9   11 1   
    15    9   19 1   
    16   10   20 1   
    17   11   12 1   
    18   11   13 1   
    19   11   21 1   
    20   12   22 1   
    21   13   14 1   
    22   13   23 1   
    23   13   24 1   
    24   14   25 1   
@<TRIPOS>SUBSTRUCTURE
     1 LXP         1 TEMP              0 ****  ****    0 ROOT
