@<TRIPOS>MOLECULE
LXP
   25    24     1     0     0
SMALL
bcc


@<TRIPOS>ATOM
      1 O8          0.7520   -0.3930   -1.2020 o         1 LXP     -0.920500
      2 P           2.1750   -0.1240   -0.8280 p5        1 LXP      1.326900
      3 O6          2.7250   -0.7960    0.3940 o         1 LXP     -0.920500
      4 O7          3.1670    0.0320   -1.9700 o         1 LXP     -0.920500
      5 O5          2.1990    1.5620   -0.3860 os        1 LXP     -0.562200
      6 C5          3.4400    1.9990   -0.0080 c3        1 LXP      0.202400
      7 C4          4.1140    2.8740   -1.1010 c3        1 LXP      0.096100
      8 O4          3.4930    2.7790   -2.3610 oh        1 LXP     -0.668800
      9 C3          5.5990    2.4800   -1.2540 c3        1 LXP      0.110100
     10 O3          5.7770    1.2950   -1.9990 oh        1 LXP     -0.671800
     11 C2          6.3830    3.5860   -1.9860 c3        1 LXP      0.110100
     12 O2          5.9800    3.7430   -3.3380 oh        1 LXP     -0.650800
     13 C1          7.8810    3.2630   -1.9860 c3        1 LXP      0.113400
     14 O1          8.6210    4.1710   -2.7890 oh        1 LXP     -0.643800
     15 H51         3.3500    2.6480    0.9140 h1        1 LXP     -0.004800
     16 H52         4.1120    1.1250    0.2350 h1        1 LXP     -0.004800
     17 H4          4.0580    3.9610   -0.8150 h1        1 LXP      0.008700
     18 HO4         3.0400    1.8980   -2.3930 ho        1 LXP      0.489000
     19 H3          6.0610    2.3350   -0.2370 h1        1 LXP      0.016700
     20 HO3         4.9200    0.8000   -2.0230 ho        1 LXP      0.508000
     21 H2          6.2100    4.5790   -1.4860 h1        1 LXP      0.029700
     22 HO2         5.2910    3.0780   -3.5090 ho        1 LXP      0.458000
     23 H11         8.0390    2.2180   -2.3650 h1        1 LXP      0.043200
     24 H12         8.3060    3.3660   -0.9550 h1        1 LXP      0.043200
     25 HO1         8.1080    4.3000   -3.5980 ho        1 LXP      0.413000
@<TRIPOS>BOND
     1    1    2 1   
     2    2    3 1   
     3    2    4 1   
     4    2    5 1   
     5    5    6 1   
     6    6    7 1   
     7    6   15 1   
     8    6   16 1   
     9    7    8 1   
    10    7    9 1   
    11    7   17 1   
    12    8   18 1   
    13    9   10 1   
    14    9   11 1   
    15    9   19 1   
    16   10   20 1   
    17   11   12 1   
    18   11   13 1   
    19   11   21 1   
    20   12   22 1   
    21   13   14 1   
    22   13   23 1   
    23   13   24 1   
    24   14   25 1   
@<TRIPOS>SUBSTRUCTURE
     1 LXP         1 TEMP              0 ****  ****    0 ROOT
