@<TRIPOS>MOLECULE
LXP
   25    24     1     0     0
SMALL
bcc


@<TRIPOS>ATOM
      1 O8          0.7150   -0.3440   -1.3220 o         1 LXP     -0.920500
      2 P           2.1380   -0.1060   -0.9270 p5        1 LXP      1.326900
      3 O6          2.6670   -0.8220    0.2790 o         1 LXP     -0.920500
      4 O7          3.1430    0.0720   -2.0550 o         1 LXP     -0.920500
      5 O5          2.1790    1.5660   -0.4340 os        1 LXP     -0.562200
      6 C5          3.4230    1.9740   -0.0310 c3        1 LXP      0.202400
      7 C4          4.1190    2.8730   -1.0900 c3        1 LXP      0.096100
      8 O4          3.5080    2.8250   -2.3580 oh        1 LXP     -0.668800
      9 C3          5.5990    2.4640   -1.2420 c3        1 LXP      0.110100
     10 O3          5.7690    1.3000   -2.0200 oh        1 LXP     -0.671800
     11 C2          6.4050    3.5820   -1.9330 c3        1 LXP      0.110100
     12 O2          6.0170    3.7840   -3.2830 oh        1 LXP     -0.650800
     13 C1          7.8990    3.2390   -1.9290 c3        1 LXP      0.113400
     14 O1          8.6570    4.1610   -2.6970 oh        1 LXP     -0.643800
     15 H51         3.3320    2.5960    0.9090 h1        1 LXP     -0.004800
     16 H52         4.0810    1.0840    0.1910 h1        1 LXP     -0.004800
     17 H4          4.0740    3.9520   -0.7710 h1        1 LXP      0.008700
     18 HO4         3.0440    1.9520   -2.4220 ho        1 LXP      0.489000
     19 H3          6.0500    2.2830   -0.2260 h1        1 LXP      0.016700
     20 HO3         4.9060    0.8180   -2.0680 ho        1 LXP      0.508000
     21 H2          6.2400    4.5610   -1.4040 h1        1 LXP      0.029700
     22 HO2         5.3210    3.1340   -3.4810 ho        1 LXP      0.458000
     23 H11         8.0470    2.2040   -2.3370 h1        1 LXP      0.043200
     24 H12         8.3150    3.3060   -0.8910 h1        1 LXP      0.043200
     25 HO1         8.1540    4.3210   -3.5060 ho        1 LXP      0.413000
@<TRIPOS>BOND
     1    1    2 1   
     2    2    3 1   
     3    2    4 1   
     4    2    5 1   
     5    5    6 1   
     6    6    7 1   
     7    6   15 1   
     8    6   16 1   
     9    7    8 1   
    10    7    9 1   
    11    7   17 1   
    12    8   18 1   
    13    9   10 1   
    14    9   11 1   
    15    9   19 1   
    16   10   20 1   
    17   11   12 1   
    18   11   13 1   
    19   11   21 1   
    20   12   22 1   
    21   13   14 1   
    22   13   23 1   
    23   13   24 1   
    24   14   25 1   
@<TRIPOS>SUBSTRUCTURE
     1 LXP         1 TEMP              0 ****  ****    0 ROOT
