@<TRIPOS>MOLECULE
LXT
   93    96     1     0     0
SMALL
bcc


@<TRIPOS>ATOM
      1 C1          1.5070    0.0000    0.0000 c3        1 LXT     -0.128500
      2 N2          1.9960    0.0000    1.3810 ny        1 LXT      0.167200
      3 C3          2.0160   -1.2510   -0.7210 c3        1 LXT     -0.053400
      4 C4          0.0000    0.0000    0.0000 c         1 LXT      0.360100
      5 N5         -0.6740    0.0010   -1.1680 ny        1 LXT      0.164200
      6 O6         -0.6070    0.0010    1.0500 o         1 LXT     -0.391100
      7 C7         -2.1380    0.0010   -1.1670 c3        1 LXT     -0.148500
      8 C8         -2.6480    1.4380   -1.0420 c3        1 LXT     -0.051400
      9 C9         -2.6410   -0.6000   -2.4550 c         1 LXT      0.382100
     10 O10        -1.8530   -0.9900   -3.2900 o         1 LXT     -0.409100
     11 N11        -3.9670   -0.7030   -2.6790 ny        1 LXT      0.101200
     12 C12        -4.4550   -1.2870   -3.9300 c3        1 LXT      0.083100
     13 C13        -5.9620   -1.2860   -3.9300 ca        1 LXT     -0.257300
     14 C14        -6.6540   -2.3680   -3.4180 ca        1 LXT     -0.055500
     15 C15        -8.0360   -2.3670   -3.4190 ca        1 LXT     -0.077000
     16 C16        -8.7270   -1.2840   -3.9290 ca        1 LXT      0.023700
     17 C17        -8.0360   -0.2020   -4.4400 ca        1 LXT     -0.077000
     18 C18        -6.6520   -0.2010   -4.4360 ca        1 LXT     -0.055500
     19 C19       -10.2340   -1.2840   -3.9290 c3        1 LXT      0.041200
     20 C20        -2.2430    2.0060    0.3200 c3        1 LXT      0.059900
     21 C21        -2.7450    3.4220    0.4430 ca        1 LXT     -0.190300
     22 C22        -1.9540    4.4740    0.0220 ca        1 LXT     -0.093000
     23 C23        -2.4140    5.7730    0.1360 ca        1 LXT     -0.061500
     24 C24        -3.6650    6.0190    0.6700 ca        1 LXT     -0.029000
     25 C25        -4.4570    4.9660    1.0900 ca        1 LXT     -0.061500
     26 C26        -3.9980    3.6670    0.9730 ca        1 LXT     -0.093000
     27 C27         3.5420   -1.1900   -0.8310 c3        1 LXT      0.062900
     28 C28         4.0430   -2.4210   -1.5410 ca        1 LXT     -0.194300
     29 C29         4.1750   -2.4190   -2.9170 ca        1 LXT     -0.091500
     30 C30         4.6350   -3.5480   -3.5680 ca        1 LXT     -0.061000
     31 C31         4.9630   -4.6790   -2.8430 ca        1 LXT     -0.025000
     32 C32         4.8320   -4.6800   -1.4680 ca        1 LXT     -0.061000
     33 C33         4.3770   -3.5490   -0.8160 ca        1 LXT     -0.091500
     34 C34         3.2180    0.4920    1.6640 c         1 LXT      0.333100
     35 O35         3.9130    0.9360    0.7740 o         1 LXT     -0.372100
     36 C36         3.7200    0.4930    3.0840 c3        1 LXT     -0.134500
     37 C37         3.1100    1.6740    3.8410 c3        1 LXT     -0.047400
     38 N38         5.1840    0.6120    3.0860 nz        1 LXT      0.086400
     39 C41         3.5210    1.6040    5.3140 c3        1 LXT      0.058900
     40 C42         2.9210    2.7680    6.0580 ca        1 LXT     -0.179300
     41 C43         1.6720    2.6470    6.6400 ca        1 LXT     -0.087000
     42 C44         1.1210    3.7150    7.3220 ca        1 LXT     -0.069500
     43 C45         1.8190    4.9050    7.4240 ca        1 LXT     -0.034000
     44 C46         3.0670    5.0260    6.8420 ca        1 LXT     -0.069500
     45 C47         3.6200    3.9560    6.1650 ca        1 LXT     -0.087000
     46 H1          1.8690    0.8840   -0.5110 hx        1 LXT      0.140700
     47 HN2         1.9850   -0.9510    1.6930 hn        1 LXT      0.288800
     48 H3          1.5840   -1.2960   -1.7130 hc        1 LXT      0.062200
     49 H3A         1.7290   -2.1320   -0.1610 hc        1 LXT      0.062200
     50 HN5        -0.3820    0.8140   -1.6720 hn        1 LXT      0.293300
     51 H7         -2.5000   -0.5840   -0.3300 hx        1 LXT      0.133700
     52 H8         -2.2150    2.0440   -1.8290 hc        1 LXT      0.071700
     53 H8A        -3.7270    1.4480   -1.1310 hc        1 LXT      0.071700
     54 HN11       -4.3450    0.2220   -2.6220 hn        1 LXT      0.283300
     55 H12        -4.0950   -2.3050   -4.0180 hx        1 LXT      0.092700
     56 H12A       -4.0930   -0.7020   -4.7670 hx        1 LXT      0.092700
     57 H14        -6.1120   -3.2160   -3.0160 ha        1 LXT      0.105000
     58 H15        -8.5790   -3.2200   -3.0290 ha        1 LXT      0.144500
     59 H17        -8.5760    0.6280   -4.8800 ha        1 LXT      0.144500
     60 H18        -6.1100    0.6440   -4.8440 ha        1 LXT      0.105000
     61 H19       -10.5950   -1.8270   -3.0650 hc        1 LXT      0.039033
     62 H19A      -10.5950   -0.2630   -3.8910 hc        1 LXT      0.039033
     63 H19B      -10.5950   -1.7610   -4.8320 hc        1 LXT      0.039033
     64 H20        -1.1640    1.9970    0.4090 hc        1 LXT      0.001200
     65 H20A       -2.6760    1.4000    1.1070 hc        1 LXT      0.001200
     66 H22        -0.9620    4.2830   -0.3690 ha        1 LXT      0.090000
     67 H23        -1.7940    6.5980   -0.1940 ha        1 LXT      0.134500
     68 H24        -4.0290    7.0360    0.7510 ha        1 LXT      0.140000
     69 H25        -5.4350    5.1590    1.5140 ha        1 LXT      0.134500
     70 H26        -4.6320    2.8410    1.2690 ha        1 LXT      0.090000
     71 H27         3.9740   -1.1440    0.1610 hc        1 LXT      0.010700
     72 H27A        3.8290   -0.3080   -1.3910 hc        1 LXT      0.010700
     73 H29         3.9180   -1.5330   -3.4850 ha        1 LXT      0.091000
     74 H30         4.7390   -3.5480   -4.6470 ha        1 LXT      0.135500
     75 H31         5.3200   -5.5650   -3.3540 ha        1 LXT      0.141000
     76 H32         5.0840   -5.5680   -0.9010 ha        1 LXT      0.135500
     77 H33         4.2740   -3.5500    0.2620 ha        1 LXT      0.091000
     78 H36         3.4330   -0.4330    3.5680 hx        1 LXT      0.114700
     79 H37         2.0310    1.6330    3.7640 hc        1 LXT      0.055200
     80 H37A        3.4680    2.6020    3.4100 hc        1 LXT      0.055200
     81 HN38        5.5530    0.2030    2.2500 hn        1 LXT      0.257467
     82 HN3A        5.5570    0.1360    3.8830 hn        1 LXT      0.257467
     83 H41         4.6010    1.6450    5.3900 hc        1 LXT      0.024700
     84 H41A        3.1630    0.6770    5.7450 hc        1 LXT      0.024700
     85 H43         1.1140    1.7240    6.5370 ha        1 LXT      0.095500
     86 H44         0.1430    3.6200    7.7780 ha        1 LXT      0.131000
     87 H45         1.3860    5.7430    7.9570 ha        1 LXT      0.135000
     88 H46         3.6150    5.9570    6.9240 ha        1 LXT      0.131000
     89 H47         4.6080    4.0440    5.7280 ha        1 LXT      0.095500
     90 H221        1.3370    0.5250    1.9220 hn        1 LXT      0.288800
     91 H52        -0.3900   -0.8180   -1.6680 hn        1 LXT      0.293300
     92 H112       -4.3470   -1.2460   -1.9290 hn        1 LXT      0.283300
     93 H383        5.4400    1.5790    3.1270 hn        1 LXT      0.257467
@<TRIPOS>BOND
     1    1    2 1   
     2    1    3 1   
     3    1    4 1   
     4    1   46 1   
     5    2   34 1   
     6    2   47 1   
     7    2   90 1   
     8    3   27 1   
     9    3   48 1   
    10    3   49 1   
    11    4    5 1   
    12    4    6 2   
    13    5    7 1   
    14    5   50 1   
    15    5   91 1   
    16    7    8 1   
    17    7    9 1   
    18    7   51 1   
    19    8   20 1   
    20    8   52 1   
    21    8   53 1   
    22    9   10 2   
    23    9   11 1   
    24   11   12 1   
    25   11   54 1   
    26   11   92 1   
    27   12   13 1   
    28   12   55 1   
    29   12   56 1   
    30   13   14 ar  
    31   13   18 ar  
    32   14   15 ar  
    33   14   57 1   
    34   15   16 ar  
    35   15   58 1   
    36   16   17 ar  
    37   16   19 1   
    38   17   18 ar  
    39   17   59 1   
    40   18   60 1   
    41   19   61 1   
    42   19   62 1   
    43   19   63 1   
    44   20   21 1   
    45   20   64 1   
    46   20   65 1   
    47   21   22 ar  
    48   21   26 ar  
    49   22   23 ar  
    50   22   66 1   
    51   23   24 ar  
    52   23   67 1   
    53   24   25 ar  
    54   24   68 1   
    55   25   26 ar  
    56   25   69 1   
    57   26   70 1   
    58   27   28 1   
    59   27   71 1   
    60   27   72 1   
    61   28   29 ar  
    62   28   33 ar  
    63   29   30 ar  
    64   29   73 1   
    65   30   31 ar  
    66   30   74 1   
    67   31   32 ar  
    68   31   75 1   
    69   32   33 ar  
    70   32   76 1   
    71   33   77 1   
    72   34   35 2   
    73   34   36 1   
    74   36   37 1   
    75   36   38 1   
    76   36   78 1   
    77   37   39 1   
    78   37   79 1   
    79   37   80 1   
    80   38   81 1   
    81   38   82 1   
    82   38   93 1   
    83   39   40 1   
    84   39   83 1   
    85   39   84 1   
    86   40   41 ar  
    87   40   45 ar  
    88   41   42 ar  
    89   41   85 1   
    90   42   43 ar  
    91   42   86 1   
    92   43   44 ar  
    93   43   87 1   
    94   44   45 ar  
    95   44   88 1   
    96   45   89 1   
@<TRIPOS>SUBSTRUCTURE
     1 LXT         1 TEMP              0 ****  ****    0 ROOT
