@<TRIPOS>MOLECULE
LXT
   93    96     1     0     0
SMALL
bcc


@<TRIPOS>ATOM
      1 C1          1.2430    0.5240    0.1720 c3        1 LXT      0.064500
      2 N2          1.7200    0.7270    1.5970 n4        1 LXT     -0.671800
      3 C3          1.9940   -0.6320   -0.5070 c3        1 LXT     -0.135400
      4 C4         -0.2800    0.2750    0.1440 c         1 LXT      0.523100
      5 N5         -0.8970    0.0100   -1.1960 n4        1 LXT     -0.662800
      6 O6         -0.9950    0.2700    1.1350 o         1 LXT     -0.381100
      7 C7         -2.3790    0.3650   -1.3000 c3        1 LXT      0.052500
      8 C8         -2.5570    1.7830   -1.8550 c3        1 LXT     -0.134400
      9 C9         -3.0980   -0.6720   -2.1950 c         1 LXT      0.507100
     10 O10        -2.4890   -1.6160   -2.6940 o         1 LXT     -0.415100
     11 N11        -4.5430   -0.5410   -2.4190 n4        1 LXT     -0.683800
     12 C12        -5.3550   -1.8010   -1.9660 c3        1 LXT      0.230100
     13 C13        -6.7160   -1.6850   -2.4870 ca        1 LXT     -0.264300
     14 C14        -7.7370   -1.1090   -1.7040 ca        1 LXT     -0.065500
     15 C15        -9.0440   -1.0900   -2.1630 ca        1 LXT     -0.134500
     16 C16        -9.3720   -1.6420   -3.4170 ca        1 LXT      0.064700
     17 C17        -8.3490   -2.2070   -4.2030 ca        1 LXT     -0.134500
     18 C18        -7.0400   -2.2290   -3.7480 ca        1 LXT     -0.065500
     19 C19       -10.7690   -1.6490   -3.8910 c3        1 LXT     -0.101800
     20 C20        -1.9410    2.8420   -0.9520 c3        1 LXT     -0.002100
     21 C21        -2.1170    4.1930   -1.5470 ca        1 LXT     -0.174300
     22 C22        -1.3950    4.5580   -2.6910 ca        1 LXT     -0.122000
     23 C23        -1.5540    5.8270   -3.2430 ca        1 LXT     -0.103000
     24 C24        -2.4320    6.7420   -2.6530 ca        1 LXT     -0.071000
     25 C25        -3.1480    6.3820   -1.5110 ca        1 LXT     -0.103000
     26 C26        -2.9930    5.1110   -0.9570 ca        1 LXT     -0.122000
     27 C27         3.4980   -0.3900   -0.5610 c3        1 LXT     -0.001100
     28 C28         4.1780   -1.5190   -1.2470 ca        1 LXT     -0.183300
     29 C29         4.7640   -1.3260   -2.5040 ca        1 LXT     -0.120000
     30 C30         5.4410   -2.3760   -3.1260 ca        1 LXT     -0.102000
     31 C31         5.5350   -3.6190   -2.4980 ca        1 LXT     -0.065000
     32 C32         4.9500   -3.8140   -1.2430 ca        1 LXT     -0.102000
     33 C33         4.2750   -2.7680   -0.6190 ca        1 LXT     -0.120000
     34 C34         2.8850    1.6950    1.7200 c         1 LXT      0.523100
     35 O35         2.9500    2.6010    0.9080 o         1 LXT     -0.365100
     36 C36         3.8500    1.4510    2.8930 c3        1 LXT      0.070500
     37 C37         3.0910    1.5040    4.2310 c3        1 LXT     -0.129400
     38 N38         4.9790    2.4380    2.8630 n4        1 LXT     -0.841600
     39 C41         4.0210    1.3050    5.4260 c3        1 LXT     -0.027100
     40 C42         3.2180    1.0270    6.6470 ca        1 LXT     -0.169300
     41 C43         3.1220   -0.2790    7.1430 ca        1 LXT     -0.118000
     42 C44         2.4340   -0.5240    8.3310 ca        1 LXT     -0.107500
     43 C45         1.8390    0.5290    9.0270 ca        1 LXT     -0.072000
     44 C46         1.9320    1.8330    8.5320 ca        1 LXT     -0.107500
     45 C47         2.6200    2.0830    7.3470 ca        1 LXT     -0.118000
     46 H1          1.4430    1.4960   -0.3930 hx        1 LXT      0.176700
     47 HN2         2.0050   -0.1900    1.9810 hn        1 LXT      0.493800
     48 H3          1.6370   -0.7240   -1.5690 hc        1 LXT      0.107200
     49 H3A         1.7890   -1.6080    0.0110 hc        1 LXT      0.107200
     50 HN5        -0.7780   -1.0010   -1.4120 hn        1 LXT      0.497300
     51 H7         -2.8200    0.3000   -0.2540 hx        1 LXT      0.164700
     52 H8         -3.6580    2.0060   -1.9320 hc        1 LXT      0.114200
     53 H8A        -2.1300    1.8690   -2.8930 hc        1 LXT      0.114200
     54 HN11       -4.9310    0.2850   -1.9510 hn        1 LXT      0.477800
     55 H12        -5.3140   -1.8030   -0.8430 hx        1 LXT      0.109700
     56 H12A       -4.8010   -2.6860   -2.3920 hx        1 LXT      0.109700
     57 H14        -7.5040   -0.6980   -0.7090 ha        1 LXT      0.139000
     58 H15        -9.8440   -0.6530   -1.5400 ha        1 LXT      0.182500
     59 H17        -8.6010   -2.6480   -5.1840 ha        1 LXT      0.182500
     60 H18        -6.2580   -2.7020   -4.3640 ha        1 LXT      0.139000
     61 H19       -11.3550   -0.8020   -3.4540 hc        1 LXT      0.091367
     62 H19A      -10.8220   -1.5830   -5.0080 hc        1 LXT      0.091367
     63 H19B      -11.2650   -2.6080   -3.5800 hc        1 LXT      0.091367
     64 H20        -2.4220    2.7990    0.0620 hc        1 LXT      0.022200
     65 H20A       -0.8430    2.6330   -0.8160 hc        1 LXT      0.022200
     66 H22        -0.7010    3.8460   -3.1590 ha        1 LXT      0.120000
     67 H23        -0.9880    6.1130   -4.1450 ha        1 LXT      0.171500
     68 H24        -2.5580    7.7470   -3.0920 ha        1 LXT      0.181000
     69 H25        -3.8400    7.1040   -1.0440 ha        1 LXT      0.171500
     70 H26        -3.5610    4.8410   -0.0540 ha        1 LXT      0.120000
     71 H27         3.7060    0.5750   -1.1000 hc        1 LXT      0.030200
     72 H27A        3.9030   -0.2950    0.4840 hc        1 LXT      0.030200
     73 H29         4.7090   -0.3470   -3.0030 ha        1 LXT      0.121500
     74 H30         5.9100   -2.2190   -4.1120 ha        1 LXT      0.175000
     75 H31         6.0780   -4.4470   -2.9890 ha        1 LXT      0.184000
     76 H32         5.0320   -4.7950   -0.7460 ha        1 LXT      0.175000
     77 H33         3.8300   -2.9260    0.3740 ha        1 LXT      0.121500
     78 H36         4.3170    0.4180    2.7660 hx        1 LXT      0.165700
     79 H37         2.5470    2.4790    4.3460 hc        1 LXT      0.094700
     80 H37A        2.3370    0.6710    4.2390 hc        1 LXT      0.094700
     81 HN38        4.6340    3.4010    3.0000 hn        1 LXT      0.500133
     82 HN3A        5.5010    2.3930    1.9770 hn        1 LXT      0.500133
     83 H41         4.6300    2.2340    5.6010 hc        1 LXT      0.064700
     84 H41A        4.7230    0.4510    5.2280 hc        1 LXT      0.064700
     85 H43         3.6170   -1.1110    6.6210 ha        1 LXT      0.126500
     86 H44         2.3790   -1.5500    8.7320 ha        1 LXT      0.169500
     87 H45         1.3110    0.3360    9.9770 ha        1 LXT      0.177000
     88 H46         1.4780    2.6680    9.0920 ha        1 LXT      0.169500
     89 H47         2.7160    3.1160    6.9820 ha        1 LXT      0.126500
     90 H221        0.9450    1.0910    2.1820 hn        1 LXT      0.493800
     91 H52        -0.3910    0.5500   -1.9170 hn        1 LXT      0.497300
     92 H112       -4.7190   -0.4430   -3.4370 hn        1 LXT      0.477800
     93 H383        5.6230    2.2130    3.6480 hn        1 LXT      0.500133
@<TRIPOS>BOND
     1    1    2 1   
     2    1    3 1   
     3    1    4 1   
     4    1   46 1   
     5    2   34 1   
     6    2   47 1   
     7    2   90 1   
     8    3   27 1   
     9    3   48 1   
    10    3   49 1   
    11    4    5 1   
    12    4    6 2   
    13    5    7 1   
    14    5   50 1   
    15    5   91 1   
    16    7    8 1   
    17    7    9 1   
    18    7   51 1   
    19    8   20 1   
    20    8   52 1   
    21    8   53 1   
    22    9   10 2   
    23    9   11 1   
    24   11   12 1   
    25   11   54 1   
    26   11   92 1   
    27   12   13 1   
    28   12   55 1   
    29   12   56 1   
    30   13   14 ar  
    31   13   18 ar  
    32   14   15 ar  
    33   14   57 1   
    34   15   16 ar  
    35   15   58 1   
    36   16   17 ar  
    37   16   19 1   
    38   17   18 ar  
    39   17   59 1   
    40   18   60 1   
    41   19   61 1   
    42   19   62 1   
    43   19   63 1   
    44   20   21 1   
    45   20   64 1   
    46   20   65 1   
    47   21   22 ar  
    48   21   26 ar  
    49   22   23 ar  
    50   22   66 1   
    51   23   24 ar  
    52   23   67 1   
    53   24   25 ar  
    54   24   68 1   
    55   25   26 ar  
    56   25   69 1   
    57   26   70 1   
    58   27   28 1   
    59   27   71 1   
    60   27   72 1   
    61   28   29 ar  
    62   28   33 ar  
    63   29   30 ar  
    64   29   73 1   
    65   30   31 ar  
    66   30   74 1   
    67   31   32 ar  
    68   31   75 1   
    69   32   33 ar  
    70   32   76 1   
    71   33   77 1   
    72   34   35 2   
    73   34   36 1   
    74   36   37 1   
    75   36   38 1   
    76   36   78 1   
    77   37   39 1   
    78   37   79 1   
    79   37   80 1   
    80   38   81 1   
    81   38   82 1   
    82   38   93 1   
    83   39   40 1   
    84   39   83 1   
    85   39   84 1   
    86   40   41 ar  
    87   40   45 ar  
    88   41   42 ar  
    89   41   85 1   
    90   42   43 ar  
    91   42   86 1   
    92   43   44 ar  
    93   43   87 1   
    94   44   45 ar  
    95   44   88 1   
    96   45   89 1   
@<TRIPOS>SUBSTRUCTURE
     1 LXT         1 TEMP              0 ****  ****    0 ROOT
