@<TRIPOS>MOLECULE
LXT
   89    92     1     0     0
SMALL
bcc


@<TRIPOS>ATOM
      1 C1         -1.7060   -1.9440    0.3200 c3        1 LXT      0.035700
      2 N2         -3.0310   -1.6630   -0.1690 n         1 LXT     -0.545900
      3 C3         -1.2230   -3.3670   -0.0100 c3        1 LXT     -0.085400
      4 C4         -0.6650   -0.9770   -0.3070 c         1 LXT      0.633100
      5 N5          0.4000   -0.6120    0.4920 n         1 LXT     -0.540900
      6 O6         -0.8030   -0.5330   -1.4650 o         1 LXT     -0.617100
      7 C7          1.5370    0.1040   -0.0300 c3        1 LXT      0.029700
      8 C8          1.9310    1.3240    0.8200 c3        1 LXT     -0.082400
      9 C9          2.7920   -0.8090   -0.0870 c         1 LXT      0.630100
     10 O10         2.9700   -1.7090    0.7590 o         1 LXT     -0.617100
     11 N11         3.6690   -0.5990   -1.1280 n         1 LXT     -0.549900
     12 C12         4.9450   -1.2610   -1.2070 c3        1 LXT      0.127300
     13 C13         6.1200   -0.3370   -1.0610 ca        1 LXT     -0.127300
     14 C14         6.4570    0.5380   -2.0990 ca        1 LXT     -0.113000
     15 C15         7.5560    1.3830   -1.9770 ca        1 LXT     -0.132000
     16 C16         8.3360    1.3660   -0.8140 ca        1 LXT     -0.067300
     17 C17         7.9960    0.4890    0.2230 ca        1 LXT     -0.132000
     18 C18         6.8940   -0.3540    0.1030 ca        1 LXT     -0.113000
     19 C19         9.4970    2.2750   -0.6770 c3        1 LXT     -0.056800
     20 C20         0.8620    2.3980    0.7920 c3        1 LXT     -0.036100
     21 C21         1.3040    3.6190    1.5220 ca        1 LXT     -0.082300
     22 C22         1.3670    3.6180    2.9210 ca        1 LXT     -0.126500
     23 C23         1.7710    4.7610    3.6070 ca        1 LXT     -0.128000
     24 C24         2.1140    5.9150    2.9040 ca        1 LXT     -0.131000
     25 C25         2.0500    5.9230    1.5110 ca        1 LXT     -0.128000
     26 C26         1.6470    4.7800    0.8220 ca        1 LXT     -0.126500
     27 C27        -2.0080   -4.4120    0.7570 c3        1 LXT     -0.036100
     28 C28        -1.4680   -5.7790    0.5170 ca        1 LXT     -0.082300
     29 C29        -0.2210   -6.1460    1.0380 ca        1 LXT     -0.126000
     30 C30         0.2800   -7.4290    0.8250 ca        1 LXT     -0.128000
     31 C31        -0.4590   -8.3570    0.0900 ca        1 LXT     -0.131000
     32 C32        -1.7020   -7.9970   -0.4300 ca        1 LXT     -0.128000
     33 C33        -2.2050   -6.7140   -0.2180 ca        1 LXT     -0.126000
     34 C34        -3.9970   -1.0770    0.6260 c         1 LXT      0.661100
     35 O35        -3.8360   -0.9180    1.8520 o         1 LXT     -0.610100
     36 C36        -5.3070   -0.6410   -0.0690 c3        1 LXT      0.108500
     37 C37        -5.1930    0.8800   -0.2690 c3        1 LXT     -0.118400
     38 N38        -6.4520   -1.1140    0.6810 n3        1 LXT     -0.900800
     39 C41        -6.3220    1.4200   -1.1230 c3        1 LXT     -0.034100
     40 C42        -6.0930    2.8450   -1.4910 ca        1 LXT     -0.082300
     41 C43        -5.1120    3.1790   -2.4330 ca        1 LXT     -0.125500
     42 C44        -4.9020    4.5100   -2.7870 ca        1 LXT     -0.127000
     43 C45        -5.6700    5.5190   -2.2050 ca        1 LXT     -0.130000
     44 C46        -6.6480    5.1930   -1.2670 ca        1 LXT     -0.127000
     45 C47        -6.8600    3.8620   -0.9110 ca        1 LXT     -0.125500
     46 H1         -1.7210   -1.8160    1.4460 h1        1 LXT      0.105700
     47 HN2        -3.1340   -1.6350   -1.1580 hn        1 LXT      0.324500
     48 H3         -1.3050   -3.5560   -1.1110 hc        1 LXT      0.061700
     49 H3A        -0.1380   -3.4390    0.2670 hc        1 LXT      0.061700
     50 HN5         0.5570   -1.1110    1.3400 hn        1 LXT      0.326500
     51 H7          1.2690    0.4600   -1.0720 h1        1 LXT      0.101700
     52 H8          2.1280    1.0100    1.8790 hc        1 LXT      0.058700
     53 H8A         2.8880    1.7370    0.4060 hc        1 LXT      0.058700
     54 HN11        3.5570    0.2170   -1.6840 hn        1 LXT      0.309500
     55 H12         4.9870   -2.0650   -0.4150 h1        1 LXT      0.071700
     56 H12A        5.0070   -1.7620   -2.2180 h1        1 LXT      0.071700
     57 H14         5.8540    0.5520   -3.0190 ha        1 LXT      0.135000
     58 H15         7.8180    2.0660   -2.7990 ha        1 LXT      0.134000
     59 H17         8.6040    0.4680    1.1410 ha        1 LXT      0.134000
     60 H18         6.6330   -1.0370    0.9260 ha        1 LXT      0.135000
     61 H19         9.1740    3.2380   -0.2080 hc        1 LXT      0.046367
     62 H19A       10.2870    1.8200   -0.0290 hc        1 LXT      0.046367
     63 H19B        9.9460    2.5050   -1.6740 hc        1 LXT      0.046367
     64 H20         0.6150    2.6530   -0.2730 hc        1 LXT      0.058200
     65 H20A       -0.0800    2.0080    1.2650 hc        1 LXT      0.058200
     66 H22         1.0940    2.7080    3.4770 ha        1 LXT      0.131500
     67 H23         1.8170    4.7520    4.7060 ha        1 LXT      0.131000
     68 H24         2.4310    6.8170    3.4470 ha        1 LXT      0.131000
     69 H25         2.3180    6.8330    0.9530 ha        1 LXT      0.131000
     70 H26         1.5960    4.7930   -0.2770 ha        1 LXT      0.131500
     71 H27        -1.9600   -4.1840    1.8570 hc        1 LXT      0.058200
     72 H27A       -3.0900   -4.3690    0.4580 hc        1 LXT      0.058200
     73 H29         0.3630   -5.4170    1.6190 ha        1 LXT      0.132500
     74 H30         1.2610   -7.7090    1.2370 ha        1 LXT      0.131000
     75 H31        -0.0620   -9.3680   -0.0770 ha        1 LXT      0.130000
     76 H32        -2.2880   -8.7270   -1.0070 ha        1 LXT      0.131000
     77 H33        -3.1880   -6.4370   -0.6280 ha        1 LXT      0.132500
     78 H36        -5.3900   -1.1210   -1.0910 h1        1 LXT      0.070700
     79 H37        -5.1830    1.3940    0.7270 hc        1 LXT      0.063200
     80 H37A       -4.2130    1.1010   -0.7700 hc        1 LXT      0.063200
     81 HN38       -6.2990   -1.0190    1.6680 hn        1 LXT      0.362800
     82 HN3A       -7.2700   -0.5970    0.4220 hn        1 LXT      0.362800
     83 H41        -6.4090    0.8070   -2.0620 hc        1 LXT      0.048200
     84 H41A       -7.2970    1.3250   -0.5750 hc        1 LXT      0.048200
     85 H43        -4.5060    2.3850   -2.8930 ha        1 LXT      0.131500
     86 H44        -4.1300    4.7640   -3.5280 ha        1 LXT      0.132000
     87 H45        -5.5030    6.5690   -2.4860 ha        1 LXT      0.131000
     88 H46        -7.2550    5.9860   -0.8060 ha        1 LXT      0.132000
     89 H47        -7.6340    3.6100   -0.1700 ha        1 LXT      0.131500
@<TRIPOS>BOND
     1    1    2 1   
     2    1    3 1   
     3    1    4 1   
     4    1   46 1   
     5    2   34 1   
     6    2   47 1   
     7    3   27 1   
     8    3   48 1   
     9    3   49 1   
    10    4    5 1   
    11    4    6 2   
    12    5    7 1   
    13    5   50 1   
    14    7    8 1   
    15    7    9 1   
    16    7   51 1   
    17    8   20 1   
    18    8   52 1   
    19    8   53 1   
    20    9   10 2   
    21    9   11 1   
    22   11   12 1   
    23   11   54 1   
    24   12   13 1   
    25   12   55 1   
    26   12   56 1   
    27   13   14 ar  
    28   13   18 ar  
    29   14   15 ar  
    30   14   57 1   
    31   15   16 ar  
    32   15   58 1   
    33   16   17 ar  
    34   16   19 1   
    35   17   18 ar  
    36   17   59 1   
    37   18   60 1   
    38   19   61 1   
    39   19   62 1   
    40   19   63 1   
    41   20   21 1   
    42   20   64 1   
    43   20   65 1   
    44   21   22 ar  
    45   21   26 ar  
    46   22   23 ar  
    47   22   66 1   
    48   23   24 ar  
    49   23   67 1   
    50   24   25 ar  
    51   24   68 1   
    52   25   26 ar  
    53   25   69 1   
    54   26   70 1   
    55   27   28 1   
    56   27   71 1   
    57   27   72 1   
    58   28   29 ar  
    59   28   33 ar  
    60   29   30 ar  
    61   29   73 1   
    62   30   31 ar  
    63   30   74 1   
    64   31   32 ar  
    65   31   75 1   
    66   32   33 ar  
    67   32   76 1   
    68   33   77 1   
    69   34   35 2   
    70   34   36 1   
    71   36   37 1   
    72   36   38 1   
    73   36   78 1   
    74   37   39 1   
    75   37   79 1   
    76   37   80 1   
    77   38   81 1   
    78   38   82 1   
    79   39   40 1   
    80   39   83 1   
    81   39   84 1   
    82   40   41 ar  
    83   40   45 ar  
    84   41   42 ar  
    85   41   85 1   
    86   42   43 ar  
    87   42   86 1   
    88   43   44 ar  
    89   43   87 1   
    90   44   45 ar  
    91   44   88 1   
    92   45   89 1   
@<TRIPOS>SUBSTRUCTURE
     1 LXT         1 TEMP              0 ****  ****    0 ROOT
