@<TRIPOS>MOLECULE
LXT
   89    84     1     0     0
SMALL
bcc


@<TRIPOS>ATOM
      1 C1          1.2180    0.8770    0.0040 c3        1 LXT      0.016000
      2 N2          1.7240    0.8250    1.3130 n         1 LXT     -0.363000
      3 C3          1.6990   -0.3300   -0.7710 c3        1 LXT     -0.160000
      4 C4         -0.3400    0.8820    0.0500 c2        1 LXT      0.287000
      5 N5         -1.1170    0.8900   -1.2030 n         1 LXT     -0.365000
      6 O6         -0.9130    0.9490    1.1170 o         1 LXT     -0.393000
      7 C7         -2.4980    0.4320   -1.2010 c3        1 LXT      0.012000
      8 C8         -3.1260    0.7310   -2.5240 c3        1 LXT     -0.159000
      9 C9         -2.5370   -1.0620   -0.9490 c2        1 LXT      0.281000
     10 O10        -1.6690   -1.7690   -1.3910 o         1 LXT     -0.373000
     11 N11        -3.6520   -1.6410   -0.2590 n         1 LXT     -0.364000
     12 C12        -3.6770   -3.0660    0.0160 c3        1 LXT      0.005000
     13 C13        -4.9280   -3.4030    0.8490 c2        1 LXT     -0.113000
     14 C14        -5.9520   -4.1650    0.2930 c2        1 LXT     -0.109000
     15 C15        -7.0820   -4.4710    1.0500 c1        1 LXT     -0.133000
     16 C16        -7.1870   -4.0140    2.3630 c1        1 LXT     -0.066000
     17 C17        -6.1630   -3.2530    2.9180 c1        1 LXT     -0.132000
     18 C18        -5.0330   -2.9470    2.1610 c1        1 LXT     -0.118000
     19 C19        -8.4240   -4.3680    3.2050 c3        1 LXT     -0.180000
     20 C20        -4.1630    1.8740   -2.3590 c3        1 LXT     -0.126000
     21 C21        -5.1290    1.8650   -3.5510 c2        1 LXT     -0.073000
     22 C22        -6.4530    1.4670   -3.3720 c2        1 LXT     -0.128000
     23 C23        -7.3320    1.4770   -4.4460 c1        1 LXT     -0.129000
     24 C24        -6.8930    1.8830   -5.6970 c1        1 LXT     -0.129167
     25 C25        -5.5720    2.2810   -5.8760 c1        1 LXT     -0.129167
     26 C26        -4.6910    2.2700   -4.8000 c1        1 LXT     -0.125000
     27 C27         3.1440   -0.0740   -1.2880 c3        1 LXT     -0.125000
     28 C28         3.5610   -1.2030   -2.1930 c2        1 LXT     -0.075000
     29 C29         3.5180   -1.0390   -3.5620 c2        1 LXT     -0.125000
     30 C30         3.9470   -2.0590   -4.3960 c1        1 LXT     -0.127000
     31 C31         4.4180   -3.2440   -3.8550 c1        1 LXT     -0.129167
     32 C32         4.4610   -3.4100   -2.4810 c1        1 LXT     -0.129167
     33 C33         4.0330   -2.3920   -1.6500 c1        1 LXT     -0.126000
     34 C34         2.7850    1.6910    1.7030 c2        1 LXT      0.306000
     35 O35         2.9070    2.7810    1.1730 o         1 LXT     -0.393000
     36 C36         3.6870    1.3070    2.8640 c3        1 LXT     -0.048000
     37 C37         4.7660    2.3670    3.0400 c3        1 LXT     -0.188000
     38 N38         4.2910    0.0540    2.5980 n3        1 LXT     -0.345000
     39 C41         5.7770    1.9010    4.1050 c3        1 LXT     -0.122000
     40 C42         7.0740    2.7770    4.0130 c2        1 LXT     -0.076000
     41 C43         7.2290    3.8920    4.8490 c2        1 LXT     -0.123000
     42 C44         8.3970    4.6700    4.7730 c1        1 LXT     -0.125000
     43 C45         9.4030    4.3320    3.8650 c1        1 LXT     -0.129167
     44 C46         9.2480    3.2170    3.0290 c1        1 LXT     -0.129167
     45 C47         8.0820    2.4400    3.1040 c1        1 LXT     -0.126000
     46 H1          1.5360    1.6980   -0.4390 h1        1 LXT      0.124000
     47 HN2         1.3730    0.2360    1.9130 hn        1 LXT      0.250000
     48 H3          1.6960   -1.1170   -0.1840 hc        1 LXT      0.111000
     49 H3A         1.1050   -0.4870   -1.5290 hc        1 LXT      0.111000
     50 HN5        -0.7650    1.2890   -1.9620 hn        1 LXT      0.261000
     51 H7         -2.9910    0.8920   -0.4980 h1        1 LXT      0.120000
     52 H8         -3.5780   -0.0740   -2.8610 hc        1 LXT      0.112500
     53 H8A        -2.4320    1.0070   -3.1600 hc        1 LXT      0.112500
     54 HN11       -4.3250   -1.1060    0.0470 hn        1 LXT      0.246000
     55 H12        -3.7040   -3.5660   -0.8360 h1        1 LXT      0.106500
     56 H12A       -2.8750   -3.3160    0.5160 h1        1 LXT      0.106500
     57 H14        -5.8780   -4.4880   -0.6380 ha        1 LXT      0.139000
     58 H15        -7.8020   -5.0060    0.6590 ha        1 LXT      0.132000
     59 H17        -6.2370   -2.9280    3.8540 ha        1 LXT      0.131000
     60 H18        -4.3090   -2.4090    2.5550 ha        1 LXT      0.134000
     61 H19        -8.4480   -3.8020    4.0040 hc        1 LXT      0.083333
     62 H19A       -8.3770   -5.3130    3.4750 hc        1 LXT      0.083333
     63 H19B       -9.2360   -4.2190    2.6730 hc        1 LXT      0.083333
     64 H20        -4.6690    1.7400   -1.5250 hc        1 LXT      0.089500
     65 H20A       -3.6930    2.7410   -2.3230 hc        1 LXT      0.089500
     66 H22        -6.7610    1.1820   -2.4950 ha        1 LXT      0.130000
     67 H23        -8.2710    1.1950   -4.3200 ha        1 LXT      0.130000
     68 H24        -7.5070    1.8910   -6.4470 ha        1 LXT      0.131333
     69 H25        -5.2620    2.5670   -6.7570 ha        1 LXT      0.131333
     70 H26        -3.7670    2.5480   -4.9240 ha        1 LXT      0.137000
     71 H27         3.1680    0.7680   -1.7860 hc        1 LXT      0.090000
     72 H27A        3.7570   -0.0210   -0.5290 hc        1 LXT      0.090000
     73 H29         3.1840   -0.1970   -3.9470 ha        1 LXT      0.131000
     74 H30         3.9170   -1.9420   -5.3620 ha        1 LXT      0.132000
     75 H31         4.7200   -3.9620   -4.4430 ha        1 LXT      0.131333
     76 H32         4.7950   -4.2520   -2.0960 ha        1 LXT      0.131333
     77 H33         4.0630   -2.5090   -0.6750 ha        1 LXT      0.130000
     78 H36         3.1530    1.2450    3.6860 h1        1 LXT      0.118000
     79 H37         5.2240    2.5030    2.1980 hc        1 LXT      0.110500
     80 H37A        4.3550    3.2050    3.3270 hc        1 LXT      0.110500
     81 HN38        5.1510    0.1830    2.3190 hn        1 LXT      0.155500
     82 HN3A        4.2900   -0.4580    3.3660 hn        1 LXT      0.155500
     83 H41         5.3820    1.9970    4.9920 hc        1 LXT      0.083000
     84 H41A        6.0040    0.9650    3.9500 hc        1 LXT      0.083000
     85 H43         6.5290    4.1270    5.4800 ha        1 LXT      0.136000
     86 H44         8.5050    5.4500    5.3590 ha        1 LXT      0.134000
     87 H45        10.2170    4.8740    3.8130 ha        1 LXT      0.131333
     88 H46         9.9490    2.9830    2.3970 ha        1 LXT      0.131333
     89 H47         7.9750    1.6650    2.5230 ha        1 LXT      0.128000
@<TRIPOS>BOND
     1    1    2 1   
     2    1    3 1   
     3    1    4 1   
     4    1   46 1   
     5    2   34 1   
     6    2   47 1   
     7    3   27 1   
     8    3   48 1   
     9    3   49 1   
    10    4    5 1   
    11    4    6 1   
    12    5    7 1   
    13    5   50 1   
    14    7    8 1   
    15    7    9 1   
    16    7   51 1   
    17    8   20 1   
    18    8   52 1   
    19    8   53 1   
    20    9   10 1   
    21    9   11 1   
    22   11   12 1   
    23   11   54 1   
    24   12   13 1   
    25   12   55 1   
    26   12   56 1   
    27   13   14 1   
    28   13   18 1   
    29   14   15 1   
    30   14   57 1   
    31   15   58 1   
    32   16   17 1   
    33   16   19 1   
    34   17   59 1   
    35   18   60 1   
    36   19   61 1   
    37   19   62 1   
    38   19   63 1   
    39   20   21 1   
    40   20   64 1   
    41   20   65 1   
    42   21   22 1   
    43   21   26 1   
    44   22   23 1   
    45   22   66 1   
    46   23   67 1   
    47   24   25 1   
    48   24   68 1   
    49   25   69 1   
    50   26   70 1   
    51   27   28 1   
    52   27   71 1   
    53   27   72 1   
    54   28   29 1   
    55   28   33 1   
    56   29   30 1   
    57   29   73 1   
    58   30   74 1   
    59   31   32 1   
    60   31   75 1   
    61   32   76 1   
    62   33   77 1   
    63   34   35 1   
    64   34   36 1   
    65   36   37 1   
    66   36   38 1   
    67   36   78 1   
    68   37   39 1   
    69   37   79 1   
    70   37   80 1   
    71   38   81 1   
    72   38   82 1   
    73   39   40 1   
    74   39   83 1   
    75   39   84 1   
    76   40   41 1   
    77   40   45 1   
    78   41   42 1   
    79   41   85 1   
    80   42   86 1   
    81   43   44 1   
    82   43   87 1   
    83   44   88 1   
    84   45   89 1   
@<TRIPOS>SUBSTRUCTURE
     1 LXT         1 TEMP              0 ****  ****    0 ROOT
