@<TRIPOS>MOLECULE
LXT
   93    96     1     0     0
SMALL
bcc


@<TRIPOS>ATOM
      1 C1          1.2400    0.5300    0.1760 c3        1 LXT      0.064500
      2 N2          1.7150    0.7390    1.6010 n4        1 LXT     -0.671800
      3 C3          1.9940   -0.6280   -0.4970 c3        1 LXT     -0.135400
      4 C4         -0.2820    0.2800    0.1480 c         1 LXT      0.523100
      5 N5         -0.8970    0.0050   -1.1910 n4        1 LXT     -0.663800
      6 O6         -0.9990    0.2810    1.1380 o         1 LXT     -0.381100
      7 C7         -2.3790    0.3600   -1.3010 c3        1 LXT      0.053500
      8 C8         -2.5540    1.7710   -1.8730 c3        1 LXT     -0.134400
      9 C9         -3.0980   -0.6870   -2.1830 c         1 LXT      0.507100
     10 O10        -2.4900   -1.6370   -2.6710 o         1 LXT     -0.415100
     11 N11        -4.5430   -0.5570   -2.4100 n4        1 LXT     -0.683800
     12 C12        -5.3570   -1.8100   -1.9400 c3        1 LXT      0.230100
     13 C13        -6.7180   -1.7000   -2.4630 ca        1 LXT     -0.264300
     14 C14        -7.7380   -1.1100   -1.6880 ca        1 LXT     -0.065500
     15 C15        -9.0440   -1.0970   -2.1480 ca        1 LXT     -0.134500
     16 C16        -9.3730   -1.6670   -3.3940 ca        1 LXT      0.064700
     17 C17        -8.3510   -2.2450   -4.1710 ca        1 LXT     -0.134500
     18 C18        -7.0420   -2.2620   -3.7150 ca        1 LXT     -0.065500
     19 C19       -10.7700   -1.6790   -3.8680 c3        1 LXT     -0.101800
     20 C20        -1.9400    2.8400   -0.9810 c3        1 LXT     -0.002100
     21 C21        -2.1090    4.1840   -1.5940 ca        1 LXT     -0.174300
     22 C22        -1.3830    4.5310   -2.7420 ca        1 LXT     -0.122000
     23 C23        -1.5350    5.7930   -3.3110 ca        1 LXT     -0.103000
     24 C24        -2.4110    6.7180   -2.7360 ca        1 LXT     -0.071000
     25 C25        -3.1320    6.3770   -1.5910 ca        1 LXT     -0.103000
     26 C26        -2.9830    5.1130   -1.0200 ca        1 LXT     -0.122000
     27 C27         3.4980   -0.3850   -0.5500 c3        1 LXT     -0.001100
     28 C28         4.1800   -1.5160   -1.2300 ca        1 LXT     -0.183300
     29 C29         4.7680   -1.3270   -2.4860 ca        1 LXT     -0.120000
     30 C30         5.4470   -2.3790   -3.1030 ca        1 LXT     -0.102000
     31 C31         5.5410   -3.6190   -2.4710 ca        1 LXT     -0.065000
     32 C32         4.9530   -3.8100   -1.2160 ca        1 LXT     -0.102000
     33 C33         4.2760   -2.7630   -0.5980 ca        1 LXT     -0.120000
     34 C34         2.8790    1.7110    1.7220 c         1 LXT      0.523100
     35 O35         2.9420    2.6140    0.9060 o         1 LXT     -0.365100
     36 C36         3.8440    1.4720    2.8950 c3        1 LXT      0.070500
     37 C37         3.0830    1.5260    4.2330 c3        1 LXT     -0.129400
     38 N38         4.9700    2.4630    2.8640 n4        1 LXT     -0.841600
     39 C41         4.0140    1.3330    5.4290 c3        1 LXT     -0.027100
     40 C42         3.2120    1.0520    6.6500 ca        1 LXT     -0.169300
     41 C43         3.1200   -0.2530    7.1470 ca        1 LXT     -0.118000
     42 C44         2.4330   -0.5010    8.3340 ca        1 LXT     -0.107500
     43 C45         1.8330    0.5510    9.0300 ca        1 LXT     -0.072000
     44 C46         1.9210    1.8550    8.5340 ca        1 LXT     -0.107500
     45 C47         2.6090    2.1070    7.3490 ca        1 LXT     -0.118000
     46 H1          1.4400    1.5000   -0.3920 hx        1 LXT      0.176700
     47 HN2         2.0020   -0.1750    1.9890 hn        1 LXT      0.493800
     48 H3          1.7890   -1.6020    0.0250 hc        1 LXT      0.106700
     49 H3A         1.6380   -0.7250   -1.5590 hc        1 LXT      0.106700
     50 HN5        -0.7780   -1.0080   -1.3990 hn        1 LXT      0.497300
     51 H7         -2.8210    0.3080   -0.2540 hx        1 LXT      0.164700
     52 H8         -3.6550    1.9940   -1.9540 hc        1 LXT      0.114200
     53 H8A        -2.1260    1.8450   -2.9100 hc        1 LXT      0.114200
     54 HN11       -4.7190   -0.4730   -3.4300 hn        1 LXT      0.477800
     55 H12        -5.3160   -1.7960   -0.8170 hx        1 LXT      0.109200
     56 H12A       -4.8030   -2.7010   -2.3530 hx        1 LXT      0.109200
     57 H14        -7.5050   -0.6860   -0.6990 ha        1 LXT      0.139000
     58 H15        -9.8440   -0.6500   -1.5310 ha        1 LXT      0.182500
     59 H17        -8.6030   -2.7000   -5.1450 ha        1 LXT      0.182500
     60 H18        -6.2600   -2.7450   -4.3240 ha        1 LXT      0.139000
     61 H19       -11.3550   -0.8240   -3.4430 hc        1 LXT      0.091367
     62 H19A      -10.8220   -1.6300   -4.9860 hc        1 LXT      0.091367
     63 H19B      -11.2670   -2.6330   -3.5430 hc        1 LXT      0.091367
     64 H20        -2.4250    2.8120    0.0320 hc        1 LXT      0.022200
     65 H20A       -0.8430    2.6300   -0.8380 hc        1 LXT      0.022200
     66 H22        -0.6900    3.8100   -3.1980 ha        1 LXT      0.120500
     67 H23        -0.9660    6.0640   -4.2150 ha        1 LXT      0.171500
     68 H24        -2.5320    7.7180   -3.1890 ha        1 LXT      0.181000
     69 H25        -3.8230    7.1080   -1.1360 ha        1 LXT      0.171500
     70 H26        -3.5550    4.8570   -0.1150 ha        1 LXT      0.120500
     71 H27         3.7050    0.5780   -1.0920 hc        1 LXT      0.030200
     72 H27A        3.9010   -0.2850    0.4960 hc        1 LXT      0.030200
     73 H29         4.7130   -0.3500   -2.9890 ha        1 LXT      0.121500
     74 H30         5.9180   -2.2250   -4.0890 ha        1 LXT      0.175000
     75 H31         6.0850   -4.4490   -2.9570 ha        1 LXT      0.184000
     76 H32         5.0350   -4.7900   -0.7150 ha        1 LXT      0.175000
     77 H33         3.8290   -2.9170    0.3950 ha        1 LXT      0.121500
     78 H36         4.3140    0.4410    2.7710 hx        1 LXT      0.165700
     79 H37         2.5360    2.4990    4.3450 hc        1 LXT      0.094700
     80 H37A        2.3330    0.6900    4.2430 hc        1 LXT      0.094700
     81 HN38        5.4920    2.4180    1.9780 hn        1 LXT      0.500133
     82 HN3A        5.6140    2.2420    3.6500 hn        1 LXT      0.500133
     83 H41         4.6180    2.2640    5.6030 hc        1 LXT      0.064700
     84 H41A        4.7190    0.4810    5.2320 hc        1 LXT      0.064700
     85 H43         3.6190   -1.0840    6.6260 ha        1 LXT      0.126500
     86 H44         2.3810   -1.5260    8.7360 ha        1 LXT      0.169500
     87 H45         1.3060    0.3560    9.9790 ha        1 LXT      0.177000
     88 H46         1.4640    2.6880    9.0940 ha        1 LXT      0.169500
     89 H47         2.7010    3.1400    6.9830 ha        1 LXT      0.126500
     90 H221        0.9390    1.1050    2.1830 hn        1 LXT      0.493800
     91 H52        -0.3890    0.5400   -1.9150 hn        1 LXT      0.497300
     92 H112       -4.9300    0.2760   -1.9540 hn        1 LXT      0.477800
     93 H383        4.6210    3.4250    2.9980 hn        1 LXT      0.500133
@<TRIPOS>BOND
     1    1    2 1   
     2    1    3 1   
     3    1    4 1   
     4    1   46 1   
     5    2   34 1   
     6    2   47 1   
     7    2   90 1   
     8    3   27 1   
     9    3   48 1   
    10    3   49 1   
    11    4    5 1   
    12    4    6 2   
    13    5    7 1   
    14    5   50 1   
    15    5   91 1   
    16    7    8 1   
    17    7    9 1   
    18    7   51 1   
    19    8   20 1   
    20    8   52 1   
    21    8   53 1   
    22    9   10 2   
    23    9   11 1   
    24   11   12 1   
    25   11   54 1   
    26   11   92 1   
    27   12   13 1   
    28   12   55 1   
    29   12   56 1   
    30   13   14 ar  
    31   13   18 ar  
    32   14   15 ar  
    33   14   57 1   
    34   15   16 ar  
    35   15   58 1   
    36   16   17 ar  
    37   16   19 1   
    38   17   18 ar  
    39   17   59 1   
    40   18   60 1   
    41   19   61 1   
    42   19   62 1   
    43   19   63 1   
    44   20   21 1   
    45   20   64 1   
    46   20   65 1   
    47   21   22 ar  
    48   21   26 ar  
    49   22   23 ar  
    50   22   66 1   
    51   23   24 ar  
    52   23   67 1   
    53   24   25 ar  
    54   24   68 1   
    55   25   26 ar  
    56   25   69 1   
    57   26   70 1   
    58   27   28 1   
    59   27   71 1   
    60   27   72 1   
    61   28   29 ar  
    62   28   33 ar  
    63   29   30 ar  
    64   29   73 1   
    65   30   31 ar  
    66   30   74 1   
    67   31   32 ar  
    68   31   75 1   
    69   32   33 ar  
    70   32   76 1   
    71   33   77 1   
    72   34   35 2   
    73   34   36 1   
    74   36   37 1   
    75   36   38 1   
    76   36   78 1   
    77   37   39 1   
    78   37   79 1   
    79   37   80 1   
    80   38   81 1   
    81   38   82 1   
    82   38   93 1   
    83   39   40 1   
    84   39   83 1   
    85   39   84 1   
    86   40   41 ar  
    87   40   45 ar  
    88   41   42 ar  
    89   41   85 1   
    90   42   43 ar  
    91   42   86 1   
    92   43   44 ar  
    93   43   87 1   
    94   44   45 ar  
    95   44   88 1   
    96   45   89 1   
@<TRIPOS>SUBSTRUCTURE
     1 LXT         1 TEMP              0 ****  ****    0 ROOT
