@<TRIPOS>MOLECULE
LXV
   36    37     1     0     0
SMALL
bcc


@<TRIPOS>ATOM
      1 C1         -0.4230    0.4380    0.0470 c3        1 LXV      0.182800
      2 C2          0.8260    1.3760    0.0880 c3        1 LXV      0.093500
      3 C3          0.8840    1.8260    1.5610 c3        1 LXV     -0.113400
      4 C4          0.1250    0.7400    2.3640 c3        1 LXV      0.216500
      5 N5         -0.6880    0.0070    1.3970 nh        1 LXV     -0.814600
      6 N6          2.0710    0.6820   -0.3570 ny        1 LXV     -0.707900
      7 S7          2.1760    0.5040   -2.2320 sy        1 LXV      1.462200
      8 C8          3.7810    0.2260   -2.3390 ca        1 LXV     -0.488500
      9 C9          4.4710   -0.9320   -1.9140 ca        1 LXV      0.089100
     10 C10         5.8230   -1.1000   -2.1990 ca        1 LXV     -0.118000
     11 C11         6.5350   -0.1150   -2.8880 ca        1 LXV      0.015000
     12 C12         5.8880    1.0620   -3.2870 ca        1 LXV     -0.049900
     13 C13         4.5320    1.2170   -3.0120 ca        1 LXV      0.014000
     14 Br14        6.8260    2.4010   -4.1820 br        1 LXV      0.014900
     15 Br15        3.6150   -2.2800   -0.9320 br        1 LXV     -0.017100
     16 O16         1.3410   -0.5630   -2.4750 o         1 LXV     -0.560300
     17 O17         1.8240    1.7700   -2.6680 o         1 LXV     -0.560300
     18 C18        -1.1900   -1.2750    1.6960 c2        1 LXV      0.630100
     19 N19        -1.6790   -2.1880    0.9430 n2        1 LXV     -0.799100
     20 C20         1.1100   -0.0950    3.1730 c3        1 LXV     -0.123100
     21 H1         -1.2930    1.0580   -0.3190 h1        1 LXV      0.082700
     22 H1A        -0.2910   -0.4240   -0.6660 h1        1 LXV      0.082700
     23 H2          0.6820    2.2620   -0.5980 hx        1 LXV      0.129700
     24 H3          1.9230    1.9640    1.9460 hc        1 LXV      0.086200
     25 H3A         0.3520    2.8080    1.6510 hc        1 LXV      0.086200
     26 H4         -0.5860    1.2420    3.0870 h1        1 LXV      0.092700
     27 HN6         2.0950   -0.2360    0.0930 hn        1 LXV      0.451800
     28 H10         6.3510   -2.0190   -1.8830 ha        1 LXV      0.190000
     29 H11         7.6070   -0.2730   -3.1090 ha        1 LXV      0.190000
     30 H13         4.0190    2.1460   -3.3450 ha        1 LXV      0.193000
     31 H18        -1.2140   -1.4660    2.7960 h5        1 LXV      0.050800
     32 HN19       -1.7040   -2.0530   -0.0440 hn        1 LXV      0.392400
     33 H20         1.8360   -0.6260    2.5130 hc        1 LXV      0.050700
     34 H20A        1.6770    0.5760    3.8640 hc        1 LXV      0.050700
     35 H20B        0.5770   -0.8560    3.7940 hc        1 LXV      0.050700
     36 H62         2.8690    1.2090   -0.0020 hn        1 LXV      0.451800
@<TRIPOS>BOND
     1    1    2 1   
     2    1    5 1   
     3    1   21 1   
     4    1   22 1   
     5    2    3 1   
     6    2    6 1   
     7    2   23 1   
     8    3    4 1   
     9    3   24 1   
    10    3   25 1   
    11    4    5 1   
    12    4   20 1   
    13    4   26 1   
    14    5   18 1   
    15    6    7 1   
    16    6   27 1   
    17    6   36 1   
    18    7    8 1   
    19    7   16 2   
    20    7   17 2   
    21    8    9 ar  
    22    8   13 ar  
    23    9   10 ar  
    24    9   15 1   
    25   10   11 ar  
    26   10   28 1   
    27   11   12 ar  
    28   11   29 1   
    29   12   13 ar  
    30   12   14 1   
    31   13   30 1   
    32   18   19 2   
    33   18   31 1   
    34   19   32 1   
    35   20   33 1   
    36   20   34 1   
    37   20   35 1   
@<TRIPOS>SUBSTRUCTURE
     1 LXV         1 TEMP              0 ****  ****    0 ROOT
