@<TRIPOS>MOLECULE
LXV
   36    37     1     0     0
SMALL
bcc


@<TRIPOS>ATOM
      1 C1         -0.4080    0.5440    0.0960 c3        1 LXV      0.182800
      2 C2          0.8850    1.4210    0.1440 c3        1 LXV      0.093500
      3 C3          0.9880    1.8210    1.6290 c3        1 LXV     -0.113400
      4 C4          0.1920    0.7470    2.4100 c3        1 LXV      0.216500
      5 N5         -0.6700    0.0830    1.4360 nh        1 LXV     -0.814600
      6 N6          2.0890    0.6850   -0.3440 n4        1 LXV     -0.707900
      7 S7          2.1560    0.5620   -2.2260 sy        1 LXV      1.462200
      8 C8          3.7430    0.2120   -2.3690 ca        1 LXV     -0.488500
      9 C9          4.3830   -0.9910   -1.9930 ca        1 LXV      0.089100
     10 C10         5.7210   -1.2130   -2.3060 ca        1 LXV     -0.118000
     11 C11         6.4680   -0.2410   -2.9760 ca        1 LXV      0.015000
     12 C12         5.8730    0.9770   -3.3270 ca        1 LXV     -0.049900
     13 C13         4.5300    1.1880   -3.0240 ca        1 LXV      0.014000
     14 BR14        6.8590    2.2990   -4.1960 br        1 LXV      0.014900
     15 BR15        3.4800   -2.3270   -1.0380 br        1 LXV     -0.017100
     16 O16         1.2660   -0.4560   -2.4870 o         1 LXV     -0.560300
     17 O17         1.8580    1.8570   -2.6160 o         1 LXV     -0.560300
     18 C18        -1.2250   -1.1840    1.7030 c2        1 LXV      0.630100
     19 N19        -1.7680   -2.0500    0.9310 n2        1 LXV     -0.799100
     20 C20         1.1500   -0.1590    3.1770 c3        1 LXV     -0.123100
     21 H1         -1.2530    1.2150   -0.2350 h1        1 LXV      0.082700
     22 H1A        -0.3270   -0.3000   -0.6460 h1        1 LXV      0.082700
     23 H2          0.7710    2.3340   -0.5120 hx        1 LXV      0.129700
     24 H3          2.0380    1.8980    2.0000 hc        1 LXV      0.086200
     25 H3A         0.5030    2.8230    1.7590 hc        1 LXV      0.086200
     26 H4         -0.4830    1.2570    3.1610 h1        1 LXV      0.092700
     27 HN6         2.9160    1.1630    0.0130 hn        1 LXV      0.451800
     28 H10         6.2100   -2.1660   -2.0280 ha        1 LXV      0.190000
     29 H11         7.5290   -0.4420   -3.2210 ha        1 LXV      0.190000
     30 H13         4.0570    2.1500   -3.3190 ha        1 LXV      0.193000
     31 H18        -1.2400   -1.4090    2.7970 h5        1 LXV      0.050800
     32 HN19       -1.8020   -1.8820   -0.0510 hn        1 LXV      0.392400
     33 H20         1.7590    0.4640    3.8770 hc        1 LXV      0.050700
     34 H20A        0.5920   -0.9130    3.7830 hc        1 LXV      0.050700
     35 H20B        1.8390   -0.7020    2.4870 hc        1 LXV      0.050700
     36 H62         2.0770   -0.2480    0.0760 hn        1 LXV      0.451800
@<TRIPOS>BOND
     1    1    2 1   
     2    1    5 1   
     3    1   21 1   
     4    1   22 1   
     5    2    3 1   
     6    2    6 1   
     7    2   23 1   
     8    3    4 1   
     9    3   24 1   
    10    3   25 1   
    11    4    5 1   
    12    4   20 1   
    13    4   26 1   
    14    5   18 1   
    15    6    7 1   
    16    6   27 1   
    17    6   36 1   
    18    7    8 1   
    19    7   16 2   
    20    7   17 2   
    21    8    9 ar  
    22    8   13 ar  
    23    9   10 ar  
    24    9   15 1   
    25   10   11 ar  
    26   10   28 1   
    27   11   12 ar  
    28   11   29 1   
    29   12   13 ar  
    30   12   14 1   
    31   13   30 1   
    32   18   19 2   
    33   18   31 1   
    34   19   32 1   
    35   20   33 1   
    36   20   34 1   
    37   20   35 1   
@<TRIPOS>SUBSTRUCTURE
     1 LXV         1 TEMP              0 ****  ****    0 ROOT
