@<TRIPOS>MOLECULE
LXV
   36    37     1     0     0
SMALL
bcc


@<TRIPOS>ATOM
      1 C1         -0.4110    0.5240    0.0820 c3        1 LXV      0.182800
      2 C2          0.8740    1.4130    0.1310 c3        1 LXV      0.093500
      3 C3          0.9650    1.8230    1.6130 c3        1 LXV     -0.113400
      4 C4          0.1740    0.7480    2.3980 c3        1 LXV      0.216500
      5 N5         -0.6770    0.0700    1.4240 nh        1 LXV     -0.814600
      6 N6          2.0860    0.6830   -0.3470 n4        1 LXV     -0.707900
      7 S7          2.1630    0.5480   -2.2270 sy        1 LXV      1.462200
      8 C8          3.7540    0.2130   -2.3610 ca        1 LXV     -0.488500
      9 C9          4.4050   -0.9810   -1.9730 ca        1 LXV      0.089100
     10 C10         5.7460   -1.1920   -2.2780 ca        1 LXV     -0.118000
     11 C11         6.4870   -0.2180   -2.9510 ca        1 LXV      0.015000
     12 C12         5.8810    0.9910   -3.3140 ca        1 LXV     -0.049900
     13 C13         4.5350    1.1910   -3.0190 ca        1 LXV      0.014000
     14 BR14        6.8590    2.3170   -4.1880 br        1 LXV      0.014900
     15 BR15        3.5100   -2.3190   -1.0130 br        1 LXV     -0.017100
     16 O16         1.2850   -0.4800   -2.4850 o         1 LXV     -0.560300
     17 O17         1.8540    1.8370   -2.6270 o         1 LXV     -0.560300
     18 C18        -1.2240   -1.1990    1.6970 c2        1 LXV      0.630100
     19 N19        -1.7560   -2.0740    0.9280 n2        1 LXV     -0.799100
     20 C20         1.1350   -0.1450    3.1750 c3        1 LXV     -0.123100
     21 H1         -0.3200   -0.3240   -0.6540 h1        1 LXV      0.082200
     22 H1A        -1.2600    1.1860   -0.2590 h1        1 LXV      0.082200
     23 H2          0.7560    2.3200   -0.5320 hx        1 LXV      0.129700
     24 H3          0.4720    2.8230    1.7340 hc        1 LXV      0.086200
     25 H3A         2.0130    1.9110    1.9890 hc        1 LXV      0.086200
     26 H4         -0.5090    1.2580    3.1420 h1        1 LXV      0.092700
     27 HN6         2.9070    1.1700    0.0110 hn        1 LXV      0.451800
     28 H10         6.2430   -2.1380   -1.9910 ha        1 LXV      0.190000
     29 H11         7.5500   -0.4110   -3.1900 ha        1 LXV      0.190000
     30 H13         4.0540    2.1460   -3.3220 ha        1 LXV      0.193000
     31 H18        -1.2440   -1.4150    2.7930 h5        1 LXV      0.050800
     32 HN19       -1.7870   -1.9130   -0.0550 hn        1 LXV      0.392400
     33 H20         1.8330   -0.6870    2.4930 hc        1 LXV      0.050700
     34 H20A        0.5800   -0.8990    3.7840 hc        1 LXV      0.050700
     35 H20B        1.7360    0.4870    3.8740 hc        1 LXV      0.050700
     36 H62         2.0800   -0.2460    0.0800 hn        1 LXV      0.451800
@<TRIPOS>BOND
     1    1    2 1   
     2    1    5 1   
     3    1   21 1   
     4    1   22 1   
     5    2    3 1   
     6    2    6 1   
     7    2   23 1   
     8    3    4 1   
     9    3   24 1   
    10    3   25 1   
    11    4    5 1   
    12    4   20 1   
    13    4   26 1   
    14    5   18 1   
    15    6    7 1   
    16    6   27 1   
    17    6   36 1   
    18    7    8 1   
    19    7   16 2   
    20    7   17 2   
    21    8    9 ar  
    22    8   13 ar  
    23    9   10 ar  
    24    9   15 1   
    25   10   11 ar  
    26   10   28 1   
    27   11   12 ar  
    28   11   29 1   
    29   12   13 ar  
    30   12   14 1   
    31   13   30 1   
    32   18   19 2   
    33   18   31 1   
    34   19   32 1   
    35   20   33 1   
    36   20   34 1   
    37   20   35 1   
@<TRIPOS>SUBSTRUCTURE
     1 LXV         1 TEMP              0 ****  ****    0 ROOT
