@<TRIPOS>MOLECULE
LXV
   35    36     1     0     0
SMALL
bcc


@<TRIPOS>ATOM
      1 C1          3.6050   -1.3230   -0.8910 c3        1 LXV      0.177800
      2 C2          2.1580   -1.0450   -0.3730 c3        1 LXV      0.224500
      3 C3          2.3000   -0.9940    1.1660 c3        1 LXV     -0.110400
      4 C4          3.6970   -1.5590    1.5000 c3        1 LXV      0.203500
      5 N5          4.3750   -1.8390    0.2290 nh        1 LXV     -0.723600
      6 N6          1.5550    0.1190   -0.9590 n3        1 LXV     -0.911100
      7 S7          0.1360    0.1350   -1.7160 sy        1 LXV      1.502200
      8 C8         -0.9850    0.5410   -0.4720 ca        1 LXV     -0.324500
      9 C9         -0.9800    1.7180    0.2890 ca        1 LXV      0.089100
     10 C10        -1.9810    1.9620    1.2330 ca        1 LXV     -0.133000
     11 C11        -2.9980    1.0330    1.4400 ca        1 LXV     -0.051000
     12 C12        -3.0140   -0.1510    0.6990 ca        1 LXV     -0.044900
     13 C13        -2.0140   -0.3850   -0.2460 ca        1 LXV     -0.012000
     14 BR14       -4.3670   -1.4130    0.9700 br        1 LXV     -0.061100
     15 BR15        0.3550    3.0240    0.0940 br        1 LXV     -0.067100
     16 O16         0.1200    1.1490   -2.6890 o         1 LXV     -0.640300
     17 O17        -0.2010   -1.1640   -2.1600 o         1 LXV     -0.640300
     18 C18         5.7780   -1.7720    0.2010 c2        1 LXV      0.610100
     19 N19         6.4770   -1.4010   -0.8210 n2        1 LXV     -0.839100
     20 C20         4.4200   -0.6240    2.4620 c3        1 LXV     -0.117100
     21 H1          3.5840   -2.1110   -1.6920 h1        1 LXV      0.067200
     22 H1A         4.0650   -0.3940   -1.3320 h1        1 LXV      0.067200
     23 H2          1.5170   -1.9370   -0.6470 h1        1 LXV      0.086700
     24 H3          2.2010    0.0490    1.5560 hc        1 LXV      0.059200
     25 H3A         1.5090   -1.6180    1.6470 hc        1 LXV      0.059200
     26 H4          3.5800   -2.5600    2.0120 h1        1 LXV      0.061700
     27 HN6         2.1140    0.9380   -0.8770 hn        1 LXV      0.456800
     28 H10        -1.9780    2.8950    1.8220 ha        1 LXV      0.159000
     29 H11        -3.7820    1.2410    2.1870 ha        1 LXV      0.157000
     30 H13        -2.0300   -1.3220   -0.8410 ha        1 LXV      0.188000
     31 H18         6.2080   -2.1660    1.1560 h5        1 LXV     -0.021200
     32 HN19        7.4600   -1.5260   -0.7020 hn        1 LXV      0.393400
     33 H20         3.7590   -0.4250    3.3410 hc        1 LXV      0.044700
     34 H20A        5.3650   -1.0850    2.8350 hc        1 LXV      0.044700
     35 H20B        4.6660    0.3500    1.9750 hc        1 LXV      0.044700
@<TRIPOS>BOND
     1    1    2 1   
     2    1    5 1   
     3    1   21 1   
     4    1   22 1   
     5    2    3 1   
     6    2    6 1   
     7    2   23 1   
     8    3    4 1   
     9    3   24 1   
    10    3   25 1   
    11    4    5 1   
    12    4   20 1   
    13    4   26 1   
    14    5   18 1   
    15    6    7 1   
    16    6   27 1   
    17    7    8 1   
    18    7   16 2   
    19    7   17 2   
    20    8    9 ar  
    21    8   13 ar  
    22    9   10 ar  
    23    9   15 1   
    24   10   11 ar  
    25   10   28 1   
    26   11   12 ar  
    27   11   29 1   
    28   12   13 ar  
    29   12   14 1   
    30   13   30 1   
    31   18   19 2   
    32   18   31 1   
    33   19   32 1   
    34   20   33 1   
    35   20   34 1   
    36   20   35 1   
@<TRIPOS>SUBSTRUCTURE
     1 LXV         1 TEMP              0 ****  ****    0 ROOT
