@<TRIPOS>MOLECULE
LXX
   38    42     1     0     0
SMALL
bcc


@<TRIPOS>ATOM
      1 C1         -5.5490    0.4440   -1.0110 cc        1 LXX      0.356800
      2 N2         -6.3090   -0.6040   -0.6310 nd        1 LXX     -0.500100
      3 N3         -5.5710   -1.4250    0.1250 na        1 LXX     -0.115800
      4 C4         -4.2570   -0.9430    0.2780 ca        1 LXX      0.421800
      5 N5         -3.2010   -1.4740    0.9630 nb        1 LXX     -0.660000
      6 C6         -2.0820   -0.7500    0.9000 ca        1 LXX      0.442200
      7 C7         -1.9240    0.4860    0.1980 cp        1 LXX     -0.190300
      8 C8         -3.0110    1.0180   -0.4950 ca        1 LXX     -0.010000
      9 C9         -4.2090    0.3090   -0.4700 ca        1 LXX     -0.321200
     10 C10        -0.6350    1.1660    0.2180 cp        1 LXX     -0.023000
     11 C11        -0.5900    2.5820    0.3430 ca        1 LXX     -0.116000
     12 C12         0.6040    3.2530    0.3560 ca        1 LXX     -0.162300
     13 C13         1.8420    2.5420    0.2440 ca        1 LXX      0.393600
     14 N14         3.0310    3.2480    0.2450 nb        1 LXX     -0.651000
     15 C15         4.1530    2.5620    0.1300 ca        1 LXX      0.412200
     16 C16         4.2170    1.1390    0.0100 ca        1 LXX     -0.234300
     17 C17         3.0440    0.4150    0.0200 cp        1 LXX      0.003000
     18 C18         3.0880   -1.0450   -0.0820 cp        1 LXX     -0.013000
     19 C19         3.6910   -1.6590   -1.1890 ca        1 LXX     -0.233800
     20 C20         3.7360   -3.0640   -1.2380 ca        1 LXX      0.393700
     21 N21         3.2370   -3.8600   -0.2740 nb        1 LXX     -0.657000
     22 C22         2.6650   -3.2580    0.7870 ca        1 LXX      0.393700
     23 C23         2.5640   -1.8620    0.9290 ca        1 LXX     -0.233800
     24 C24         1.8000    1.1170    0.1310 ca        1 LXX     -0.130300
     25 C25         0.5460    0.4570    0.1150 ca        1 LXX     -0.107000
     26 H1         -5.9360    1.2490   -1.6370 h4        1 LXX      0.059800
     27 HN3        -5.9500   -2.2620    0.4990 hn        1 LXX      0.337700
     28 H6         -1.2220   -1.1690    1.4570 h4        1 LXX      0.028100
     29 H8         -2.9250    1.9640   -1.0510 ha        1 LXX      0.149000
     30 H11        -1.5380    3.1350    0.4370 ha        1 LXX      0.140000
     31 H12         0.6290    4.3510    0.4530 ha        1 LXX      0.154000
     32 H15         5.0900    3.1500    0.1300 h4        1 LXX      0.026100
     33 H16         5.1960    0.6480   -0.0800 ha        1 LXX      0.150000
     34 H19         4.1160   -1.0580   -2.0040 ha        1 LXX      0.150500
     35 H20         4.1990   -3.5820   -2.0980 h4        1 LXX      0.026600
     36 H22         2.2660   -3.9330    1.5650 h4        1 LXX      0.026600
     37 H23         2.0910   -1.4250    1.8190 ha        1 LXX      0.150500
     38 H25         0.5290   -0.6390    0.0040 ha        1 LXX      0.146000
@<TRIPOS>BOND
     1    1    2 2   
     2    1    9 1   
     3    1   26 1   
     4    2    3 1   
     5    3    4 1   
     6    3   27 1   
     7    4    5 ar  
     8    4    9 ar  
     9    5    6 ar  
    10    6    7 ar  
    11    6   28 1   
    12    7    8 ar  
    13    7   10 1   
    14    8    9 ar  
    15    8   29 1   
    16   10   11 ar  
    17   10   25 ar  
    18   11   12 ar  
    19   11   30 1   
    20   12   13 ar  
    21   12   31 1   
    22   13   14 ar  
    23   13   24 ar  
    24   14   15 ar  
    25   15   16 ar  
    26   15   32 1   
    27   16   17 ar  
    28   16   33 1   
    29   17   18 1   
    30   17   24 ar  
    31   18   19 ar  
    32   18   23 ar  
    33   19   20 ar  
    34   19   34 1   
    35   20   21 ar  
    36   20   35 1   
    37   21   22 ar  
    38   22   23 ar  
    39   22   36 1   
    40   23   37 1   
    41   24   25 ar  
    42   25   38 1   
@<TRIPOS>SUBSTRUCTURE
     1 LXX         1 TEMP              0 ****  ****    0 ROOT
