@<TRIPOS>MOLECULE
LXX
   38    42     1     0     0
SMALL
bcc


@<TRIPOS>ATOM
      1 C1          0.1560    0.9510    0.2530 cc        1 LXX      0.356800
      2 N2          1.4460    0.5660    0.1600 nd        1 LXX     -0.500100
      3 N3          1.7550   -0.1800    1.2270 na        1 LXX     -0.115800
      4 C4          0.6550   -0.3210    2.0940 ca        1 LXX      0.421800
      5 N5          0.5520   -0.9940    3.2790 nb        1 LXX     -0.660000
      6 C6         -0.6510   -0.9220    3.8510 ca        1 LXX      0.442200
      7 C7         -1.7840   -0.2220    3.3290 cp        1 LXX     -0.190300
      8 C8         -1.6660    0.4590    2.1170 ca        1 LXX     -0.010000
      9 C9         -0.4340    0.4230    1.4700 ca        1 LXX     -0.321200
     10 C10        -3.0400   -0.2310    4.0710 cp        1 LXX     -0.023000
     11 C11        -4.2690   -0.3600    3.3680 ca        1 LXX     -0.116000
     12 C12        -5.4670   -0.3640    4.0320 ca        1 LXX     -0.162300
     13 C13        -5.5110   -0.2370    5.4580 ca        1 LXX      0.393600
     14 N14        -6.7350   -0.2290    6.1000 nb        1 LXX     -0.651000
     15 C15        -6.7390   -0.1000    7.4140 ca        1 LXX      0.412200
     16 C16        -5.5620    0.0250    8.2130 ca        1 LXX     -0.234300
     17 C17        -4.3300    0.0060    7.5950 cp        1 LXX      0.003000
     18 C18        -3.1100    0.1130    8.3970 cp        1 LXX     -0.013000
     19 C19        -2.9000    1.2290    9.2210 ca        1 LXX     -0.233800
     20 C20        -1.7280    1.2830    9.9950 ca        1 LXX      0.393700
     21 N21        -0.7900    0.3160    9.9980 nb        1 LXX     -0.657000
     22 C22        -1.0060   -0.7520    9.2060 ca        1 LXX      0.393700
     23 C23        -2.1410   -0.9000    8.3900 ca        1 LXX     -0.233800
     24 C24        -4.2750   -0.1200    6.1680 ca        1 LXX     -0.130300
     25 C25        -3.0560   -0.1140    5.4470 ca        1 LXX     -0.107000
     26 H1         -0.3250    1.5690   -0.5050 h4        1 LXX      0.059800
     27 HN3         2.6660   -0.5550    1.3470 hn        1 LXX      0.337700
     28 H6         -0.7470   -1.4680    4.8090 h4        1 LXX      0.028100
     29 H8         -2.5150    1.0120    1.6890 ha        1 LXX      0.149000
     30 H11        -4.2430   -0.4660    2.2710 ha        1 LXX      0.140000
     31 H12        -6.4150   -0.4650    3.4780 ha        1 LXX      0.154000
     32 H15        -7.7310   -0.0920    7.9020 h4        1 LXX      0.026100
     33 H16        -5.6560    0.1270    9.3030 ha        1 LXX      0.150000
     34 H19        -3.6330    2.0460    9.2590 ha        1 LXX      0.150500
     35 H20        -1.5270    2.1480   10.6520 h4        1 LXX      0.026600
     36 H22        -0.2240   -1.5330    9.2290 h4        1 LXX      0.026600
     37 H23        -2.2680   -1.7960    7.7670 ha        1 LXX      0.150500
     38 H25        -2.1130    0.0000    6.0070 ha        1 LXX      0.146000
@<TRIPOS>BOND
     1    1    2 2   
     2    1    9 1   
     3    1   26 1   
     4    2    3 1   
     5    3    4 1   
     6    3   27 1   
     7    4    5 ar  
     8    4    9 ar  
     9    5    6 ar  
    10    6    7 ar  
    11    6   28 1   
    12    7    8 ar  
    13    7   10 1   
    14    8    9 ar  
    15    8   29 1   
    16   10   11 ar  
    17   10   25 ar  
    18   11   12 ar  
    19   11   30 1   
    20   12   13 ar  
    21   12   31 1   
    22   13   14 ar  
    23   13   24 ar  
    24   14   15 ar  
    25   15   16 ar  
    26   15   32 1   
    27   16   17 ar  
    28   16   33 1   
    29   17   18 1   
    30   17   24 ar  
    31   18   19 ar  
    32   18   23 ar  
    33   19   20 ar  
    34   19   34 1   
    35   20   21 ar  
    36   20   35 1   
    37   21   22 ar  
    38   22   23 ar  
    39   22   36 1   
    40   23   37 1   
    41   24   25 ar  
    42   25   38 1   
@<TRIPOS>SUBSTRUCTURE
     1 LXX         1 TEMP              0 ****  ****    0 ROOT
