@<TRIPOS>MOLECULE
LXX
   38    42     1     0     0
SMALL
bcc


@<TRIPOS>ATOM
      1 C1          0.1400    0.9630    0.2470 cc        1 LXX      0.356800
      2 N2          1.4340    0.5930    0.1540 nd        1 LXX     -0.500100
      3 N3          1.7530   -0.1450    1.2230 na        1 LXX     -0.115800
      4 C4          0.6560   -0.2960    2.0920 ca        1 LXX      0.421800
      5 N5          0.5610   -0.9660    3.2800 nb        1 LXX     -0.660000
      6 C6         -0.6420   -0.9050    3.8530 ca        1 LXX      0.442200
      7 C7         -1.7840   -0.2210    3.3290 cp        1 LXX     -0.190300
      8 C8         -1.6740    0.4560    2.1150 ca        1 LXX     -0.010000
      9 C9         -0.4420    0.4330    1.4670 ca        1 LXX     -0.321200
     10 C10        -3.0380   -0.2420    4.0720 cp        1 LXX     -0.023000
     11 C11        -4.2660   -0.3880    3.3700 ca        1 LXX     -0.116000
     12 C12        -5.4640   -0.4030    4.0360 ca        1 LXX     -0.162300
     13 C13        -5.5080   -0.2710    5.4620 ca        1 LXX      0.393600
     14 N14        -6.7320   -0.2750    6.1050 nb        1 LXX     -0.651000
     15 C15        -6.7360   -0.1410    7.4180 ca        1 LXX      0.412200
     16 C16        -5.5590    0.0000    8.2160 ca        1 LXX     -0.234300
     17 C17        -4.3270   -0.0070    7.5960 cp        1 LXX      0.003000
     18 C18        -3.1080    0.1170    8.3970 cp        1 LXX     -0.013000
     19 C19        -2.9110    1.2380    9.2170 ca        1 LXX     -0.233800
     20 C20        -1.7390    1.3080    9.9900 ca        1 LXX      0.393700
     21 N21        -0.7900    0.3520    9.9950 nb        1 LXX     -0.657000
     22 C22        -0.9940   -0.7210    9.2070 ca        1 LXX      0.393700
     23 C23        -2.1280   -0.8850    8.3930 ca        1 LXX     -0.233800
     24 C24        -4.2730   -0.1370    6.1700 ca        1 LXX     -0.130300
     25 C25        -3.0540   -0.1200    5.4480 ca        1 LXX     -0.107000
     26 H1         -0.3490    1.5730   -0.5130 h4        1 LXX      0.059800
     27 HN3         2.6690   -0.5090    1.3440 hn        1 LXX      0.337700
     28 H6         -0.7300   -1.4500    4.8130 h4        1 LXX      0.028100
     29 H8         -2.5300    0.9980    1.6850 ha        1 LXX      0.149000
     30 H11        -4.2400   -0.4970    2.2750 ha        1 LXX      0.140000
     31 H12        -6.4110   -0.5170    3.4840 ha        1 LXX      0.154000
     32 H15        -7.7280   -0.1440    7.9080 h4        1 LXX      0.026100
     33 H16        -5.6540    0.1050    9.3060 ha        1 LXX      0.150000
     34 H19        -3.6530    2.0460    9.2540 ha        1 LXX      0.150500
     35 H20        -1.5470    2.1780   10.6440 h4        1 LXX      0.026600
     36 H22        -0.2030   -1.4920    9.2320 h4        1 LXX      0.026600
     37 H23        -2.2440   -1.7840    7.7720 ha        1 LXX      0.150500
     38 H25        -2.1120    0.0070    6.0060 ha        1 LXX      0.146000
@<TRIPOS>BOND
     1    1    2 2   
     2    1    9 1   
     3    1   26 1   
     4    2    3 1   
     5    3    4 1   
     6    3   27 1   
     7    4    5 ar  
     8    4    9 ar  
     9    5    6 ar  
    10    6    7 ar  
    11    6   28 1   
    12    7    8 ar  
    13    7   10 1   
    14    8    9 ar  
    15    8   29 1   
    16   10   11 ar  
    17   10   25 ar  
    18   11   12 ar  
    19   11   30 1   
    20   12   13 ar  
    21   12   31 1   
    22   13   14 ar  
    23   13   24 ar  
    24   14   15 ar  
    25   15   16 ar  
    26   15   32 1   
    27   16   17 ar  
    28   16   33 1   
    29   17   18 1   
    30   17   24 ar  
    31   18   19 ar  
    32   18   23 ar  
    33   19   20 ar  
    34   19   34 1   
    35   20   21 ar  
    36   20   35 1   
    37   21   22 ar  
    38   22   23 ar  
    39   22   36 1   
    40   23   37 1   
    41   24   25 ar  
    42   25   38 1   
@<TRIPOS>SUBSTRUCTURE
     1 LXX         1 TEMP              0 ****  ****    0 ROOT
