@<TRIPOS>MOLECULE
LXZ
   30    29     1     0     0
SMALL
bcc


@<TRIPOS>ATOM
      1 O1         -2.4910    0.1460   -0.9280 oh        1 LXZ     -0.298000
      2 C1         -1.0470    0.1460   -0.9280 c3        1 LXZ      0.145000
      3 C2         -0.5940    0.1460    0.4250 c3        1 LXZ     -0.033000
      4 C3          0.8010    0.3100    0.5720 c3        1 LXZ      0.020000
      5 C4          1.3420    1.4870   -0.1620 c3        1 LXZ     -0.027000
      6 C5          0.9840    1.5080   -1.7150 c3        1 LXZ      0.005000
      7 C6          1.5910    0.5190   -2.3550 c3        1 LXZ     -0.056000
      8 C7         -1.9690   -1.2340    2.1060 c1        1 LXZ      0.305000
      9 C8         -2.3660   -2.5520    2.7340 c2        1 LXZ     -0.240000
     10 N2         -0.9960   -1.2050    1.0740 n3        1 LXZ     -0.357000
     11 O3          1.1100    0.4760    2.0310 oh        1 LXZ     -0.330000
     12 O4          2.7440    1.4920   -0.0270 oh        1 LXZ     -0.344000
     13 O5         -0.5800    1.3000   -1.7110 os        1 LXZ     -0.288000
     14 O6          2.5010    1.0540   -3.2910 oh        1 LXZ     -0.341000
     15 O7         -2.4870   -0.2010    2.4830 o         1 LXZ     -0.376000
     16 HO1        -2.7870    0.0860   -1.7630 ho        1 LXZ      0.239000
     17 H1         -0.7350   -0.6710   -1.3610 h2        1 LXZ      0.114000
     18 H2         -1.0440    0.8680    0.9040 h1        1 LXZ      0.129000
     19 H3          1.2470   -0.4950    0.2470 h1        1 LXZ      0.088000
     20 H4          0.9870    2.2980    0.2480 h1        1 LXZ      0.108000
     21 H5          1.2150    2.3700   -2.1100 h1        1 LXZ      0.140000
     22 H6          0.9270   -0.0240   -2.8210 h1        1 LXZ      0.083000
     23 H6A         2.0730   -0.0360   -1.7130 h1        1 LXZ      0.083000
     24 H8         -3.0620   -2.3980    3.4020 ha        1 LXZ      0.108333
     25 H8A        -2.7060   -3.1520    2.0430 ha        1 LXZ      0.108333
     26 H8B        -1.5880   -2.9560    3.1620 ha        1 LXZ      0.108333
     27 HN2        -0.6170   -1.9810    0.7820 hn        1 LXZ      0.230000
     28 HO3         1.8310    0.0010    2.2370 ho        1 LXZ      0.228000
     29 HO4         3.0050    2.2650    0.3220 ho        1 LXZ      0.236000
     30 HO6         2.7120    0.4310   -3.8870 ho        1 LXZ      0.213000
@<TRIPOS>BOND
     1    1    2 1   
     2    1   16 1   
     3    2    3 1   
     4    2   13 1   
     5    2   17 1   
     6    3    4 1   
     7    3   10 1   
     8    3   18 1   
     9    4    5 1   
    10    4   11 1   
    11    4   19 1   
    12    5    6 1   
    13    5   12 1   
    14    5   20 1   
    15    6    7 1   
    16    6   13 1   
    17    6   21 1   
    18    7   14 1   
    19    7   22 1   
    20    7   23 1   
    21    8   10 1   
    22    8   15 1   
    23    9   24 1   
    24    9   25 1   
    25    9   26 1   
    26   10   27 1   
    27   11   28 1   
    28   12   29 1   
    29   14   30 1   
@<TRIPOS>SUBSTRUCTURE
     1 LXZ         1 TEMP              0 ****  ****    0 ROOT
