@<TRIPOS>MOLECULE
LXZ
   30    30     1     0     0
SMALL
bcc


@<TRIPOS>ATOM
      1 O1          0.8720    1.8500   -1.2060 oh        1 LXZ     -0.598800
      2 C1          0.3100    0.5640   -1.1550 c3        1 LXZ      0.324900
      3 C2         -0.7980    0.5760   -0.0600 c3        1 LXZ      0.086700
      4 C3         -0.2060    0.4610    1.3710 c3        1 LXZ      0.104100
      5 C4          0.9630   -0.5400    1.4420 c3        1 LXZ      0.083100
      6 C5          1.9960   -0.1770    0.3720 c3        1 LXZ      0.064100
      7 C6          3.2010   -1.1190    0.3870 c3        1 LXZ      0.139400
      8 C8         -4.0130   -1.3490   -0.8180 c3        1 LXZ     -0.175100
      9 N2         -1.7690   -0.4590   -0.3050 n         1 LXZ     -0.580900
     10 O3          0.2270    1.7630    1.7240 oh        1 LXZ     -0.571800
     11 O4          0.4640   -1.8580    1.2950 oh        1 LXZ     -0.598800
     12 O5          1.3880   -0.3270   -0.9150 os        1 LXZ     -0.474600
     13 O6          4.1410   -0.7660   -0.6030 oh        1 LXZ     -0.592800
     14 O7         -3.4040    0.9720   -1.0420 o         1 LXZ     -0.594100
     15 HO1         1.5530    1.8380   -1.8910 ho        1 LXZ      0.416000
     16 H1         -0.0910    0.2390   -2.1590 h2        1 LXZ      0.081700
     17 H2         -1.3040    1.5910   -0.1410 h1        1 LXZ      0.135700
     18 H3         -1.0080    0.1230    2.0900 h1        1 LXZ      0.055700
     19 H4          1.4300   -0.5120    2.4650 h1        1 LXZ      0.077700
     20 H5          2.3170    0.8930    0.5080 h1        1 LXZ      0.096700
     21 H6          3.7470   -1.0180    1.3620 h1        1 LXZ      0.055700
     22 H6A         2.8600   -2.1790    0.2450 h1        1 LXZ      0.055700
     23 H8         -5.0020   -0.9750   -1.1810 hc        1 LXZ      0.068367
     24 H8A        -3.6290   -2.1140   -1.5340 hc        1 LXZ      0.068367
     25 H8B        -4.1500   -1.8230    0.1840 hc        1 LXZ      0.068367
     26 HN2        -1.5570   -1.3660    0.0370 hn        1 LXZ      0.315500
     27 HO3         0.4860    1.7240    2.6530 ho        1 LXZ      0.403000
     28 HO4         0.5160   -2.0840    0.3550 ho        1 LXZ      0.414000
     29 HO6         3.6820   -0.7920   -1.4530 ho        1 LXZ      0.412000
     30 C7         -3.0600   -0.1830   -0.7270 c         1 LXZ      0.659100
@<TRIPOS>BOND
     1    1    2 1   
     2    1   15 1   
     3    2    3 1   
     4    2   12 1   
     5    2   16 1   
     6    3    4 1   
     7    3    9 1   
     8    3   17 1   
     9    4    5 1   
    10    4   10 1   
    11    4   18 1   
    12    5    6 1   
    13    5   11 1   
    14    5   19 1   
    15    6    7 1   
    16    6   12 1   
    17    6   20 1   
    18    7   13 1   
    19    7   21 1   
    20    7   22 1   
    21    8   23 1   
    22    8   24 1   
    23    8   25 1   
    24    8   30 1   
    25    9   26 1   
    26    9   30 1   
    27   10   27 1   
    28   11   28 1   
    29   13   29 1   
    30   14   30 2   
@<TRIPOS>SUBSTRUCTURE
     1 LXZ         1 TEMP              0 ****  ****    0 ROOT
