@<TRIPOS>MOLECULE
LY0
   25    24     1     0     0
SMALL
bcc


@<TRIPOS>ATOM
      1 P          -1.3700   -0.8200    0.4260 p5        1 LY0      1.518100
      2 C1         -1.8020    1.7520    0.3750 c3        1 LY0     -0.133100
      3 N1         -2.9790    0.2170   -1.2290 n3        1 LY0     -0.865800
      4 C2         -1.7610    0.5100   -0.5020 c3        1 LY0     -0.162700
      5 C4         -0.0120   -0.4670    1.2650 c3        1 LY0     -0.421600
      6 C5          1.1810   -0.3210    0.3370 c3        1 LY0     -0.178700
      7 C6          1.3970    1.1670   -0.0760 c         1 LY0      0.903600
      8 C7          2.4480   -0.8290    0.9800 c3        1 LY0     -0.061100
      9 O31        -1.4520   -2.1730   -0.1290 o         1 LY0     -0.891300
     10 O32        -2.5580   -0.8690    1.5470 oh        1 LY0     -0.813400
     11 O61         1.2020    1.4520   -1.2930 o         1 LY0     -0.834300
     12 O62         1.6980    2.0050    0.8160 o         1 LY0     -0.834300
     13 H1         -2.2700    1.5060    1.3600 hc        1 LY0      0.054367
     14 H1A        -0.7630    2.1460    0.5380 hc        1 LY0      0.054367
     15 H1B        -2.3930    2.5720   -0.1010 hc        1 LY0      0.054367
     16 HN1        -3.7490    0.2540   -0.5860 hn        1 LY0      0.336300
     17 HN1A       -3.1360    0.9010   -1.9450 hn        1 LY0      0.336300
     18 H2         -0.9350    0.7010   -1.2700 h1        1 LY0      0.167700
     19 H4         -0.0700    0.4730    1.8800 hc        1 LY0      0.103700
     20 H4A         0.2030   -1.2800    2.0080 hc        1 LY0      0.103700
     21 H5          0.9810   -0.9190   -0.5970 hc        1 LY0      0.040700
     22 H7          3.2950   -0.7590    0.2550 hc        1 LY0      0.022700
     23 H7A         2.6950   -0.2030    1.8720 hc        1 LY0      0.022700
     24 H7B         2.3410   -1.8930    1.3010 hc        1 LY0      0.022700
     25 HO32       -3.0310   -1.6960    1.5520 ho        1 LY0      0.453000
@<TRIPOS>BOND
     1    1    4 1   
     2    1    5 1   
     3    1    9 2   
     4    1   10 1   
     5    2    4 1   
     6    2   13 1   
     7    2   14 1   
     8    2   15 1   
     9    3    4 1   
    10    3   16 1   
    11    3   17 1   
    12    4   18 1   
    13    5    6 1   
    14    5   19 1   
    15    5   20 1   
    16    6    7 1   
    17    6    8 1   
    18    6   21 1   
    19    7   11 1   
    20    7   12 1   
    21    8   22 1   
    22    8   23 1   
    23    8   24 1   
    24   10   25 1   
@<TRIPOS>SUBSTRUCTURE
     1 LY0         1 TEMP              0 ****  ****    0 ROOT
