@<TRIPOS>MOLECULE
LY1
   24    25     1     0     0
SMALL
bcc


@<TRIPOS>ATOM
      1 C1         -0.0550    0.0340    0.0030 c3        1 LY1      0.208100
      2 N1          1.3850    0.1610    0.0420 n3        1 LY1     -0.826200
      3 C2          1.9840   -0.0000    1.3480 c3        1 LY1      0.164800
      4 C3          1.4880   -1.2330    2.0980 c3        1 LY1     -0.078400
      5 C4          1.3520   -2.4340    1.1870 c3        1 LY1     -0.028100
      6 C4A         0.0600   -2.4920    0.4440 ca        1 LY1     -0.043300
      7 C5         -0.5120   -3.7650    0.2880 ca        1 LY1     -0.128000
      8 C6         -1.7140   -3.9420   -0.3800 ca        1 LY1     -0.119000
      9 C7         -2.3810   -2.8290   -0.9010 ca        1 LY1      0.014400
     10 C8         -1.8230   -1.5520   -0.7580 ca        1 LY1      0.015400
     11 C8A        -0.5870   -1.3720   -0.1020 ca        1 LY1     -0.049300
     12 CL1        -3.8620   -3.0660   -1.6980 cl        1 LY1     -0.074400
     13 CL2        -2.6790   -0.2170   -1.3810 cl        1 LY1     -0.080400
     14 HC11       -0.5480    0.4990    0.9110 h1        1 LY1      0.048200
     15 HC12       -0.4070    0.6120   -0.9030 h1        1 LY1      0.048200
     16 HN11        1.6620    1.0380   -0.3560 hn        1 LY1      0.371800
     17 HC21        3.0960   -0.0920    1.1810 h1        1 LY1      0.028700
     18 HC22        1.8160    0.9010    2.0100 h1        1 LY1      0.028700
     19 HC31        0.5040   -1.0110    2.5860 hc        1 LY1      0.047700
     20 HC32        2.2250   -1.4620    2.9110 hc        1 LY1      0.047700
     21 HC41        1.4570   -3.3640    1.8110 hc        1 LY1      0.057200
     22 HC42        2.1940   -2.4440    0.4410 hc        1 LY1      0.057200
     23 HC51        0.0040   -4.6450    0.7060 ha        1 LY1      0.138000
     24 HC61       -2.1440   -4.9490   -0.4970 ha        1 LY1      0.150000
@<TRIPOS>BOND
     1    1    2 1   
     2    1   11 1   
     3    1   14 1   
     4    1   15 1   
     5    2    3 1   
     6    2   16 1   
     7    3    4 1   
     8    3   17 1   
     9    3   18 1   
    10    4    5 1   
    11    4   19 1   
    12    4   20 1   
    13    5    6 1   
    14    5   21 1   
    15    5   22 1   
    16    6    7 ar  
    17    6   11 ar  
    18    7    8 ar  
    19    7   23 1   
    20    8    9 ar  
    21    8   24 1   
    22    9   10 ar  
    23    9   12 1   
    24   10   11 ar  
    25   10   13 1   
@<TRIPOS>SUBSTRUCTURE
     1 LY1         1 TEMP              0 ****  ****    0 ROOT
