@<TRIPOS>MOLECULE
LY1
   24    25     1     0     0
SMALL
bcc


@<TRIPOS>ATOM
      1 C1         -0.0540    0.0330   -0.0010 c3        1 LY1      0.208100
      2 N1          1.3860    0.1580    0.0330 n7        1 LY1     -0.826200
      3 C2          1.9890   -0.0010    1.3390 c3        1 LY1      0.164800
      4 C3          1.4930   -1.2300    2.0930 c3        1 LY1     -0.078400
      5 C4          1.3530   -2.4340    1.1860 c3        1 LY1     -0.028100
      6 C4A         0.0580   -2.4920    0.4470 ca        1 LY1     -0.043300
      7 C5         -0.5160   -3.7650    0.2960 ca        1 LY1     -0.128000
      8 C6         -1.7200   -3.9420   -0.3690 ca        1 LY1     -0.119000
      9 C7         -2.3870   -2.8290   -0.8910 ca        1 LY1      0.014400
     10 C8         -1.8270   -1.5520   -0.7530 ca        1 LY1      0.015400
     11 C8A        -0.5880   -1.3730   -0.1010 ca        1 LY1     -0.049300
     12 Cl1        -3.8710   -3.0650   -1.6830 cl        1 LY1     -0.074400
     13 Cl2        -2.6820   -0.2170   -1.3770 cl        1 LY1     -0.080400
     14 HC11       -0.4070    0.6090   -0.9080 h1        1 LY1      0.048200
     15 HC12       -0.5440    0.5010    0.9070 h1        1 LY1      0.048200
     16 HN11        1.6640    1.0330   -0.3670 hn        1 LY1      0.371800
     17 HC21        3.1000   -0.0950    1.1680 h1        1 LY1      0.028700
     18 HC22        1.8230    0.9020    1.9990 h1        1 LY1      0.028700
     19 HC31        2.2320   -1.4590    2.9050 hc        1 LY1      0.047700
     20 HC32        0.5100   -1.0060    2.5830 hc        1 LY1      0.047700
     21 HC41        1.4580   -3.3620    1.8120 hc        1 LY1      0.057200
     22 HC42        2.1920   -2.4470    0.4370 hc        1 LY1      0.057200
     23 HC51       -0.0010   -4.6440    0.7140 ha        1 LY1      0.138000
     24 HC61       -2.1520   -4.9480   -0.4810 ha        1 LY1      0.150000
@<TRIPOS>BOND
     1    1    2 1   
     2    1   11 1   
     3    1   14 1   
     4    1   15 1   
     5    2    3 1   
     6    2   16 1   
     7    3    4 1   
     8    3   17 1   
     9    3   18 1   
    10    4    5 1   
    11    4   19 1   
    12    4   20 1   
    13    5    6 1   
    14    5   21 1   
    15    5   22 1   
    16    6    7 ar  
    17    6   11 ar  
    18    7    8 ar  
    19    7   23 1   
    20    8    9 ar  
    21    8   24 1   
    22    9   10 ar  
    23    9   12 1   
    24   10   11 ar  
    25   10   13 1   
@<TRIPOS>SUBSTRUCTURE
     1 LY1         1 TEMP              0 ****  ****    0 ROOT
