@<TRIPOS>MOLECULE
LY1
   24    25     1     0     0
SMALL
bcc


@<TRIPOS>ATOM
      1 C1         -1.3840   -0.0260    1.4350 c3        1 LY1      0.208100
      2 N1         -1.2640    0.6390    2.7130 n3        1 LY1     -0.826200
      3 C2         -0.6390   -0.1400    3.7590 c3        1 LY1      0.164800
      4 C3          0.6630   -0.8060    3.3250 c3        1 LY1     -0.078400
      5 C4          1.5110    0.1100    2.4700 c3        1 LY1     -0.028100
      6 C4A         1.1460    0.1040    1.0230 ca        1 LY1     -0.043300
      7 C5          2.2120    0.1750    0.1120 ca        1 LY1     -0.128000
      8 C6          1.9950    0.1720   -1.2580 ca        1 LY1     -0.119000
      9 C7          0.6880    0.0830   -1.7460 ca        1 LY1      0.014400
     10 C8         -0.3880    0.0150   -0.8510 ca        1 LY1      0.015400
     11 C8A        -0.1720    0.0460    0.5430 ca        1 LY1     -0.049300
     12 CL1         0.4450    0.0590   -3.4270 cl        1 LY1     -0.074400
     13 CL2        -1.9640   -0.1200   -1.4830 cl        1 LY1     -0.080400
     14 HC11       -1.6380   -1.1250    1.5480 h1        1 LY1      0.048200
     15 HC12       -2.2480    0.4650    0.8940 h1        1 LY1      0.048200
     16 HN11       -2.1640    0.9600    3.0180 hn        1 LY1      0.371800
     17 HC21       -1.3240   -0.9450    4.1610 h1        1 LY1      0.028700
     18 HC22       -0.4250    0.5740    4.6050 h1        1 LY1      0.028700
     19 HC31        0.4400   -1.7520    2.7660 hc        1 LY1      0.047700
     20 HC32        1.2330   -1.0860    4.2500 hc        1 LY1      0.047700
     21 HC41        2.5870   -0.2020    2.5760 hc        1 LY1      0.057200
     22 HC42        1.4380    1.1660    2.8520 hc        1 LY1      0.057200
     23 HC51        3.2450    0.2340    0.4900 ha        1 LY1      0.138000
     24 HC61        2.8430    0.2330   -1.9570 ha        1 LY1      0.150000
@<TRIPOS>BOND
     1    1    2 1   
     2    1   11 1   
     3    1   14 1   
     4    1   15 1   
     5    2    3 1   
     6    2   16 1   
     7    3    4 1   
     8    3   17 1   
     9    3   18 1   
    10    4    5 1   
    11    4   19 1   
    12    4   20 1   
    13    5    6 1   
    14    5   21 1   
    15    5   22 1   
    16    6    7 ar  
    17    6   11 ar  
    18    7    8 ar  
    19    7   23 1   
    20    8    9 ar  
    21    8   24 1   
    22    9   10 ar  
    23    9   12 1   
    24   10   11 ar  
    25   10   13 1   
@<TRIPOS>SUBSTRUCTURE
     1 LY1         1 TEMP              0 ****  ****    0 ROOT
