@<TRIPOS>MOLECULE
LY1
   24    25     1     0     0
SMALL
bcc


@<TRIPOS>ATOM
      1 C1         -0.0550    0.0340    0.0010 c3        1 LY1      0.208100
      2 N1          1.3850    0.1600    0.0400 n3        1 LY1     -0.826200
      3 C2          1.9840    0.0010    1.3460 c3        1 LY1      0.164800
      4 C3          1.4880   -1.2320    2.0970 c3        1 LY1     -0.078400
      5 C4          1.3520   -2.4330    1.1870 c3        1 LY1     -0.028100
      6 C4A         0.0590   -2.4920    0.4450 ca        1 LY1     -0.043300
      7 C5         -0.5120   -3.7650    0.2900 ca        1 LY1     -0.128000
      8 C6         -1.7150   -3.9430   -0.3780 ca        1 LY1     -0.119000
      9 C7         -2.3820   -2.8300   -0.8990 ca        1 LY1      0.014400
     10 C8         -1.8230   -1.5530   -0.7570 ca        1 LY1      0.015400
     11 C8A        -0.5870   -1.3730   -0.1020 ca        1 LY1     -0.049300
     12 CL1        -3.8630   -3.0670   -1.6950 cl        1 LY1     -0.074400
     13 CL2        -2.6790   -0.2180   -1.3820 cl        1 LY1     -0.080400
     14 HC11       -0.4070    0.6110   -0.9060 h1        1 LY1      0.048200
     15 HC12       -0.5480    0.5000    0.9090 h1        1 LY1      0.048200
     16 HN11        1.6620    1.0370   -0.3590 hn        1 LY1      0.371800
     17 HC21        3.0960   -0.0910    1.1790 h1        1 LY1      0.028700
     18 HC22        1.8150    0.9020    2.0080 h1        1 LY1      0.028700
     19 HC31        0.5040   -1.0100    2.5850 hc        1 LY1      0.047700
     20 HC32        2.2250   -1.4610    2.9100 hc        1 LY1      0.047700
     21 HC41        1.4580   -3.3630    1.8120 hc        1 LY1      0.057200
     22 HC42        2.1940   -2.4440    0.4410 hc        1 LY1      0.057200
     23 HC51        0.0030   -4.6440    0.7080 ha        1 LY1      0.138000
     24 HC61       -2.1450   -4.9490   -0.4930 ha        1 LY1      0.150000
@<TRIPOS>BOND
     1    1    2 1   
     2    1   11 1   
     3    1   14 1   
     4    1   15 1   
     5    2    3 1   
     6    2   16 1   
     7    3    4 1   
     8    3   17 1   
     9    3   18 1   
    10    4    5 1   
    11    4   19 1   
    12    4   20 1   
    13    5    6 1   
    14    5   21 1   
    15    5   22 1   
    16    6    7 ar  
    17    6   11 ar  
    18    7    8 ar  
    19    7   23 1   
    20    8    9 ar  
    21    8   24 1   
    22    9   10 ar  
    23    9   12 1   
    24   10   11 ar  
    25   10   13 1   
@<TRIPOS>SUBSTRUCTURE
     1 LY1         1 TEMP              0 ****  ****    0 ROOT
