@<TRIPOS>MOLECULE
LY2
   40    43     1     0     0
SMALL
bcc


@<TRIPOS>ATOM
      1 N14        -0.1790    0.8080    2.5580 nh        1 LY2     -0.612400
      2 C15        -0.3320    0.0570    3.8000 c3        1 LY2      0.143800
      3 C19         1.2160    1.1110    2.2750 c3        1 LY2      0.143800
      4 C11        -1.0080    0.4010    1.4930 cc        1 LY2      0.322100
      5 C16         0.6510   -1.1120    3.9490 c3        1 LY2      0.094400
      6 O17         1.9940   -0.7010    3.7230 os        1 LY2     -0.409600
      7 C18         2.1720   -0.0720    2.4580 c3        1 LY2      0.094400
      8 C1         -2.3670   -0.4250   -3.2570 ca        1 LY2     -0.164000
      9 C2         -3.0890   -0.3390   -2.0740 ca        1 LY2     -0.046000
     10 C6         -0.9750   -0.3140   -3.2400 ca        1 LY2     -0.074000
     11 C3         -2.4250   -0.1340   -0.8560 ca        1 LY2     -0.212600
     12 C4         -1.0250   -0.0250   -0.8490 ca        1 LY2      0.159100
     13 C9         -3.1790   -0.0180    0.4030 c         1 LY2      0.598900
     14 C5         -0.2750   -0.1180   -2.0450 cp        1 LY2     -0.063000
     15 O12        -0.2950    0.1670    0.3140 os        1 LY2     -0.250200
     16 C20         1.1830   -0.0280   -2.0710 cp        1 LY2     -0.035000
     17 C25         1.8160    0.8170   -2.9940 ca        1 LY2     -0.113500
     18 C24         3.2070    0.8830   -3.0460 ca        1 LY2     -0.133500
     19 C21         1.9650   -0.8040   -1.2040 ca        1 LY2     -0.113500
     20 C22         3.3560   -0.7390   -1.2640 ca        1 LY2     -0.133500
     21 C23         3.9790    0.1040   -2.1840 ca        1 LY2     -0.124000
     22 C10        -2.3670    0.3080    1.5640 cd        1 LY2     -0.366200
     23 O13        -4.4090   -0.1700    0.4630 o         1 LY2     -0.554100
     24 H151       -0.1490    0.7960    4.6300 h1        1 LY2      0.077450
     25 H152       -1.3820   -0.3330    3.8920 h1        1 LY2      0.077450
     26 H191        1.3210    1.5120    1.2290 h1        1 LY2      0.077450
     27 H192        1.5010    1.9250    3.0020 h1        1 LY2      0.077450
     28 H161        0.6490   -1.4860    5.0060 h1        1 LY2      0.060200
     29 H162        0.3900   -1.9460    3.2460 h1        1 LY2      0.060200
     30 H181        3.2350    0.2850    2.4730 h1        1 LY2      0.060200
     31 H182        2.0300   -0.8250    1.6370 h1        1 LY2      0.060200
     32 HC1        -2.8900   -0.5840   -4.2120 ha        1 LY2      0.143000
     33 HC2        -4.1890   -0.4270   -2.0650 ha        1 LY2      0.163000
     34 HC6        -0.4090   -0.3860   -4.1820 ha        1 LY2      0.144000
     35 H25         1.2090    1.4320   -3.6750 ha        1 LY2      0.137500
     36 H24         3.6960    1.5500   -3.7710 ha        1 LY2      0.133500
     37 H21         1.4710   -1.4630   -0.4740 ha        1 LY2      0.137500
     38 H22         3.9610   -1.3560   -0.5850 ha        1 LY2      0.133500
     39 H23         5.0770    0.1540   -2.2310 ha        1 LY2      0.134000
     40 H10        -2.9050    0.5040    2.5020 ha        1 LY2      0.171000
@<TRIPOS>BOND
     1    1    2 1   
     2    1    3 1   
     3    1    4 1   
     4    2    5 1   
     5    2   24 1   
     6    2   25 1   
     7    3    7 1   
     8    3   26 1   
     9    3   27 1   
    10    4   15 1   
    11    4   22 2   
    12    5    6 1   
    13    5   28 1   
    14    5   29 1   
    15    6    7 1   
    16    7   30 1   
    17    7   31 1   
    18    8    9 ar  
    19    8   10 ar  
    20    8   32 1   
    21    9   11 ar  
    22    9   33 1   
    23   10   14 ar  
    24   10   34 1   
    25   11   12 ar  
    26   11   13 1   
    27   12   14 ar  
    28   12   15 1   
    29   13   22 1   
    30   13   23 2   
    31   14   16 1   
    32   16   17 ar  
    33   16   19 ar  
    34   17   18 ar  
    35   17   35 1   
    36   18   21 ar  
    37   18   36 1   
    38   19   20 ar  
    39   19   37 1   
    40   20   21 ar  
    41   20   38 1   
    42   21   39 1   
    43   22   40 1   
@<TRIPOS>SUBSTRUCTURE
     1 LY2         1 TEMP              0 ****  ****    0 ROOT
