@<TRIPOS>MOLECULE
LY2
   40    43     1     0     0
SMALL
bcc


@<TRIPOS>ATOM
      1 N14        -0.0430   -0.3730   -0.2730 nh        1 LY2     -0.612400
      2 C15         1.3760   -0.2460    0.0450 c3        1 LY2      0.143800
      3 C19        -0.8000   -0.9390    0.8340 c3        1 LY2      0.143800
      4 C11        -0.6050    0.7010   -0.9910 cc        1 LY2      0.322100
      5 C16         1.6560    0.3600    1.4270 c3        1 LY2      0.094400
      6 O17         0.9250   -0.3050    2.4500 os        1 LY2     -0.409600
      7 C18        -0.4770   -0.3260    2.2020 c3        1 LY2      0.094400
      8 C1         -4.1340    3.9320   -2.4770 ca        1 LY2     -0.164000
      9 C2         -2.9110    3.5590   -3.0200 ca        1 LY2     -0.046000
     10 C6         -4.5530    3.3940   -1.2580 ca        1 LY2     -0.074000
     11 C3         -2.0940    2.6380   -2.3500 ca        1 LY2     -0.212600
     12 C4         -2.5230    2.1050   -1.1250 ca        1 LY2      0.159100
     13 C9         -0.8050    2.2170   -2.9250 c         1 LY2      0.598900
     14 C5         -3.7620    2.4800   -0.5550 cp        1 LY2     -0.063000
     15 O12        -1.7680    1.1990   -0.3960 os        1 LY2     -0.250200
     16 C20        -4.2310    1.9590    0.7280 cp        1 LY2     -0.035000
     17 C25        -5.5370    1.4620    0.8470 ca        1 LY2     -0.113500
     18 C24        -6.0010    0.9950    2.0750 ca        1 LY2     -0.133500
     19 C21        -3.4010    1.9800    1.8570 ca        1 LY2     -0.113500
     20 C22        -3.8720    1.5160    3.0840 ca        1 LY2     -0.133500
     21 C23        -5.1710    1.0230    3.1950 ca        1 LY2     -0.124000
     22 C10        -0.1240    1.1730   -2.1770 cd        1 LY2     -0.366200
     23 O13        -0.3480    2.7040   -3.9710 o         1 LY2     -0.554100
     24 H151        1.8970    0.3690   -0.7380 h1        1 LY2      0.077450
     25 H152        1.7920   -1.2940    0.0150 h1        1 LY2      0.077450
     26 H191       -1.9030   -0.8430    0.6390 h1        1 LY2      0.077450
     27 H192       -0.5320   -2.0340    0.8540 h1        1 LY2      0.077450
     28 H161        1.4090    1.4540    1.4400 h1        1 LY2      0.060200
     29 H162        2.7310    0.2050    1.7060 h1        1 LY2      0.060200
     30 H181       -0.8940   -0.9660    3.0230 h1        1 LY2      0.060200
     31 H182       -0.8910    0.7150    2.2750 h1        1 LY2      0.060200
     32 HC1        -4.7750    4.6520   -3.0040 ha        1 LY2      0.143000
     33 HC2        -2.5600    3.9740   -3.9800 ha        1 LY2      0.163000
     34 HC6        -5.5240    3.6960   -0.8320 ha        1 LY2      0.144000
     35 H25        -6.1930    1.4390   -0.0360 ha        1 LY2      0.137500
     36 H24        -7.0260    0.6030    2.1580 ha        1 LY2      0.133500
     37 H21        -2.3730    2.3640    1.7650 ha        1 LY2      0.137500
     38 H22        -3.2150    1.5430    3.9660 ha        1 LY2      0.133500
     39 H23        -5.5420    0.6580    4.1650 ha        1 LY2      0.134000
     40 H10         0.7900    0.7600   -2.6290 ha        1 LY2      0.171000
@<TRIPOS>BOND
     1    1    2 1   
     2    1    3 1   
     3    1    4 1   
     4    2    5 1   
     5    2   24 1   
     6    2   25 1   
     7    3    7 1   
     8    3   26 1   
     9    3   27 1   
    10    4   15 1   
    11    4   22 2   
    12    5    6 1   
    13    5   28 1   
    14    5   29 1   
    15    6    7 1   
    16    7   30 1   
    17    7   31 1   
    18    8    9 ar  
    19    8   10 ar  
    20    8   32 1   
    21    9   11 ar  
    22    9   33 1   
    23   10   14 ar  
    24   10   34 1   
    25   11   12 ar  
    26   11   13 1   
    27   12   14 ar  
    28   12   15 1   
    29   13   22 1   
    30   13   23 2   
    31   14   16 1   
    32   16   17 ar  
    33   16   19 ar  
    34   17   18 ar  
    35   17   35 1   
    36   18   21 ar  
    37   18   36 1   
    38   19   20 ar  
    39   19   37 1   
    40   20   21 ar  
    41   20   38 1   
    42   21   39 1   
    43   22   40 1   
@<TRIPOS>SUBSTRUCTURE
     1 LY2         1 TEMP              0 ****  ****    0 ROOT
