@<TRIPOS>MOLECULE
LY2
   40    35     1     0     0
SMALL
bcc


@<TRIPOS>ATOM
      1 N14         1.8600   -0.1170    0.6950 n3        1 LY2     -0.235000
      2 C15         2.9490    0.9350    0.9670 c3        1 LY2     -0.080500
      3 C19         2.7560   -1.3380    0.9640 c3        1 LY2     -0.080500
      4 C11         1.5040   -0.0850   -0.6790 c2        1 LY2      0.223000
      5 C16         3.4760    0.8790    2.3820 c3        1 LY2     -0.042000
      6 O17         3.2260   -0.2360    2.9210 os        1 LY2     -0.271000
      7 C18         3.2850   -1.3750    2.3790 c3        1 LY2     -0.042000
      8 C1         -2.4560    1.4710   -3.3330 c1        1 LY2     -0.124667
      9 C2         -1.0840    1.4960   -3.5470 c1        1 LY2     -0.046000
     10 C6         -2.9680    0.9200   -2.1610 c1        1 LY2     -0.124667
     11 C3         -0.2100    0.9640   -2.5800 c1        1 LY2     -0.188000
     12 C4         -0.7160    0.4200   -1.4230 c1        1 LY2      0.113000
     13 C9          1.1660    0.9860   -2.7950 c1        1 LY2      0.325000
     14 C5         -2.1070    0.3950   -1.2060 c1        1 LY2     -0.062000
     15 O12         0.1480   -0.1080   -0.4670 os        1 LY2     -0.155000
     16 C20        -2.6210   -0.2270   -0.0790 c1        1 LY2     -0.033000
     17 C25        -2.8880   -1.5870   -0.1000 c1        1 LY2     -0.124667
     18 C24        -3.4690   -2.1970    1.0010 c1        1 LY2     -0.124667
     19 C21        -2.9350    0.5230    1.0440 c1        1 LY2     -0.112000
     20 C22        -3.5160   -0.0860    2.1450 c1        1 LY2     -0.124667
     21 C23        -3.7830   -1.4460    2.1230 c1        1 LY2     -0.124667
     22 C10         2.0170    0.4650   -1.8500 c1        1 LY2     -0.379000
     23 O13         1.6110    1.4210   -3.8380 o         1 LY2     -0.320000
     24 H151        2.5750    1.8240    0.8050 h1        1 LY2      0.110750
     25 H152        3.6920    0.7870    0.3480 h1        1 LY2      0.110750
     26 H191        3.5130   -1.3150    0.3450 h1        1 LY2      0.110750
     27 H192        2.2390   -2.1510    0.7990 h1        1 LY2      0.110750
     28 H161        3.0570    1.5910    2.9090 h1        1 LY2      0.098750
     29 H162        4.4460    1.0180    2.3690 h1        1 LY2      0.098750
     30 H181        2.7520   -2.0080    2.9050 h1        1 LY2      0.098750
     31 H182        4.2180   -1.6750    2.3660 h1        1 LY2      0.098750
     32 HC1        -3.0610    1.8400   -4.0030 ha        1 LY2      0.136833
     33 HC2        -0.7260    1.8820   -4.3690 ha        1 LY2      0.164000
     34 HC6        -3.9320    0.9030   -2.0110 ha        1 LY2      0.136833
     35 H25        -2.6670   -2.1160   -0.8900 ha        1 LY2      0.136833
     36 H24        -3.6570   -3.1550    0.9860 ha        1 LY2      0.136833
     37 H21        -2.7470    1.4810    1.0590 ha        1 LY2      0.141000
     38 H22        -3.7370    0.4420    2.9350 ha        1 LY2      0.136833
     39 H23        -4.1920   -1.8750    2.8980 ha        1 LY2      0.136833
     40 H10         2.9790    0.4530   -2.0130 ha        1 LY2      0.168000
@<TRIPOS>BOND
     1    1    2 1   
     2    1    3 1   
     3    1    4 1   
     4    2    5 1   
     5    2   24 1   
     6    2   25 1   
     7    3    7 1   
     8    3   26 1   
     9    3   27 1   
    10    4   15 1   
    11    4   22 1   
    12    5    6 1   
    13    5   28 1   
    14    5   29 1   
    15    6    7 1   
    16    7   30 1   
    17    7   31 1   
    18    8   10 1   
    19    8   32 1   
    20    9   11 1   
    21    9   33 1   
    22   10   34 1   
    23   11   13 1   
    24   12   14 1   
    25   12   15 1   
    26   13   23 1   
    27   16   19 1   
    28   17   18 1   
    29   17   35 1   
    30   18   36 1   
    31   19   37 1   
    32   20   21 1   
    33   20   38 1   
    34   21   39 1   
    35   22   40 1   
@<TRIPOS>SUBSTRUCTURE
     1 LY2         1 TEMP              0 ****  ****    0 ROOT
