@<TRIPOS>MOLECULE
LY2
   40    43     1     0     0
SMALL
bcc


@<TRIPOS>ATOM
      1 N14        -0.0350   -0.3630   -0.2760 nh        1 LY2     -0.612400
      2 C15         1.3820   -0.2310    0.0470 c3        1 LY2      0.143800
      3 C19        -0.7920   -0.9370    0.8270 c3        1 LY2      0.143800
      4 C11        -0.6010    0.7110   -0.9910 cc        1 LY2      0.322100
      5 C16         1.6550    0.3710    1.4320 c3        1 LY2      0.094400
      6 O17         0.9250   -0.3020    2.4510 os        1 LY2     -0.409600
      7 C18        -0.4760   -0.3280    2.1980 c3        1 LY2      0.094400
      8 C1         -4.1390    3.9320   -2.4710 ca        1 LY2     -0.164000
      9 C2         -2.9140    3.5670   -3.0140 ca        1 LY2     -0.046000
     10 C6         -4.5590    3.3890   -1.2550 ca        1 LY2     -0.074000
     11 C3         -2.0940    2.6470   -2.3450 ca        1 LY2     -0.212600
     12 C4         -2.5240    2.1080   -1.1230 ca        1 LY2      0.159100
     13 C9         -0.8030    2.2320   -2.9200 c         1 LY2      0.598900
     14 C5         -3.7650    2.4750   -0.5540 cp        1 LY2     -0.063000
     15 O12        -1.7660    1.2020   -0.3960 os        1 LY2     -0.250200
     16 C20        -4.2340    1.9490    0.7270 cp        1 LY2     -0.035000
     17 C25        -5.5380    1.4460    0.8420 ca        1 LY2     -0.113500
     18 C24        -6.0020    0.9720    2.0670 ca        1 LY2     -0.133500
     19 C21        -3.4060    1.9700    1.8570 ca        1 LY2     -0.113500
     20 C22        -3.8770    1.5000    3.0820 ca        1 LY2     -0.133500
     21 C23        -5.1740    1.0010    3.1890 ca        1 LY2     -0.124000
     22 C10        -0.1190    1.1890   -2.1740 cd        1 LY2     -0.366200
     23 O13        -0.3460    2.7240   -3.9630 o         1 LY2     -0.554100
     24 H151        1.8030   -1.2770    0.0150 h1        1 LY2      0.077450
     25 H152        1.9030    0.3900   -0.7320 h1        1 LY2      0.077450
     26 H191       -0.5190   -2.0310    0.8430 h1        1 LY2      0.077450
     27 H192       -1.8950   -0.8460    0.6290 h1        1 LY2      0.077450
     28 H161        1.4030    1.4640    1.4490 h1        1 LY2      0.060200
     29 H162        2.7300    0.2200    1.7140 h1        1 LY2      0.060200
     30 H181       -0.8930   -0.9730    3.0160 h1        1 LY2      0.060200
     31 H182       -0.8960    0.7110    2.2740 h1        1 LY2      0.060200
     32 HC1        -4.7830    4.6520   -2.9980 ha        1 LY2      0.143000
     33 HC2        -2.5630    3.9860   -3.9720 ha        1 LY2      0.163000
     34 HC6        -5.5310    3.6860   -0.8300 ha        1 LY2      0.144000
     35 H25        -6.1930    1.4220   -0.0430 ha        1 LY2      0.137500
     36 H24        -7.0250    0.5760    2.1480 ha        1 LY2      0.133500
     37 H21        -2.3790    2.3580    1.7680 ha        1 LY2      0.137500
     38 H22        -3.2210    1.5270    3.9650 ha        1 LY2      0.133500
     39 H23        -5.5440    0.6310    4.1570 ha        1 LY2      0.134000
     40 H10         0.7970    0.7810   -2.6260 ha        1 LY2      0.171000
@<TRIPOS>BOND
     1    1    2 1   
     2    1    3 1   
     3    1    4 1   
     4    2    5 1   
     5    2   24 1   
     6    2   25 1   
     7    3    7 1   
     8    3   26 1   
     9    3   27 1   
    10    4   15 1   
    11    4   22 2   
    12    5    6 1   
    13    5   28 1   
    14    5   29 1   
    15    6    7 1   
    16    7   30 1   
    17    7   31 1   
    18    8    9 ar  
    19    8   10 ar  
    20    8   32 1   
    21    9   11 ar  
    22    9   33 1   
    23   10   14 ar  
    24   10   34 1   
    25   11   12 ar  
    26   11   13 1   
    27   12   14 ar  
    28   12   15 1   
    29   13   22 1   
    30   13   23 2   
    31   14   16 1   
    32   16   17 ar  
    33   16   19 ar  
    34   17   18 ar  
    35   17   35 1   
    36   18   21 ar  
    37   18   36 1   
    38   19   20 ar  
    39   19   37 1   
    40   20   21 ar  
    41   20   38 1   
    42   21   39 1   
    43   22   40 1   
@<TRIPOS>SUBSTRUCTURE
     1 LY2         1 TEMP              0 ****  ****    0 ROOT
