@<TRIPOS>MOLECULE
LY3
   54    57     1     0     0
SMALL
bcc


@<TRIPOS>ATOM
      1 N1         -0.7720    0.0490    0.2430 ns        1 LY3     -0.503400
      2 C1          0.5990   -0.1680   -0.0150 cc        1 LY3      0.679800
      3 N2          1.5630   -0.1730    0.9330 nd        1 LY3     -0.678100
      4 C2          1.1000   -0.0220    2.2320 cd        1 LY3      0.200100
      5 C3         -0.2750    0.1770    2.5970 cc        1 LY3     -0.280600
      6 C4         -1.2730    0.2140    1.5600 c         1 LY3      0.757100
      7 N3          1.8570   -0.0290    3.4000 na        1 LY3     -0.165100
      8 C5          0.9910    0.1530    4.4860 cd        1 LY3     -0.157300
      9 C6         -0.3260    0.2820    4.0290 cc        1 LY3     -0.069300
     10 C7         -1.5340    0.4520    4.8480 c3        1 LY3     -0.005100
     11 C8         -2.1660    1.8240    4.6440 c3        1 LY3     -0.047100
     12 C9         -3.5930    1.8290    5.0650 ca        1 LY3     -0.017300
     13 C10        -3.9960    2.4500    6.2520 ca        1 LY3     -0.138000
     14 C11        -5.3370    2.4490    6.6240 ca        1 LY3     -0.068500
     15 C12        -6.2960    1.8210    5.8130 ca        1 LY3     -0.190600
     16 C13        -5.8940    1.2040    4.6180 ca        1 LY3     -0.068500
     17 C14        -4.5540    1.2110    4.2500 ca        1 LY3     -0.138000
     18 C15        -7.6920    1.8610    6.2780 c         1 LY3      0.578700
     19 O1         -2.5010    0.3860    1.6880 o         1 LY3     -0.652500
     20 N4          0.9640   -0.4540   -1.3510 nv        1 LY3     -0.890800
     21 C16        -9.9840    0.7690    6.2250 c3        1 LY3     -0.059500
     22 C17       -11.1110    1.6150    5.6590 c3        1 LY3     -0.085400
     23 C18       -10.3730   -0.7870    6.0980 c         1 LY3      0.932600
     24 O2         -9.4680   -1.5270    5.6270 o         1 LY3     -0.763800
     25 O3        -11.5110   -1.0830    6.4980 o         1 LY3     -0.763800
     26 N5         -8.6600    0.9850    5.5620 ny        1 LY3     -0.649800
     27 O4         -8.1040    2.5400    7.2180 o         1 LY3     -0.477100
     28 C19       -11.0920    3.0610    6.1160 c3        1 LY3     -0.114700
     29 C20       -10.4920    3.9820    5.1160 cc        1 LY3      0.503300
     30 N6        -10.9880    5.1820    4.6840 nd        1 LY3     -0.484800
     31 N7        -10.0500    5.6030    3.8260 na        1 LY3      0.105900
     32 N8         -9.0180    4.7500    3.6970 nd        1 LY3     -0.136800
     33 N9         -9.2380    3.7570    4.4570 nc        1 LY3     -0.441000
     34 HN1        -1.4370   -0.0070   -0.4970 hn        1 LY3      0.335500
     35 HN3         2.8340   -0.1580    3.4510 hn        1 LY3      0.312700
     36 HC5         1.3780    0.1730    5.5050 h4        1 LY3      0.175000
     37 HC71       -1.2900    0.3070    5.9340 hc        1 LY3      0.059200
     38 HC72       -2.2780   -0.3410    4.5560 hc        1 LY3      0.059200
     39 HC81       -1.5850    2.5970    5.2100 hc        1 LY3      0.066200
     40 HC82       -2.1140    2.0860    3.5500 hc        1 LY3      0.066200
     41 H10        -3.2520    2.9430    6.8960 ha        1 LY3      0.164000
     42 H11        -5.6560    2.9410    7.5580 ha        1 LY3      0.147500
     43 H13        -6.6150    0.7130    3.9460 ha        1 LY3      0.147500
     44 H14        -4.2300    0.7330    3.3070 ha        1 LY3      0.164000
     45 HN41        1.9480   -0.5020   -1.5110 hn        1 LY3      0.420300
     46 HN42        0.4640    0.0510   -2.0490 hn        1 LY3      0.420300
     47 H16        -9.8620    0.9730    7.3260 hx        1 LY3      0.102700
     48 H171      -11.1420    1.5490    4.5410 hc        1 LY3      0.088700
     49 H172      -12.0590    1.1300    6.0370 hc        1 LY3      0.088700
     50 HN5        -8.2420    0.0230    5.4710 hn        1 LY3      0.473800
     51 H191      -12.1450    3.3940    6.3300 hc        1 LY3      0.084200
     52 H192      -10.5050    3.1620    7.0720 hc        1 LY3      0.084200
     53 HN7       -10.1270    6.4710    3.3320 hn        1 LY3      0.356700
     54 H52        -8.8030    1.3500    4.6170 hn        1 LY3      0.473800
@<TRIPOS>BOND
     1    1    2 1   
     2    1    6 1   
     3    1   34 1   
     4    2    3 2   
     5    2   20 1   
     6    3    4 1   
     7    4    5 2   
     8    4    7 1   
     9    5    6 1   
    10    5    9 1   
    11    6   19 2   
    12    7    8 1   
    13    7   35 1   
    14    8    9 2   
    15    8   36 1   
    16    9   10 1   
    17   10   11 1   
    18   10   37 1   
    19   10   38 1   
    20   11   12 1   
    21   11   39 1   
    22   11   40 1   
    23   12   13 ar  
    24   12   17 ar  
    25   13   14 ar  
    26   13   41 1   
    27   14   15 ar  
    28   14   42 1   
    29   15   16 ar  
    30   15   18 1   
    31   16   17 ar  
    32   16   43 1   
    33   17   44 1   
    34   18   26 1   
    35   18   27 2   
    36   20   45 1   
    37   20   46 1   
    38   21   22 1   
    39   21   23 1   
    40   21   26 1   
    41   21   47 1   
    42   22   28 1   
    43   22   48 1   
    44   22   49 1   
    45   23   24 1   
    46   23   25 1   
    47   26   50 1   
    48   26   54 1   
    49   28   29 1   
    50   28   51 1   
    51   28   52 1   
    52   29   30 2   
    53   29   33 1   
    54   30   31 1   
    55   31   32 1   
    56   31   53 1   
    57   32   33 2   
@<TRIPOS>SUBSTRUCTURE
     1 LY3         1 TEMP              0 ****  ****    0 ROOT
