@<TRIPOS>MOLECULE
LY3
   53    56     1     0     0
SMALL
bcc


@<TRIPOS>ATOM
      1 N1         -1.8980    1.3180    7.3170 n         1 LY3     -0.506400
      2 C1         -1.3430    0.8040    8.5060 cc        1 LY3      0.660800
      3 N2         -0.2200    0.0590    8.5660 nd        1 LY3     -0.678100
      4 C2          0.3470   -0.2360    7.3310 cd        1 LY3      0.180100
      5 C3         -0.1530    0.2240    6.0660 cc        1 LY3     -0.266600
      6 C4         -1.3420    1.0370    6.0390 c         1 LY3      0.752100
      7 N3          1.4840   -1.0020    7.0900 na        1 LY3     -0.165100
      8 C5          1.7080   -1.0290    5.7080 cd        1 LY3     -0.170300
      9 C6          0.7190   -0.2870    5.0470 cc        1 LY3     -0.048300
     10 C7          0.6130   -0.0520    3.5990 c3        1 LY3     -0.025100
     11 C8          0.4120   -1.3460    2.8240 c3        1 LY3     -0.027100
     12 C9          0.5690   -1.1450    1.3580 ca        1 LY3     -0.080300
     13 C10         1.5660   -1.8300    0.6550 ca        1 LY3     -0.142500
     14 C11         1.7040   -1.6580   -0.7200 ca        1 LY3     -0.092000
     15 C12         0.8500   -0.7890   -1.4100 ca        1 LY3     -0.122600
     16 C13        -0.1500   -0.1060   -0.7130 ca        1 LY3     -0.092000
     17 C14        -0.2900   -0.2870    0.6620 ca        1 LY3     -0.142500
     18 C15         1.0370   -0.6490   -2.8910 c         1 LY3      0.648700
     19 O1         -1.9240    1.5170    5.0510 o         1 LY3     -0.622500
     20 N4         -2.0580    1.0530    9.7100 nh        1 LY3     -0.883800
     21 C16         1.1250    0.9120   -4.8130 c3        1 LY3     -0.048300
     22 C17        -0.0070    0.6650   -5.8160 c3        1 LY3     -0.071400
     23 C18         1.5470    2.4280   -4.9430 c         1 LY3      0.915600
     24 O2          2.0570    2.7620   -6.0430 o         1 LY3     -0.824800
     25 O3          1.3560    3.1930   -3.9580 o         1 LY3     -0.824800
     26 N5          0.7790    0.5710   -3.4490 n         1 LY3     -0.511900
     27 O4          1.3860   -1.6490   -3.5670 o         1 LY3     -0.658100
     28 C19        -0.2700   -0.8160   -6.0100 c3        1 LY3     -0.105700
     29 C20        -1.2710   -1.0460   -7.0850 cc        1 LY3      0.524300
     30 N6         -1.0430   -1.1250   -8.4300 nd        1 LY3     -0.503800
     31 N7         -2.2700   -1.3260   -8.9340 na        1 LY3      0.076900
     32 N8         -3.2360   -1.3660   -7.9910 nd        1 LY3     -0.173800
     33 N9         -2.6860   -1.2090   -6.8620 nc        1 LY3     -0.381000
     34 HN1        -2.7570    1.8210    7.3430 hn        1 LY3      0.331500
     35 HN3         2.0350   -1.4430    7.7780 hn        1 LY3      0.304700
     36 HC5         2.5560   -1.5750    5.2940 h4        1 LY3      0.174000
     37 HC71       -0.2470    0.6440    3.3950 hc        1 LY3      0.071200
     38 HC72        1.5490    0.4570    3.2380 hc        1 LY3      0.071200
     39 HC81        1.1480   -2.1130    3.1880 hc        1 LY3      0.044200
     40 HC82       -0.6160   -1.7470    3.0350 hc        1 LY3      0.044200
     41 H10         2.2440   -2.5120    1.1880 ha        1 LY3      0.127000
     42 H11         2.4750   -2.2080   -1.2820 ha        1 LY3      0.149500
     43 H13        -0.8370    0.5730   -1.2420 ha        1 LY3      0.149500
     44 H14        -1.0810    0.2510    1.2070 ha        1 LY3      0.127000
     45 HN41       -1.5790    0.7450   10.5310 hn        1 LY3      0.407300
     46 HN42       -2.4060    1.9840    9.7910 hn        1 LY3      0.407300
     47 H16         2.0140    0.2890   -5.1270 h1        1 LY3      0.058700
     48 H171       -0.9430    1.1810   -5.4830 hc        1 LY3      0.060700
     49 H172        0.3180    1.1310   -6.7850 hc        1 LY3      0.060700
     50 HN5         0.6670    1.3680   -2.8520 hn        1 LY3      0.334500
     51 H191        0.6890   -1.3390   -6.2730 hc        1 LY3      0.078200
     52 H192       -0.6390   -1.2710   -5.0510 hc        1 LY3      0.078200
     53 HN7        -2.4410   -1.3810   -9.9150 hn        1 LY3      0.335700
@<TRIPOS>BOND
     1    1    2 1   
     2    1    6 1   
     3    1   34 1   
     4    2    3 2   
     5    2   20 1   
     6    3    4 1   
     7    4    5 2   
     8    4    7 1   
     9    5    6 1   
    10    5    9 1   
    11    6   19 2   
    12    7    8 1   
    13    7   35 1   
    14    8    9 2   
    15    8   36 1   
    16    9   10 1   
    17   10   11 1   
    18   10   37 1   
    19   10   38 1   
    20   11   12 1   
    21   11   39 1   
    22   11   40 1   
    23   12   13 ar  
    24   12   17 ar  
    25   13   14 ar  
    26   13   41 1   
    27   14   15 ar  
    28   14   42 1   
    29   15   16 ar  
    30   15   18 1   
    31   16   17 ar  
    32   16   43 1   
    33   17   44 1   
    34   18   26 1   
    35   18   27 2   
    36   20   45 1   
    37   20   46 1   
    38   21   22 1   
    39   21   23 1   
    40   21   26 1   
    41   21   47 1   
    42   22   28 1   
    43   22   48 1   
    44   22   49 1   
    45   23   24 1   
    46   23   25 1   
    47   26   50 1   
    48   28   29 1   
    49   28   51 1   
    50   28   52 1   
    51   29   30 2   
    52   29   33 1   
    53   30   31 1   
    54   31   32 1   
    55   31   53 1   
    56   32   33 2   
@<TRIPOS>SUBSTRUCTURE
     1 LY3         1 TEMP              0 ****  ****    0 ROOT
