@<TRIPOS>MOLECULE
LY3
   55    58     1     0     0
SMALL
bcc


@<TRIPOS>ATOM
      1 N1         -3.5140   -0.7270    2.8480 n         1 LY3     -0.480400
      2 C1         -3.1840   -0.2280    1.5870 cc        1 LY3      0.568800
      3 N2         -2.0390    0.3610    1.2290 nd        1 LY3     -0.580100
      4 C2         -1.1730    0.6000    2.2940 cd        1 LY3      0.132100
      5 C3         -1.4680    0.2650    3.6610 cc        1 LY3     -0.215600
      6 C4         -2.6580   -0.4980    3.9640 c         1 LY3      0.749100
      7 N3          0.0420    1.2810    2.2690 na        1 LY3     -0.133100
      8 C5          0.4830    1.4240    3.5830 cd        1 LY3     -0.117300
      9 C6         -0.4340    0.8300    4.4710 cc        1 LY3     -0.074300
     10 C7         -0.3810    0.8390    5.9410 c3        1 LY3     -0.019100
     11 C8         -0.9510    2.1210    6.5430 c3        1 LY3     -0.047100
     12 C9         -2.4280    2.2200    6.3750 ca        1 LY3     -0.009300
     13 C10        -3.2800    1.4350    7.1630 ca        1 LY3     -0.124000
     14 C11        -4.6540    1.4500    6.9480 ca        1 LY3     -0.061500
     15 C12        -5.1940    2.2480    5.9250 ca        1 LY3     -0.200600
     16 C13        -4.3550    3.0910    5.1830 ca        1 LY3     -0.061500
     17 C14        -2.9840    3.0790    5.4150 ca        1 LY3     -0.124000
     18 C15        -6.6380    2.1500    5.6910 c         1 LY3      0.575700
     19 O1         -3.0100   -0.9710    5.0530 o         1 LY3     -0.589500
     20 N4         -4.2400   -0.3130    0.5340 n4        1 LY3     -0.816600
     21 C16        -7.4430    0.8910    3.6930 c3        1 LY3      0.034500
     22 C17        -8.8680    0.7960    3.1480 c3        1 LY3     -0.092400
     23 C18        -6.4630    0.5250    2.5530 c         1 LY3      0.907600
     24 O2         -6.3560   -0.6850    2.2090 o         1 LY3     -0.829300
     25 O3         -5.7720    1.4410    2.0080 o         1 LY3     -0.829300
     26 N5         -7.1070    2.2450    4.2620 n4        1 LY3     -0.680800
     27 O4         -7.5140    1.9510    6.5250 o         1 LY3     -0.444100
     28 C19        -9.9410    0.9020    4.2150 c3        1 LY3     -0.111700
     29 C20       -10.5690    2.2470    4.2680 cc        1 LY3      0.480300
     30 N6        -11.9010    2.5490    4.3530 nd        1 LY3     -0.454800
     31 N7        -11.9020    3.8850    4.4060 na        1 LY3      0.124900
     32 N8        -10.6730    4.4280    4.3570 nd        1 LY3     -0.112800
     33 N9         -9.8350    3.4760    4.2740 nc        1 LY3     -0.463000
     34 HN1        -4.4180   -1.1380    3.0170 hn        1 LY3      0.375500
     35 HN3         0.5010    1.6110    1.4570 hn        1 LY3      0.326700
     36 HC5         1.4260    1.9320    3.8020 h4        1 LY3      0.194000
     37 HC71        0.6850    0.7340    6.2810 hc        1 LY3      0.076700
     38 HC72       -0.9590   -0.0430    6.3360 hc        1 LY3      0.076700
     39 HC81       -0.4490    3.0100    6.0750 hc        1 LY3      0.067200
     40 HC82       -0.7050    2.1330    7.6400 hc        1 LY3      0.067200
     41 H10        -2.8580    0.7800    7.9430 ha        1 LY3      0.158500
     42 H11        -5.3200    0.8250    7.5660 ha        1 LY3      0.150500
     43 H13        -4.7580    3.7800    4.4240 ha        1 LY3      0.150500
     44 H14        -2.3280    3.7440    4.8300 ha        1 LY3      0.158500
     45 HN41       -4.9260   -1.0570    0.7660 hn        1 LY3      0.493800
     46 HN42       -3.8250   -0.4620   -0.3870 hn        1 LY3      0.493800
     47 H16        -7.3170    0.1260    4.5170 hx        1 LY3      0.113700
     48 H171       -8.9340   -0.2210    2.6640 hc        1 LY3      0.093200
     49 H172       -9.0270    1.5550    2.3380 hc        1 LY3      0.093200
     50 HN5        -6.3690    2.6570    3.6660 hn        1 LY3      0.482300
     51 H191      -10.7400    0.1360    4.0090 hc        1 LY3      0.091200
     52 H192       -9.5170    0.6740    5.2330 hc        1 LY3      0.091200
     53 HN7       -12.7500    4.4200    4.4780 hn        1 LY3      0.371700
     54 H43        -4.7700    0.5940    0.5750 hn        1 LY3      0.493800
     55 H52        -7.9410    2.8540    4.2210 hn        1 LY3      0.482300
@<TRIPOS>BOND
     1    1    2 1   
     2    1    6 1   
     3    1   34 1   
     4    2    3 2   
     5    2   20 1   
     6    3    4 1   
     7    4    5 2   
     8    4    7 1   
     9    5    6 1   
    10    5    9 1   
    11    6   19 2   
    12    7    8 1   
    13    7   35 1   
    14    8    9 2   
    15    8   36 1   
    16    9   10 1   
    17   10   11 1   
    18   10   37 1   
    19   10   38 1   
    20   11   12 1   
    21   11   39 1   
    22   11   40 1   
    23   12   13 ar  
    24   12   17 ar  
    25   13   14 ar  
    26   13   41 1   
    27   14   15 ar  
    28   14   42 1   
    29   15   16 ar  
    30   15   18 1   
    31   16   17 ar  
    32   16   43 1   
    33   17   44 1   
    34   18   26 1   
    35   18   27 2   
    36   20   45 1   
    37   20   46 1   
    38   20   54 1   
    39   21   22 1   
    40   21   23 1   
    41   21   26 1   
    42   21   47 1   
    43   22   28 1   
    44   22   48 1   
    45   22   49 1   
    46   23   24 1   
    47   23   25 1   
    48   26   50 1   
    49   26   55 1   
    50   28   29 1   
    51   28   51 1   
    52   28   52 1   
    53   29   30 2   
    54   29   33 1   
    55   30   31 1   
    56   31   32 1   
    57   31   53 1   
    58   32   33 2   
@<TRIPOS>SUBSTRUCTURE
     1 LY3         1 TEMP              0 ****  ****    0 ROOT
