@<TRIPOS>MOLECULE
LY4
   63    68     1     0     0
SMALL
bcc


@<TRIPOS>ATOM
      1 CBD        -1.2000    2.2940   -0.6760 c3        1 LY4     -0.107400
      2 CBB        -2.3890    1.5830   -0.0150 c3        1 LY4      0.050300
      3 NAW        -2.2810    0.1520    0.0480 na        1 LY4     -0.066400
      4 CAV        -1.1850   -0.5190    0.5740 cc        1 LY4     -0.041100
      5 CAX        -3.0940   -0.7910   -0.6090 ca        1 LY4     -0.053200
      6 CAY        -4.2960   -0.6290   -1.3130 ca        1 LY4     -0.143000
      7 CAZ        -4.8980   -1.7650   -1.8360 ca        1 LY4     -0.117000
      8 CAP        -4.3330   -3.0380   -1.6650 ca        1 LY4     -0.151000
      9 CAO        -3.1450   -3.2150   -0.9680 ca        1 LY4     -0.079000
     10 CAN        -2.5010   -2.1000   -0.4310 ca        1 LY4     -0.054800
     11 CAM        -1.2690   -1.8990    0.3150 cd        1 LY4     -0.132200
     12 CAH        -0.2610   -2.8290    0.6840 cd        1 LY4     -0.003200
     13 CAE        -0.5280   -4.2930    1.0080 c         1 LY4      0.701700
     14 OAF        -1.5910   -4.9180    1.0100 o         1 LY4     -0.573500
     15 NAD         0.7170   -4.8680    1.3430 n         1 LY4     -0.636500
     16 CAC         1.7490   -3.8990    1.2520 c         1 LY4      0.704700
     17 OAB         2.9330   -4.1360    1.4950 o         1 LY4     -0.563500
     18 CAG         1.0860   -2.6090    0.8260 cc        1 LY4     -0.095200
     19 CAL         1.8260   -1.4070    0.5930 cc        1 LY4     -0.093200
     20 CAU         1.8840   -0.2910    1.4290 cd        1 LY4     -0.073100
     21 CAK         2.5840   -1.0810   -0.6030 ca        1 LY4     -0.062800
     22 CAJ         2.9070   -1.7780   -1.7660 ca        1 LY4     -0.076000
     23 CAI         3.6610   -1.1400   -2.7430 ca        1 LY4     -0.152000
     24 CAQ         4.1020    0.1830   -2.5750 ca        1 LY4     -0.115000
     25 CAR         3.8070    0.9080   -1.4290 ca        1 LY4     -0.144000
     26 CAS         3.0450    0.2790   -0.4340 ca        1 LY4     -0.050200
     27 NAT         2.6340    0.7330    0.8350 na        1 LY4     -0.067400
     28 CBA         2.5710    2.1190    1.2070 c3        1 LY4      0.008300
     29 CBC         1.3110    2.5610    1.9640 c3        1 LY4      0.108400
     30 OBE         0.1070    2.1940    1.3100 os        1 LY4     -0.429600
     31 CBF        -0.3400    3.1000    0.2960 c3        1 LY4      0.139100
     32 CBG        -1.1530    4.2380    0.9560 c3        1 LY4      0.136800
     33 NBH        -0.3790    5.4550    1.1520 n3        1 LY4     -0.749600
     34 CBI        -0.2580    6.2500   -0.0500 c3        1 LY4      0.155100
     35 CBJ        -0.8240    6.2290    2.2900 c3        1 LY4      0.155100
     36 HBD1       -1.5920    3.0030   -1.4510 hc        1 LY4      0.069200
     37 HBD2       -0.5350    1.5560   -1.1990 hc        1 LY4      0.069200
     38 HBB1       -2.5010    1.9650    1.0420 h1        1 LY4      0.062700
     39 HBB2       -3.3290    1.8330   -0.5830 h1        1 LY4      0.062700
     40 HAV        -0.4130    0.0380    1.1170 h4        1 LY4      0.195000
     41 HAY        -4.7490    0.3610   -1.4470 ha        1 LY4      0.128000
     42 HAZ        -5.8410   -1.6670   -2.3950 ha        1 LY4      0.129000
     43 HAP        -4.8470   -3.9130   -2.0890 ha        1 LY4      0.132000
     44 HAO        -2.7210   -4.2210   -0.8210 ha        1 LY4      0.157000
     45 HAD         0.8490   -5.8110    1.6010 hn        1 LY4      0.344500
     46 HAU         1.4570   -0.1560    2.4260 h4        1 LY4      0.171000
     47 HAJ         2.5720   -2.8160   -1.9000 ha        1 LY4      0.140000
     48 HAI         3.9230   -1.6780   -3.6650 ha        1 LY4      0.132000
     49 HAQ         4.6980    0.6530   -3.3720 ha        1 LY4      0.129000
     50 HAR         4.1670    1.9380   -1.3030 ha        1 LY4      0.130000
     51 HBA1        3.4560    2.3440    1.8730 h1        1 LY4      0.060700
     52 HBA2        2.6720    2.7420    0.2720 h1        1 LY4      0.060700
     53 HBC1        1.2420    2.0390    2.9580 h1        1 LY4      0.069700
     54 HBC2        1.3690    3.6700    2.1250 h1        1 LY4      0.069700
     55 HBF         0.5470    3.5050   -0.2670 h1        1 LY4      0.057700
     56 HBG1       -1.5050    3.8620    1.9590 h1        1 LY4      0.046200
     57 HBG2       -2.0700    4.4310    0.3270 h1        1 LY4      0.046200
     58 HBI1        0.1280    5.6040   -0.8820 h1        1 LY4      0.034200
     59 HBI2       -1.2320    6.7070   -0.3790 h1        1 LY4      0.034200
     60 HBI3        0.4780    7.0750    0.1360 h1        1 LY4      0.034200
     61 HBJ1       -1.8820    6.5950    2.1920 h1        1 LY4      0.034200
     62 HBJ2       -0.7480    5.5960    3.2130 h1        1 LY4      0.034200
     63 HBJ3       -0.1500    7.1170    2.4080 h1        1 LY4      0.034200
@<TRIPOS>BOND
     1    1    2 1   
     2    1   31 1   
     3    1   36 1   
     4    1   37 1   
     5    2    3 1   
     6    2   38 1   
     7    2   39 1   
     8    3    4 1   
     9    3    5 1   
    10    4   11 2   
    11    4   40 1   
    12    5    6 ar  
    13    5   10 ar  
    14    6    7 ar  
    15    6   41 1   
    16    7    8 ar  
    17    7   42 1   
    18    8    9 ar  
    19    8   43 1   
    20    9   10 ar  
    21    9   44 1   
    22   10   11 1   
    23   11   12 1   
    24   12   13 1   
    25   12   18 2   
    26   13   14 2   
    27   13   15 1   
    28   15   16 1   
    29   15   45 1   
    30   16   17 2   
    31   16   18 1   
    32   18   19 1   
    33   19   20 2   
    34   19   21 1   
    35   20   27 1   
    36   20   46 1   
    37   21   22 ar  
    38   21   26 ar  
    39   22   23 ar  
    40   22   47 1   
    41   23   24 ar  
    42   23   48 1   
    43   24   25 ar  
    44   24   49 1   
    45   25   26 ar  
    46   25   50 1   
    47   26   27 1   
    48   27   28 1   
    49   28   29 1   
    50   28   51 1   
    51   28   52 1   
    52   29   30 1   
    53   29   53 1   
    54   29   54 1   
    55   30   31 1   
    56   31   32 1   
    57   31   55 1   
    58   32   33 1   
    59   32   56 1   
    60   32   57 1   
    61   33   34 1   
    62   33   35 1   
    63   34   58 1   
    64   34   59 1   
    65   34   60 1   
    66   35   61 1   
    67   35   62 1   
    68   35   63 1   
@<TRIPOS>SUBSTRUCTURE
     1 LY4         1 TEMP              0 ****  ****    0 ROOT
