@<TRIPOS>MOLECULE
LY4
   64    69     1     0     0
SMALL
bcc


@<TRIPOS>ATOM
      1 CBD        -0.6650   -0.0680    1.0080 c3        1 LY4     -0.129400
      2 CBB         0.7540    0.4990    1.0610 c3        1 LY4      0.047300
      3 NAW         1.6130   -0.0580    2.0600 na        1 LY4     -0.098400
      4 CAV         1.3220   -0.1380    3.4260 cc        1 LY4     -0.067100
      5 CAX         2.9100   -0.5620    1.8600 ca        1 LY4     -0.076200
      6 CAY         3.6950   -0.6470    0.7000 ca        1 LY4     -0.220000
      7 CAZ         4.9650   -1.1980    0.8140 ca        1 LY4     -0.101000
      8 CAP         5.4590   -1.6530    2.0460 ca        1 LY4     -0.150000
      9 CAO         4.7030   -1.5540    3.2080 ca        1 LY4     -0.048000
     10 CAN         3.4200   -1.0110    3.1380 ca        1 LY4     -0.059800
     11 CAM         2.3790   -0.7440    4.1170 cd        1 LY4     -0.074200
     12 CAH         2.3560   -1.0500    5.5100 cd        1 LY4     -0.096200
     13 CAE         3.5770   -0.9490    6.4020 c         1 LY4      0.711700
     14 OAF         4.7380   -0.6640    6.1020 o         1 LY4     -0.568500
     15 NAD         3.1480   -1.2620    7.7100 ns        1 LY4     -0.623500
     16 CAC         1.7680   -1.5650    7.7190 c         1 LY4      0.705700
     17 OAB         1.1360   -1.8740    8.7290 o         1 LY4     -0.550500
     18 CAG         1.2870   -1.4370    6.2820 cc        1 LY4     -0.026200
     19 CAL        -0.0410   -1.7240    5.8580 cc        1 LY4     -0.103200
     20 CAU        -0.3490   -2.1920    4.5720 cd        1 LY4     -0.085100
     21 CAK        -1.3070   -1.5760    6.5600 ca        1 LY4     -0.060800
     22 CAJ        -1.6710   -1.1700    7.8440 ca        1 LY4     -0.071000
     23 CAI        -3.0170   -1.1290    8.1820 ca        1 LY4     -0.139000
     24 CAQ        -4.0150   -1.4900    7.2620 ca        1 LY4     -0.099000
     25 CAR        -3.6980   -1.9060    5.9760 ca        1 LY4     -0.147000
     26 CAS        -2.3420   -1.9510    5.6230 ca        1 LY4     -0.055200
     27 NAT        -1.7240   -2.3550    4.4200 na        1 LY4     -0.077400
     28 CBA        -2.4020   -2.5400    3.1740 c3        1 LY4      0.022300
     29 CBC        -1.5750   -3.2430    2.0920 c3        1 LY4      0.109400
     30 OBE        -0.5180   -2.4180    1.5940 os        1 LY4     -0.441600
     31 CBF        -0.8790   -1.5100    0.5600 c3        1 LY4      0.131100
     32 CBG        -0.1280   -1.8880   -0.7360 c3        1 LY4      0.087800
     33 NBH         1.2640   -2.4100   -0.5570 nx        1 LY4     -0.672400
     34 CBI         1.2720   -3.8720   -0.2840 c3        1 LY4      0.084100
     35 CBJ         2.0910   -2.1110   -1.7570 c3        1 LY4      0.084100
     36 HBD1       -1.1380    0.0340    2.0240 hc        1 LY4      0.085200
     37 HBD2       -1.2400    0.5890    0.2980 hc        1 LY4      0.085200
     38 HBB1        0.6510    1.6110    1.2540 h1        1 LY4      0.061700
     39 HBB2        1.2500    0.3790    0.0550 h1        1 LY4      0.061700
     40 HAV         0.3730    0.2350    3.8230 h4        1 LY4      0.188000
     41 HAY         3.3580   -0.2160   -0.2530 ha        1 LY4      0.114000
     42 HAZ         5.6110   -1.2550   -0.0760 ha        1 LY4      0.138000
     43 HAP         6.4770   -2.0710    2.0950 ha        1 LY4      0.152000
     44 HAO         5.1180   -1.8640    4.1830 ha        1 LY4      0.176000
     45 HAD         3.7280   -1.2570    8.5110 hn        1 LY4      0.357500
     46 HAU         0.3400   -2.4430    3.7590 h4        1 LY4      0.177000
     47 HAJ        -0.8960   -0.9060    8.5820 ha        1 LY4      0.166000
     48 HAI        -3.3120   -0.8120    9.1940 ha        1 LY4      0.146000
     49 HAQ        -5.0710   -1.4460    7.5700 ha        1 LY4      0.142000
     50 HAR        -4.4820   -2.1950    5.2640 ha        1 LY4      0.132000
     51 HBA1       -3.3250   -3.1630    3.3690 h1        1 LY4      0.065200
     52 HBA2       -2.7370   -1.5370    2.7710 h1        1 LY4      0.065200
     53 HBC1       -1.0310   -4.1380    2.5050 h1        1 LY4      0.075700
     54 HBC2       -2.2590   -3.5610    1.2620 h1        1 LY4      0.075700
     55 HBF        -1.9780   -1.6110    0.3080 h1        1 LY4      0.082700
     56 HBG1       -0.0830   -0.9660   -1.3850 hx        1 LY4      0.101200
     57 HBG2       -0.7160   -2.6800   -1.2810 hx        1 LY4      0.101200
     58 HBI1        0.8570   -4.4260   -1.1660 hx        1 LY4      0.104367
     59 HBI2        0.6450   -4.0760    0.6280 hx        1 LY4      0.104367
     60 HBI3        2.3290   -4.2020   -0.0940 hx        1 LY4      0.104367
     61 HBJ1        2.0910   -1.0050   -1.9490 hx        1 LY4      0.104367
     62 HBJ2        1.6710   -2.6500   -2.6470 hx        1 LY4      0.104367
     63 HBJ3        3.1450   -2.4520   -1.5660 hx        1 LY4      0.104367
     64 HBH1        1.6890   -1.9380    0.2640 hn        1 LY4      0.482800
@<TRIPOS>BOND
     1    1    2 1   
     2    1   31 1   
     3    1   36 1   
     4    1   37 1   
     5    2    3 1   
     6    2   38 1   
     7    2   39 1   
     8    3    4 1   
     9    3    5 1   
    10    4   11 2   
    11    4   40 1   
    12    5    6 ar  
    13    5   10 ar  
    14    6    7 ar  
    15    6   41 1   
    16    7    8 ar  
    17    7   42 1   
    18    8    9 ar  
    19    8   43 1   
    20    9   10 ar  
    21    9   44 1   
    22   10   11 1   
    23   11   12 1   
    24   12   13 1   
    25   12   18 2   
    26   13   14 2   
    27   13   15 1   
    28   15   16 1   
    29   15   45 1   
    30   16   17 2   
    31   16   18 1   
    32   18   19 1   
    33   19   20 2   
    34   19   21 1   
    35   20   27 1   
    36   20   46 1   
    37   21   22 ar  
    38   21   26 ar  
    39   22   23 ar  
    40   22   47 1   
    41   23   24 ar  
    42   23   48 1   
    43   24   25 ar  
    44   24   49 1   
    45   25   26 ar  
    46   25   50 1   
    47   26   27 1   
    48   27   28 1   
    49   28   29 1   
    50   28   51 1   
    51   28   52 1   
    52   29   30 1   
    53   29   53 1   
    54   29   54 1   
    55   30   31 1   
    56   31   32 1   
    57   31   55 1   
    58   32   33 1   
    59   32   56 1   
    60   32   57 1   
    61   33   34 1   
    62   33   35 1   
    63   33   64 1   
    64   34   58 1   
    65   34   59 1   
    66   34   60 1   
    67   35   61 1   
    68   35   62 1   
    69   35   63 1   
@<TRIPOS>SUBSTRUCTURE
     1 LY4         1 TEMP              0 ****  ****    0 ROOT
