@<TRIPOS>MOLECULE
LY4
   64    69     1     0     0
SMALL
bcc


@<TRIPOS>ATOM
      1 CBD        -0.6580    0.0420    0.8030 c3        1 LY4     -0.125400
      2 CBB         0.6450    0.7850    1.1180 c3        1 LY4      0.043300
      3 NAW         1.5280    0.1610    2.0530 na        1 LY4     -0.087400
      4 CAV         1.2690   -0.0180    3.4140 cc        1 LY4     -0.063100
      5 CAX         2.8360   -0.2880    1.7960 ca        1 LY4     -0.071200
      6 CAY         3.5980   -0.2710    0.6180 ca        1 LY4     -0.201000
      7 CAZ         4.8840   -0.7930    0.6690 ca        1 LY4     -0.116000
      8 CAP         5.4160   -1.3170    1.8570 ca        1 LY4     -0.154000
      9 CAO         4.6830   -1.3190    3.0370 ca        1 LY4     -0.057000
     10 CAN         3.3840   -0.8090    3.0310 ca        1 LY4     -0.065800
     11 CAM         2.3570   -0.6370    4.0450 cd        1 LY4     -0.086200
     12 CAH         2.3770   -1.0250    5.4180 cd        1 LY4     -0.084200
     13 CAE         3.6240   -0.9640    6.2800 c         1 LY4      0.709700
     14 OAF         4.7730   -0.6460    5.9660 o         1 LY4     -0.567500
     15 NAD         3.2390   -1.3620    7.5780 n         1 LY4     -0.623500
     16 CAC         1.8610   -1.6760    7.6110 c         1 LY4      0.705700
     17 OAB         1.2640   -2.0540    8.6180 o         1 LY4     -0.551500
     18 CAG         1.3350   -1.4630    6.2010 cc        1 LY4     -0.037200
     19 CAL        -0.0090   -1.7220    5.8070 cc        1 LY4     -0.094200
     20 CAU        -0.3630   -2.1170    4.5110 cd        1 LY4     -0.091100
     21 CAK        -1.2500   -1.5970    6.5580 ca        1 LY4     -0.062800
     22 CAJ        -1.5630   -1.2610    7.8750 ca        1 LY4     -0.071000
     23 CAI        -2.8980   -1.2190    8.2600 ca        1 LY4     -0.138000
     24 CAQ        -3.9290   -1.5130    7.3550 ca        1 LY4     -0.100000
     25 CAR        -3.6600   -1.8620    6.0370 ca        1 LY4     -0.145000
     26 CAS        -2.3200   -1.9060    5.6360 ca        1 LY4     -0.058200
     27 NAT        -1.7480   -2.2720    4.3950 na        1 LY4     -0.074400
     28 CBA        -2.4550   -2.2090    3.1490 c3        1 LY4      0.024300
     29 CBC        -1.7590   -2.9180    1.9810 c3        1 LY4      0.112400
     30 OBE        -0.5540   -2.2490    1.5970 os        1 LY4     -0.454600
     31 CBF        -0.6260   -1.4370    0.4260 c3        1 LY4      0.143100
     32 CBG         0.5630   -1.7910   -0.5010 c3        1 LY4      0.087800
     33 NBH         1.1930   -3.1250   -0.2420 n4        1 LY4     -0.667400
     34 CBI         0.3160   -4.2350   -0.6910 c3        1 LY4      0.079100
     35 CBJ         2.5300   -3.2120   -0.8830 c3        1 LY4      0.079100
     36 HBD1       -1.1370    0.6010   -0.0460 hc        1 LY4      0.079200
     37 HBD2       -1.3360    0.1290    1.6970 hc        1 LY4      0.079200
     38 HBB1        1.2140    0.9760    0.1630 h1        1 LY4      0.073200
     39 HBB2        0.3430    1.7950    1.5310 h1        1 LY4      0.073200
     40 HAV         0.3180    0.3010    3.8510 h4        1 LY4      0.188000
     41 HAY         3.2250    0.2030   -0.3000 ha        1 LY4      0.126000
     42 HAZ         5.5130   -0.7670   -0.2350 ha        1 LY4      0.140000
     43 HAP         6.4470   -1.7040    1.8580 ha        1 LY4      0.150000
     44 HAO         5.1280   -1.6830    3.9790 ha        1 LY4      0.174000
     45 HAD         3.8420   -1.3940    8.3600 hn        1 LY4      0.357500
     46 HAU         0.2960   -2.3320    3.6660 h4        1 LY4      0.174000
     47 HAJ        -0.7600   -1.0520    8.6000 ha        1 LY4      0.166000
     48 HAI        -3.1540   -0.9560    9.2980 ha        1 LY4      0.146000
     49 HAQ        -4.9750   -1.4700    7.6990 ha        1 LY4      0.142000
     50 HAR        -4.4740   -2.0990    5.3390 ha        1 LY4      0.132000
     51 HBA1       -3.4590   -2.7050    3.3000 h1        1 LY4      0.066200
     52 HBA2       -2.6370   -1.1330    2.8590 h1        1 LY4      0.066200
     53 HBC1       -1.4140   -3.9460    2.2820 h1        1 LY4      0.068700
     54 HBC2       -2.4820   -2.9950    1.1270 h1        1 LY4      0.068700
     55 HBF        -1.5760   -1.6640   -0.1430 h1        1 LY4      0.064700
     56 HBG1        0.2040   -1.7740   -1.5690 hx        1 LY4      0.109200
     57 HBG2        1.3820   -1.0230   -0.3890 hx        1 LY4      0.109200
     58 HBI1        0.7960   -5.2170   -0.4320 hx        1 LY4      0.105367
     59 HBI2       -0.6730   -4.1480   -0.1620 hx        1 LY4      0.105367
     60 HBI3        0.1630   -4.1750   -1.8000 hx        1 LY4      0.105367
     61 HBJ1        2.9680   -4.2260   -0.6810 hx        1 LY4      0.105367
     62 HBJ2        3.2060   -2.4190   -0.4490 hx        1 LY4      0.105367
     63 HBJ3        2.4270   -3.0590   -1.9900 hx        1 LY4      0.105367
     64 HBH1        1.3120   -3.2040    0.7850 hn        1 LY4      0.476800
@<TRIPOS>BOND
     1    1    2 1   
     2    1   31 1   
     3    1   36 1   
     4    1   37 1   
     5    2    3 1   
     6    2   38 1   
     7    2   39 1   
     8    3    4 1   
     9    3    5 1   
    10    4   11 2   
    11    4   40 1   
    12    5    6 ar  
    13    5   10 ar  
    14    6    7 ar  
    15    6   41 1   
    16    7    8 ar  
    17    7   42 1   
    18    8    9 ar  
    19    8   43 1   
    20    9   10 ar  
    21    9   44 1   
    22   10   11 1   
    23   11   12 1   
    24   12   13 1   
    25   12   18 2   
    26   13   14 2   
    27   13   15 1   
    28   15   16 1   
    29   15   45 1   
    30   16   17 2   
    31   16   18 1   
    32   18   19 1   
    33   19   20 2   
    34   19   21 1   
    35   20   27 1   
    36   20   46 1   
    37   21   22 ar  
    38   21   26 ar  
    39   22   23 ar  
    40   22   47 1   
    41   23   24 ar  
    42   23   48 1   
    43   24   25 ar  
    44   24   49 1   
    45   25   26 ar  
    46   25   50 1   
    47   26   27 1   
    48   27   28 1   
    49   28   29 1   
    50   28   51 1   
    51   28   52 1   
    52   29   30 1   
    53   29   53 1   
    54   29   54 1   
    55   30   31 1   
    56   31   32 1   
    57   31   55 1   
    58   32   33 1   
    59   32   56 1   
    60   32   57 1   
    61   33   34 1   
    62   33   35 1   
    63   33   64 1   
    64   34   58 1   
    65   34   59 1   
    66   34   60 1   
    67   35   61 1   
    68   35   62 1   
    69   35   63 1   
@<TRIPOS>SUBSTRUCTURE
     1 LY4         1 TEMP              0 ****  ****    0 ROOT
