@<TRIPOS>MOLECULE
LY5
   46    48     1     0     0
SMALL
bcc


@<TRIPOS>ATOM
      1 F2          1.3000   -0.6480   -1.1220 f         1 LY5     -0.266800
      2 C15         2.1420   -0.1060   -0.1660 c3        1 LY5      0.373600
      3 F1          3.2910   -0.8340   -0.3930 f         1 LY5     -0.266800
      4 C14         1.5930   -0.2330    1.2790 c3        1 LY5     -0.106400
      5 C12         1.2800    1.2030    1.7180 c3        1 LY5      0.049500
      6 C13         1.4520    1.3980    3.2590 c         1 LY5      0.936600
      7 O4          1.0760    2.5000    3.7400 o         1 LY5     -0.834300
      8 O3          1.8740    0.4180    3.9320 o         1 LY5     -0.834300
      9 C16         2.3530    1.4380   -0.3800 c3        1 LY5      0.122800
     10 N2          2.1230    2.0980    0.9000 n3        1 LY5     -0.685600
     11 C11         1.5810    3.4430    0.8230 c3        1 LY5      0.169800
     12 C7          2.1930    4.3660   -0.2370 c3        1 LY5     -0.063700
     13 C6          3.6400    4.7420    0.0400 c3        1 LY5     -0.067400
     14 C8          1.3530    5.6350   -0.3200 c3        1 LY5     -0.072400
     15 C9          1.8550    6.5400   -1.4240 c3        1 LY5     -0.068400
     16 C4          3.3350    6.8640   -1.3140 c3        1 LY5     -0.055700
     17 C5          4.1870    5.6160   -1.0830 c3        1 LY5     -0.056700
     18 C3          3.5880    7.9210   -0.2270 c3        1 LY5      0.174800
     19 N1          4.9880    8.2810   -0.1610 n3        1 LY5     -0.807200
     20 C1          5.8430    7.1360    0.1350 c3        1 LY5      0.048500
     21 C2          5.6450    5.9970   -0.8640 c3        1 LY5     -0.053400
     22 C10         7.3420    7.5820    0.2010 c         1 LY5      0.925600
     23 O1          7.6250    8.5110    1.0120 o         1 LY5     -0.849800
     24 O2          8.1860    6.9850   -0.5200 o         1 LY5     -0.849800
     25 H141        2.3690   -0.6740    1.9560 hc        1 LY5      0.078200
     26 H142        0.6820   -0.8720    1.3040 hc        1 LY5      0.078200
     27 H12         0.1830    1.4010    1.5120 h1        1 LY5      0.008700
     28 H161        3.4120    1.6370   -0.6920 h1        1 LY5      0.045700
     29 H162        1.6610    1.7730   -1.2010 h1        1 LY5      0.045700
     30 H111        0.4640    3.4200    0.6290 h1        1 LY5      0.049700
     31 H112        1.7330    3.8780    1.8550 h1        1 LY5      0.049700
     32 H7          2.1500    3.8570   -1.2420 hc        1 LY5      0.026700
     33 H61         4.2610    3.8130    0.1250 hc        1 LY5      0.055700
     34 H62         3.7140    5.2840    1.0190 hc        1 LY5      0.055700
     35 H81         0.2810    5.3710   -0.5160 hc        1 LY5      0.032700
     36 H82         1.3930    6.1700    0.6650 hc        1 LY5      0.032700
     37 H91         1.2640    7.4940   -1.4190 hc        1 LY5      0.017700
     38 H92         1.6730    6.0400   -2.4130 hc        1 LY5      0.017700
     39 H4          3.6580    7.3090   -2.3000 hc        1 LY5      0.041700
     40 H5          4.1350    5.0020   -2.0300 hc        1 LY5      0.016700
     41 H31         3.1830    7.5280    0.7520 h1        1 LY5      0.004200
     42 H32         3.0030    8.8500   -0.4810 h1        1 LY5      0.004200
     43 HN1         5.1480    8.9900    0.5310 hn        1 LY5      0.367800
     44 H1          5.6010    6.7240    1.1650 h1        1 LY5      0.005700
     45 H21         6.1000    6.3000   -1.8440 hc        1 LY5      0.050200
     46 H22         6.2210    5.1110   -0.4920 hc        1 LY5      0.050200
@<TRIPOS>BOND
     1    1    2 1   
     2    2    3 1   
     3    2    4 1   
     4    2    9 1   
     5    4    5 1   
     6    4   25 1   
     7    4   26 1   
     8    5    6 1   
     9    5   10 1   
    10    5   27 1   
    11    6    7 1   
    12    6    8 1   
    13    9   10 1   
    14    9   28 1   
    15    9   29 1   
    16   10   11 1   
    17   11   12 1   
    18   11   30 1   
    19   11   31 1   
    20   12   13 1   
    21   12   14 1   
    22   12   32 1   
    23   13   17 1   
    24   13   33 1   
    25   13   34 1   
    26   14   15 1   
    27   14   35 1   
    28   14   36 1   
    29   15   16 1   
    30   15   37 1   
    31   15   38 1   
    32   16   17 1   
    33   16   18 1   
    34   16   39 1   
    35   17   21 1   
    36   17   40 1   
    37   18   19 1   
    38   18   41 1   
    39   18   42 1   
    40   19   20 1   
    41   19   43 1   
    42   20   21 1   
    43   20   22 1   
    44   20   44 1   
    45   21   45 1   
    46   21   46 1   
    47   22   23 1   
    48   22   24 1   
@<TRIPOS>SUBSTRUCTURE
     1 LY5         1 TEMP              0 ****  ****    0 ROOT
