@<TRIPOS>MOLECULE
LY5
   46    48     1     0     0
SMALL
bcc


@<TRIPOS>ATOM
      1 F2         -3.0000   -3.9780    0.2900 f         1 LY5     -0.266800
      2 C15        -2.2160   -2.9440   -0.0580 c3        1 LY5      0.362600
      3 F1         -1.0700   -3.3930   -0.5860 f         1 LY5     -0.266800
      4 C14        -2.9550   -2.0310   -1.0810 c3        1 LY5     -0.128400
      5 C12        -3.3070   -0.9200   -0.3980 c3        1 LY5      0.045500
      6 C13        -4.7190   -0.9350    0.1020 c         1 LY5      0.933600
      7 O4         -4.9520   -0.8240    1.3330 o         1 LY5     -0.836300
      8 O3         -5.6730   -1.0540   -0.7100 o         1 LY5     -0.836300
      9 C16        -1.9160   -2.0510    1.1940 c3        1 LY5      0.134800
     10 N2         -2.1490   -0.8420    0.8250 n3        1 LY5     -0.688600
     11 C11        -0.9340   -0.2520    0.3060 c3        1 LY5      0.174800
     12 C7         -0.8060    1.1910    0.8230 c3        1 LY5     -0.074700
     13 C6         -0.1840    2.0610   -0.2780 c3        1 LY5     -0.062400
     14 C8          0.0110    1.1850    2.0830 c3        1 LY5     -0.060400
     15 C9          1.4850    0.8350    1.8310 c3        1 LY5     -0.073400
     16 C4          2.1290    1.7180    0.7100 c3        1 LY5     -0.082700
     17 C5          1.3210    1.7120   -0.5440 c3        1 LY5     -0.064700
     18 C3          3.5640    1.2280    0.4920 c3        1 LY5      0.141800
     19 N1          3.6330   -0.0830   -0.2070 n3        1 LY5     -0.768200
     20 C1          2.8530   -0.1230   -1.5130 c3        1 LY5      0.034500
     21 C2          1.3740    0.3840   -1.2530 c3        1 LY5     -0.083400
     22 C10         3.5260    0.6280   -2.5960 c         1 LY5      0.930600
     23 O1          2.8430    1.2030   -3.4780 o         1 LY5     -0.849800
     24 O2          4.7810    0.7510   -2.5920 o         1 LY5     -0.849800
     25 H141       -3.7550   -2.4850   -1.4240 hc        1 LY5      0.075700
     26 H142       -2.3570   -1.7980   -1.8190 hc        1 LY5      0.075700
     27 H12        -3.3020   -0.1190   -0.9640 h1        1 LY5      0.040700
     28 H161       -2.5100   -2.2990    1.9380 h1        1 LY5      0.054700
     29 H162       -0.9810   -2.1480    1.4620 h1        1 LY5      0.054700
     30 H111       -0.9660   -0.2470   -0.6770 h1        1 LY5      0.020200
     31 H112       -0.1620   -0.7770    0.6060 h1        1 LY5      0.020200
     32 H7         -1.6980    1.5330    1.0280 hc        1 LY5      0.108700
     33 H61        -0.6890    1.9320   -1.1050 hc        1 LY5      0.026200
     34 H62        -0.2490    3.0030   -0.0110 hc        1 LY5      0.026200
     35 H81        -0.3680    0.5270    2.7010 hc        1 LY5      0.038700
     36 H82        -0.0370    2.0700    2.4950 hc        1 LY5      0.038700
     37 H91         1.9840    0.9630    2.6580 hc        1 LY5      0.020200
     38 H92         1.5450   -0.1050    1.5660 hc        1 LY5      0.020200
     39 H4          2.1710    2.6360    1.0350 hc        1 LY5      0.030700
     40 H5          1.6870    2.3870   -1.1410 hc        1 LY5      0.083700
     41 H31         4.0470    1.8960   -0.0420 h1        1 LY5      0.053700
     42 H32         4.0010    1.1440    1.3600 h1        1 LY5      0.053700
     43 HN1         3.3300   -0.7390    0.3480 hn        1 LY5      0.304800
     44 H1          2.8490   -1.0270   -1.8860 h1        1 LY5      0.038700
     45 H21         0.9160    0.4680   -2.1120 hc        1 LY5      0.025700
     46 H22         0.9060   -0.2790   -0.7110 hc        1 LY5      0.025700
@<TRIPOS>BOND
     1    1    2 1   
     2    2    3 1   
     3    2    4 1   
     4    2    9 1   
     5    4    5 1   
     6    4   25 1   
     7    4   26 1   
     8    5    6 1   
     9    5   10 1   
    10    5   27 1   
    11    6    7 1   
    12    6    8 1   
    13    9   10 1   
    14    9   28 1   
    15    9   29 1   
    16   10   11 1   
    17   11   12 1   
    18   11   30 1   
    19   11   31 1   
    20   12   13 1   
    21   12   14 1   
    22   12   32 1   
    23   13   17 1   
    24   13   33 1   
    25   13   34 1   
    26   14   15 1   
    27   14   35 1   
    28   14   36 1   
    29   15   16 1   
    30   15   37 1   
    31   15   38 1   
    32   16   17 1   
    33   16   18 1   
    34   16   39 1   
    35   17   21 1   
    36   17   40 1   
    37   18   19 1   
    38   18   41 1   
    39   18   42 1   
    40   19   20 1   
    41   19   43 1   
    42   20   21 1   
    43   20   22 1   
    44   20   44 1   
    45   21   45 1   
    46   21   46 1   
    47   22   23 1   
    48   22   24 1   
@<TRIPOS>SUBSTRUCTURE
     1 LY5         1 TEMP              0 ****  ****    0 ROOT
