@<TRIPOS>MOLECULE
LY5
   46    48     1     0     0
SMALL
bcc


@<TRIPOS>ATOM
      1 F2          1.3320   -0.6490   -1.1790 f         1 LY5     -0.266800
      2 C15         2.1590   -0.1090   -0.2090 c3        1 LY5      0.373600
      3 F1          3.3140   -0.8320   -0.4250 f         1 LY5     -0.266800
      4 C14         1.5920   -0.2470    1.2280 c3        1 LY5     -0.106400
      5 C12         1.2670    1.1850    1.6710 c3        1 LY5      0.049500
      6 C13         1.4180    1.3720    3.2150 c         1 LY5      0.936600
      7 O4          1.0330    2.4700    3.6980 o         1 LY5     -0.834300
      8 O3          1.8350    0.3900    3.8880 o         1 LY5     -0.834300
      9 C16         2.3670    1.4370   -0.4110 c3        1 LY5      0.122800
     10 N2          2.1180    2.0880    0.8700 n3        1 LY5     -0.685600
     11 C11         1.5720    3.4320    0.7920 c3        1 LY5      0.169800
     12 C7          2.1950    4.3640   -0.2530 c3        1 LY5     -0.063700
     13 C6          3.6370    4.7440    0.0460 c3        1 LY5     -0.067400
     14 C8          1.3510    5.6300   -0.3410 c3        1 LY5     -0.072400
     15 C9          1.8650    6.5430   -1.4320 c3        1 LY5     -0.068400
     16 C4          3.3410    6.8720   -1.3000 c3        1 LY5     -0.055700
     17 C5          4.1950    5.6260   -1.0650 c3        1 LY5     -0.056700
     18 C3          3.5750    7.9240   -0.2040 c3        1 LY5      0.174800
     19 N1          4.9720    8.2890   -0.1170 n3        1 LY5     -0.807200
     20 C1          5.8290    7.1460    0.1850 c3        1 LY5      0.048500
     21 C2          5.6490    6.0120   -0.8240 c3        1 LY5     -0.053400
     22 C10         7.3240    7.5970    0.2740 c         1 LY5      0.925600
     23 O1          7.5920    8.5220    1.0940 o         1 LY5     -0.849800
     24 O2          8.1810    7.0080   -0.4390 o         1 LY5     -0.849800
     25 H141        2.3610   -0.6890    1.9130 hc        1 LY5      0.078200
     26 H142        0.6830   -0.8890    1.2370 hc        1 LY5      0.078200
     27 H12         0.1730    1.3810    1.4520 h1        1 LY5      0.008700
     28 H161        1.6850    1.7740   -1.2400 h1        1 LY5      0.045700
     29 H162        3.4290    1.6410   -0.7080 h1        1 LY5      0.045700
     30 H111        0.4580    3.4050    0.5830 h1        1 LY5      0.049700
     31 H112        1.7080    3.8610    1.8290 h1        1 LY5      0.049700
     32 H7          2.1670    3.8600   -1.2620 hc        1 LY5      0.026700
     33 H61         3.6950    5.2800    1.0290 hc        1 LY5      0.055700
     34 H62         4.2600    3.8160    0.1340 hc        1 LY5      0.055700
     35 H81         1.3750    6.1590    0.6470 hc        1 LY5      0.032700
     36 H82         0.2830    5.3630   -0.5530 hc        1 LY5      0.032700
     37 H91         1.6980    6.0480   -2.4260 hc        1 LY5      0.017700
     38 H92         1.2700    7.4940   -1.4300 hc        1 LY5      0.017700
     39 H4          3.6760    7.3240   -2.2790 hc        1 LY5      0.041700
     40 H5          4.1590    5.0170   -2.0160 hc        1 LY5      0.016700
     41 H31         3.1580    7.5240    0.7680 h1        1 LY5      0.004200
     42 H32         2.9900    8.8520   -0.4610 h1        1 LY5      0.004200
     43 HN1         5.1200    8.9950    0.5810 hn        1 LY5      0.367800
     44 H1          5.5740    6.7270    1.2090 h1        1 LY5      0.005700
     45 H21         6.2230    5.1260   -0.4480 hc        1 LY5      0.050200
     46 H22         6.1150    6.3220   -1.7960 hc        1 LY5      0.050200
@<TRIPOS>BOND
     1    1    2 1   
     2    2    3 1   
     3    2    4 1   
     4    2    9 1   
     5    4    5 1   
     6    4   25 1   
     7    4   26 1   
     8    5    6 1   
     9    5   10 1   
    10    5   27 1   
    11    6    7 1   
    12    6    8 1   
    13    9   10 1   
    14    9   28 1   
    15    9   29 1   
    16   10   11 1   
    17   11   12 1   
    18   11   30 1   
    19   11   31 1   
    20   12   13 1   
    21   12   14 1   
    22   12   32 1   
    23   13   17 1   
    24   13   33 1   
    25   13   34 1   
    26   14   15 1   
    27   14   35 1   
    28   14   36 1   
    29   15   16 1   
    30   15   37 1   
    31   15   38 1   
    32   16   17 1   
    33   16   18 1   
    34   16   39 1   
    35   17   21 1   
    36   17   40 1   
    37   18   19 1   
    38   18   41 1   
    39   18   42 1   
    40   19   20 1   
    41   19   43 1   
    42   20   21 1   
    43   20   22 1   
    44   20   44 1   
    45   21   45 1   
    46   21   46 1   
    47   22   23 1   
    48   22   24 1   
@<TRIPOS>SUBSTRUCTURE
     1 LY5         1 TEMP              0 ****  ****    0 ROOT
