@<TRIPOS>MOLECULE
LY5
   46    48     1     0     0
SMALL
bcc


@<TRIPOS>ATOM
      1 F2         -4.8790    1.1320   -1.6560 f         1 LY5     -0.266800
      2 C15        -4.0510    0.0590   -1.3760 c3        1 LY5      0.373600
      3 F1         -4.0880   -0.6150   -2.5800 f         1 LY5     -0.266800
      4 C14        -4.5310   -0.7890   -0.1690 c3        1 LY5     -0.106400
      5 C12        -3.4780   -0.5620    0.9240 c3        1 LY5      0.049500
      6 C13        -3.3240   -1.8060    1.8590 c         1 LY5      0.936600
      7 O4         -2.5930   -1.6680    2.8760 o         1 LY5     -0.834300
      8 O3         -4.0010   -2.8350    1.5850 o         1 LY5     -0.834300
      9 C16        -2.6000    0.5240   -0.9870 c3        1 LY5      0.122800
     10 N2         -2.2300   -0.1620    0.2450 n3        1 LY5     -0.685600
     11 C11        -1.3370    0.5710    1.1250 c3        1 LY5      0.169800
     12 C7         -0.1640    1.2980    0.4580 c3        1 LY5     -0.063700
     13 C6          0.8690    0.3640   -0.1530 c3        1 LY5     -0.067400
     14 C8          0.5130    2.1840    1.4960 c3        1 LY5     -0.072400
     15 C9          1.6180    3.0030    0.8650 c3        1 LY5     -0.068400
     16 C4          2.6330    2.1670    0.1060 c3        1 LY5     -0.055700
     17 C5          1.9690    1.1650   -0.8390 c3        1 LY5     -0.056700
     18 C3          3.6010    1.4650    1.0720 c3        1 LY5      0.174800
     19 N1          4.6100    0.7180    0.3530 n3        1 LY5     -0.807200
     20 C1          4.0330   -0.3090   -0.5090 c3        1 LY5      0.048500
     21 C2          3.0170    0.2720   -1.4920 c3        1 LY5     -0.053400
     22 C10         5.1660   -1.0880   -1.2560 c         1 LY5      0.925600
     23 O1          6.0560   -1.6280   -0.5370 o         1 LY5     -0.849800
     24 O2          5.1220   -1.1680   -2.5140 o         1 LY5     -0.849800
     25 H141       -5.5410   -0.4650    0.1680 hc        1 LY5      0.078200
     26 H142       -4.5650   -1.8750   -0.4400 hc        1 LY5      0.078200
     27 H12        -3.8440    0.2730    1.5960 h1        1 LY5      0.008700
     28 H161       -1.8760    0.2210   -1.7890 h1        1 LY5      0.045700
     29 H162       -2.6050    1.6460   -0.9060 h1        1 LY5      0.045700
     30 H111       -1.9050    1.3480    1.7230 h1        1 LY5      0.049700
     31 H112       -0.9530   -0.2000    1.8570 h1        1 LY5      0.049700
     32 H7         -0.5600    1.9660   -0.3600 hc        1 LY5      0.026700
     33 H61         1.3090   -0.2920    0.6420 hc        1 LY5      0.055700
     34 H62         0.3730   -0.3060   -0.9030 hc        1 LY5      0.055700
     35 H81        -0.2400    2.8730    1.9610 hc        1 LY5      0.032700
     36 H82         0.9300    1.5410    2.3150 hc        1 LY5      0.032700
     37 H91         1.1590    3.7400    0.1520 hc        1 LY5      0.017700
     38 H92         2.1430    3.5930    1.6620 hc        1 LY5      0.017700
     39 H4          3.2430    2.8710   -0.5300 hc        1 LY5      0.041700
     40 H5          1.4760    1.7640   -1.6600 hc        1 LY5      0.016700
     41 H31         4.1240    2.2470    1.6930 h1        1 LY5      0.004200
     42 H32         2.9950    0.8260    1.7820 h1        1 LY5      0.004200
     43 HN1         5.2560    0.2810    0.9850 hn        1 LY5      0.367800
     44 H1          3.4890   -1.0840    0.1160 h1        1 LY5      0.005700
     45 H21         2.5170   -0.5850   -2.0130 hc        1 LY5      0.050200
     46 H22         3.5700    0.8590   -2.2720 hc        1 LY5      0.050200
@<TRIPOS>BOND
     1    1    2 1   
     2    2    3 1   
     3    2    4 1   
     4    2    9 1   
     5    4    5 1   
     6    4   25 1   
     7    4   26 1   
     8    5    6 1   
     9    5   10 1   
    10    5   27 1   
    11    6    7 1   
    12    6    8 1   
    13    9   10 1   
    14    9   28 1   
    15    9   29 1   
    16   10   11 1   
    17   11   12 1   
    18   11   30 1   
    19   11   31 1   
    20   12   13 1   
    21   12   14 1   
    22   12   32 1   
    23   13   17 1   
    24   13   33 1   
    25   13   34 1   
    26   14   15 1   
    27   14   35 1   
    28   14   36 1   
    29   15   16 1   
    30   15   37 1   
    31   15   38 1   
    32   16   17 1   
    33   16   18 1   
    34   16   39 1   
    35   17   21 1   
    36   17   40 1   
    37   18   19 1   
    38   18   41 1   
    39   18   42 1   
    40   19   20 1   
    41   19   43 1   
    42   20   21 1   
    43   20   22 1   
    44   20   44 1   
    45   21   45 1   
    46   21   46 1   
    47   22   23 1   
    48   22   24 1   
@<TRIPOS>SUBSTRUCTURE
     1 LY5         1 TEMP              0 ****  ****    0 ROOT
