@<TRIPOS>MOLECULE
LY5
   46    48     1     0     0
SMALL
bcc


@<TRIPOS>ATOM
      1 F2          1.2660   -0.6390   -1.1230 f         1 LY5     -0.266800
      2 C15         2.1200   -0.1030   -0.1750 c3        1 LY5      0.373600
      3 F1          3.2650   -0.8340   -0.4170 f         1 LY5     -0.266800
      4 C14         1.5880   -0.2340    1.2760 c3        1 LY5     -0.106400
      5 C12         1.2840    1.2020    1.7230 c3        1 LY5      0.049500
      6 C13         1.4750    1.3900    3.2630 c         1 LY5      0.936600
      7 O4          1.1080    2.4920    3.7520 o         1 LY5     -0.834300
      8 O3          1.9020    0.4070    3.9280 o         1 LY5     -0.834300
      9 C16         2.3340    1.4420   -0.3850 c3        1 LY5      0.122800
     10 N2          2.1210    2.0970    0.8990 n3        1 LY5     -0.685600
     11 C11         1.5830    3.4440    0.8330 c3        1 LY5      0.169800
     12 C7          2.1860    4.3690   -0.2300 c3        1 LY5     -0.063700
     13 C6          3.6370    4.7400    0.0310 c3        1 LY5     -0.067400
     14 C8          1.3490    5.6410   -0.3000 c3        1 LY5     -0.072400
     15 C9          1.8410    6.5480   -1.4060 c3        1 LY5     -0.068400
     16 C4          3.3230    6.8670   -1.3120 c3        1 LY5     -0.055700
     17 C5          4.1730    5.6150   -1.0950 c3        1 LY5     -0.056700
     18 C3          3.5920    7.9200   -0.2250 c3        1 LY5      0.174800
     19 N1          4.9930    8.2750   -0.1740 n7        1 LY5     -0.807200
     20 C1          5.8490    7.1260    0.1090 c3        1 LY5      0.048500
     21 C2          5.6360    5.9920   -0.8920 c3        1 LY5     -0.053400
     22 C10         7.3490    7.5670    0.1590 c         1 LY5      0.925600
     23 O1          7.6450    8.4920    0.9700 o         1 LY5     -0.849800
     24 O2          8.1840    6.9700   -0.5740 o         1 LY5     -0.849800
     25 H141        2.3700   -0.6790    1.9430 hc        1 LY5      0.078200
     26 H142        0.6750   -0.8700    1.3080 hc        1 LY5      0.078200
     27 H12         0.1860    1.4050    1.5310 h1        1 LY5      0.008700
     28 H161        1.6340    1.7820   -1.1980 h1        1 LY5      0.045700
     29 H162        3.3900    1.6380   -0.7090 h1        1 LY5      0.045700
     30 H111        1.7480    3.8750    1.8650 h1        1 LY5      0.049700
     31 H112        0.4640    3.4250    0.6520 h1        1 LY5      0.049700
     32 H7          2.1290    3.8640   -1.2360 hc        1 LY5      0.026700
     33 H61         4.2560    3.8080    0.1060 hc        1 LY5      0.055700
     34 H62         3.7240    5.2770    1.0110 hc        1 LY5      0.055700
     35 H81         0.2740    5.3810   -0.4840 hc        1 LY5      0.032700
     36 H82         1.4010    6.1720    0.6860 hc        1 LY5      0.032700
     37 H91         1.2540    7.5040   -1.3910 hc        1 LY5      0.017700
     38 H92         1.6460    6.0520   -2.3940 hc        1 LY5      0.017700
     39 H4          3.6360    7.3150   -2.3000 hc        1 LY5      0.041700
     40 H5          4.1090    5.0050   -2.0430 hc        1 LY5      0.016700
     41 H31         3.1960    7.5240    0.7580 h1        1 LY5      0.004200
     42 H32         3.0070    8.8510   -0.4690 h1        1 LY5      0.004200
     43 HN1         5.1640    8.9810    0.5180 hn        1 LY5      0.367800
     44 H1          5.6170    6.7110    1.1400 h1        1 LY5      0.005700
     45 H21         6.0800    6.2960   -1.8760 hc        1 LY5      0.050200
     46 H22         6.2120    5.1020   -0.5290 hc        1 LY5      0.050200
@<TRIPOS>BOND
     1    1    2 1   
     2    2    3 1   
     3    2    4 1   
     4    2    9 1   
     5    4    5 1   
     6    4   25 1   
     7    4   26 1   
     8    5    6 1   
     9    5   10 1   
    10    5   27 1   
    11    6    7 1   
    12    6    8 1   
    13    9   10 1   
    14    9   28 1   
    15    9   29 1   
    16   10   11 1   
    17   11   12 1   
    18   11   30 1   
    19   11   31 1   
    20   12   13 1   
    21   12   14 1   
    22   12   32 1   
    23   13   17 1   
    24   13   33 1   
    25   13   34 1   
    26   14   15 1   
    27   14   35 1   
    28   14   36 1   
    29   15   16 1   
    30   15   37 1   
    31   15   38 1   
    32   16   17 1   
    33   16   18 1   
    34   16   39 1   
    35   17   21 1   
    36   17   40 1   
    37   18   19 1   
    38   18   41 1   
    39   18   42 1   
    40   19   20 1   
    41   19   43 1   
    42   20   21 1   
    43   20   22 1   
    44   20   44 1   
    45   21   45 1   
    46   21   46 1   
    47   22   23 1   
    48   22   24 1   
@<TRIPOS>SUBSTRUCTURE
     1 LY5         1 TEMP              0 ****  ****    0 ROOT
