@<TRIPOS>MOLECULE
LY7
   47    48     1     0     0
SMALL
bcc


@<TRIPOS>ATOM
      1 CAA         0.0000    0.0000    0.0000 c3        1 LY7     -0.005600
      2 CAB         2.0390    1.2500   -0.7210 c3        1 LY7     -0.005600
      3 CAC         0.0110   -3.8630    2.9210 c3        1 LY7     -0.107100
      4 NAD         5.5590  -13.5590   -0.5470 n1        1 LY7     -0.339800
      5 OAE         1.5220    1.0430    2.4560 o         1 LY7     -0.492300
      6 OAF         3.5410   -0.1930    1.7420 o         1 LY7     -0.492300
      7 CAH         3.7600  -10.5770   -0.5820 ca        1 LY7     -0.070000
      8 CAI         5.0130  -10.7760    1.4790 ca        1 LY7     -0.070000
      9 CAJ         3.2580   -9.3660   -0.1590 ca        1 LY7     -0.106000
     10 CAK         4.5110   -9.5650    1.8990 ca        1 LY7     -0.106000
     11 CAL         3.4610   -7.0320    2.7790 ca        1 LY7     -0.119500
     12 CAM         2.2120   -6.8330    0.7260 ca        1 LY7     -0.119500
     13 CAN         2.9570   -5.8180    3.1960 ca        1 LY7     -0.079000
     14 CAO         1.7140   -5.6190    1.1530 ca        1 LY7     -0.079000
     15 CAP         1.9460   -2.6940    1.8580 c3        1 LY7      0.454800
     16 NAQ         1.5170   -1.3890    2.3660 ny        1 LY7     -0.256900
     17 CAR         4.6410  -11.2910    0.2340 ca        1 LY7      0.080000
     18 CAS         3.6310   -8.8530    1.0840 cp        1 LY7     -0.038000
     19 CAT         3.0910   -7.5480    1.5380 cp        1 LY7     -0.019000
     20 CAU         2.0850   -5.1130    2.3860 ca        1 LY7     -0.173300
     21 CAV         1.5300    0.0000    0.0000 c3        1 LY7      0.029100
     22 CAW         1.5370   -3.7870    2.8470 c3        1 LY7     -0.039400
     23 SAX         2.1350    0.0000    1.7100 s6        1 LY7      0.817900
     24 HAA        -0.4010    0.6860    0.7360 hc        1 LY7      0.054700
     25 HAAA       -0.3810   -0.9500   -0.3530 hc        1 LY7      0.054700
     26 HAAB       -0.2520    0.6000   -0.8660 hc        1 LY7      0.054700
     27 HAB         1.4820    2.1250   -0.4090 hc        1 LY7      0.054700
     28 HABA        1.8720    0.7120   -1.6460 hc        1 LY7      0.054700
     29 HABB        3.1120    1.2640   -0.5730 hc        1 LY7      0.054700
     30 HAC         0.0020   -4.9320    3.0980 hc        1 LY7      0.063367
     31 HACA       -0.0120   -3.5380    3.9540 hc        1 LY7      0.063367
     32 HACB       -0.4280   -3.4860    2.0050 hc        1 LY7      0.063367
     33 HAH         3.4140  -11.0080   -1.5140 ha        1 LY7      0.125000
     34 HAI         5.5790  -11.1480    2.3240 ha        1 LY7      0.125000
     35 HAJ         2.4540   -9.0100   -0.7910 ha        1 LY7      0.119000
     36 HAK         4.6220   -9.2950    2.9420 ha        1 LY7      0.119000
     37 HAL         4.2800   -7.4270    3.3680 ha        1 LY7      0.147500
     38 HAM         2.2300   -7.5700   -0.0680 ha        1 LY7      0.147500
     39 HAN         3.0500   -5.1680    4.0580 ha        1 LY7      0.135500
     40 HAO         1.2880   -5.4050    0.1810 ha        1 LY7      0.135500
     41 HAP         1.3170   -3.1440    1.1000 hx        1 LY7      0.032700
     42 HAPA        3.0090   -2.6140    1.6640 hx        1 LY7      0.032700
     43 HNAQ        0.7370   -1.1480    1.7880 hn        1 LY7      0.329800
     44 HAV         2.1930   -0.8400   -0.1650 h1        1 LY7      0.060700
     45 HAW         1.6240   -3.0820    2.0290 hc        1 LY7     -0.224300
     46 HAQ2        0.7080   -1.5990    2.9170 hn        1 LY7      0.329800
     47 CAG         5.1620  -12.5510   -0.2050 cg        1 LY7      0.204800
@<TRIPOS>BOND
     1    1   21 1   
     2    1   24 1   
     3    1   25 1   
     4    1   26 1   
     5    2   21 1   
     6    2   27 1   
     7    2   28 1   
     8    2   29 1   
     9    3   22 1   
    10    3   30 1   
    11    3   31 1   
    12    3   32 1   
    13    4   47 3   
    14    5   23 2   
    15    6   23 2   
    16    7    9 ar  
    17    7   17 ar  
    18    7   33 1   
    19    8   10 ar  
    20    8   17 ar  
    21    8   34 1   
    22    9   18 ar  
    23    9   35 1   
    24   10   18 ar  
    25   10   36 1   
    26   11   13 ar  
    27   11   19 ar  
    28   11   37 1   
    29   12   14 ar  
    30   12   19 ar  
    31   12   38 1   
    32   13   20 ar  
    33   13   39 1   
    34   14   20 ar  
    35   14   40 1   
    36   15   16 1   
    37   15   22 1   
    38   15   41 1   
    39   15   42 1   
    40   16   23 1   
    41   16   43 1   
    42   16   46 1   
    43   17   47 1   
    44   18   19 1   
    45   20   22 1   
    46   21   23 1   
    47   21   44 1   
    48   22   45 1   
@<TRIPOS>SUBSTRUCTURE
     1 LY7         1 TEMP              0 ****  ****    0 ROOT
