@<TRIPOS>MOLECULE
LY7
   46    39     1     0     0
SMALL
bcc


@<TRIPOS>ATOM
      1 CAA         1.0130   -6.4760    0.7810 c3        1 LY7     -0.195500
      2 CAB         0.5200   -6.2920   -1.7210 c3        1 LY7     -0.195500
      3 CAC         3.1540   -0.0000   -0.3850 c3        1 LY7     -0.210000
      4 NAD        -4.8850    8.1730    2.0160 n1        1 LY7     -0.036000
      5 OAE        -0.3220   -3.9910    1.0320 o         1 LY7     -0.928500
      6 OAF        -0.6310   -3.7650   -1.1790 o         1 LY7     -0.928500
      7 CAG        -4.1620    7.3450    1.6710 c1        1 LY7     -0.097000
      8 CAH        -2.2840    5.6930    2.1250 c1        1 LY7     -0.110000
      9 CAI        -3.2990    5.7240   -0.0740 c1        1 LY7     -0.112500
     10 CAJ        -1.4680    4.6210    1.7390 c1        1 LY7     -0.110000
     11 CAK        -2.4840    4.6510   -0.4610 c1        1 LY7     -0.112500
     12 CAL         0.4840    3.1420   -0.4380 c1        1 LY7     -0.110000
     13 CAM        -1.2490    1.6930    0.3390 c1        1 LY7     -0.112500
     14 CAN         1.2840    2.0470   -0.6990 c1        1 LY7     -0.127000
     15 CAO        -0.4500    0.5990    0.0780 c1        1 LY7     -0.112500
     16 CAP         1.3110   -1.5910   -0.9670 c3        1 LY7     -0.005000
     17 NAQ         1.5740   -2.7860   -0.2510 n3        1 LY7     -0.895000
     18 CAR        -3.2000    6.2430    1.2140 c1        1 LY7     -0.024333
     19 CAS        -1.5650    4.1000    0.4520 c1        1 LY7     -0.024333
     20 CAT        -0.7820    2.9640    0.0810 c1        1 LY7     -0.024333
     21 CAU         0.8180    0.7770   -0.4410 c1        1 LY7     -0.067000
     22 CAV         1.1940   -5.5870   -0.4860 c3        1 LY7     -0.770000
     23 CAW         1.7040   -0.3750   -0.1050 c3        1 LY7     -0.088000
     24 SAX         0.4250   -4.0070   -0.2150 s6        1 LY7      2.795000
     25 HAA         1.4310   -6.0270    1.5640 hc        1 LY7      0.091000
     26 HAAA        0.0680   -6.6090    0.9510 hc        1 LY7      0.091000
     27 HAAB        1.4430   -7.3420    0.6350 hc        1 LY7      0.091000
     28 HAB        -0.4620   -6.2970   -1.6020 hc        1 LY7      0.091000
     29 HABA        0.7470   -5.8050   -2.5390 hc        1 LY7      0.091000
     30 HABB        0.8400   -7.1970   -1.7880 hc        1 LY7      0.091000
     31 HAC         3.7030   -0.8120   -0.4070 hc        1 LY7      0.079667
     32 HACA        3.2130    0.4630   -1.2630 hc        1 LY7      0.079667
     33 HACB        3.4780    0.5910    0.3160 hc        1 LY7      0.079667
     34 HAH        -2.2170    6.0480    3.0030 ha        1 LY7      0.142667
     35 HAI        -3.9320    6.1040   -0.7050 ha        1 LY7      0.142250
     36 HAJ        -0.8160    4.2300    2.3890 ha        1 LY7      0.142667
     37 HAK        -2.5530    4.2860   -1.3670 ha        1 LY7      0.142250
     38 HAL         0.8280    4.0820   -0.6290 ha        1 LY7      0.142667
     39 HAM        -2.1420    1.5680    0.7050 ha        1 LY7      0.142250
     40 HAN         2.1780    2.1730   -1.0660 ha        1 LY7      0.134000
     41 HAO        -0.7870   -0.3190    0.2650 ha        1 LY7      0.142250
     42 HAP         1.8500   -1.5850   -1.8260 h1        1 LY7      0.094000
     43 HAPA        0.3440   -1.5430   -1.1830 h1        1 LY7      0.094000
     44 HNAQ        2.3200   -2.8540    0.2530 hn        1 LY7      0.247000
     45 HAV         2.1640   -5.4570   -0.6660 h1        1 LY7      0.144000
     46 HAW         1.6020   -0.6010    0.8530 hc        1 LY7      0.108000
@<TRIPOS>BOND
     1    1   22 1   
     2    1   25 1   
     3    1   26 1   
     4    1   27 1   
     5    2   22 1   
     6    2   28 1   
     7    2   29 1   
     8    2   30 1   
     9    3   23 1   
    10    3   31 1   
    11    3   32 1   
    12    3   33 1   
    13    4    7 1   
    14    5   24 1   
    15    6   24 1   
    16    8   18 1   
    17    8   34 1   
    18    9   11 1   
    19    9   35 1   
    20   10   19 1   
    21   10   36 1   
    22   11   37 1   
    23   12   20 1   
    24   12   38 1   
    25   13   15 1   
    26   13   39 1   
    27   14   21 1   
    28   14   40 1   
    29   15   41 1   
    30   16   17 1   
    31   16   23 1   
    32   16   42 1   
    33   16   43 1   
    34   17   24 1   
    35   17   44 1   
    36   21   23 1   
    37   22   24 1   
    38   22   45 1   
    39   23   46 1   
@<TRIPOS>SUBSTRUCTURE
     1 LY7         1 TEMP              0 ****  ****    0 ROOT
