@<TRIPOS>MOLECULE
LY7
   46    47     1     0     0
SMALL
bcc


@<TRIPOS>ATOM
      1 CAA        -6.0420    1.6210   -1.4870 c3        1 LY7     -0.077100
      2 CAB        -6.2450    2.3580    0.8720 c3        1 LY7     -0.077100
      3 CAC        -1.7980   -2.2900   -1.8470 c3        1 LY7     -0.093100
      4 NAD         9.2430    1.0990    0.5950 n1        1 LY7     -0.361800
      5 OAE        -5.9590   -0.7020    0.4570 o         1 LY7     -0.649300
      6 OAF        -4.1810    0.3700    1.6810 o         1 LY7     -0.649300
      7 CAH         5.8820    1.3900   -0.3500 ca        1 LY7     -0.090000
      8 CAI         6.2430   -0.6970    0.8350 ca        1 LY7     -0.090000
      9 CAJ         4.5360    1.0680   -0.5000 ca        1 LY7     -0.126500
     10 CAK         4.8960   -1.0110    0.6840 ca        1 LY7     -0.126500
     11 CAL         1.9040   -1.0670    0.9070 ca        1 LY7     -0.113000
     12 CAM         1.9500   -0.1980   -1.3460 ca        1 LY7     -0.113000
     13 CAN         0.5570   -1.3860    0.7560 ca        1 LY7     -0.124000
     14 CAO         0.6050   -0.5210   -1.4960 ca        1 LY7     -0.124000
     15 CAP        -2.3740   -0.1630   -0.6120 c3        1 LY7      0.228800
     16 NAQ        -3.7930   -0.3520   -0.6690 n3        1 LY7     -0.923100
     17 CAR         6.7420    0.5070    0.3180 ca        1 LY7     -0.019000
     18 CAS         4.0290   -0.1350    0.0160 cp        1 LY7     -0.010000
     19 CAT         2.6150   -0.4690   -0.1420 cp        1 LY7     -0.047000
     20 CAU        -0.1050   -1.1180   -0.4480 ca        1 LY7     -0.074300
     21 CAV        -5.3380    1.7120   -0.1540 c3        1 LY7     -0.270900
     22 CAW        -1.5520   -1.4680   -0.5980 c3        1 LY7     -0.039400
     23 SAX        -4.8380    0.1560    0.4490 s6        1 LY7      1.440900
     24 HAA        -5.3300    1.3270   -2.2960 hc        1 LY7      0.051367
     25 HAAA       -6.8700    0.8710   -1.4380 hc        1 LY7      0.051367
     26 HAAB       -6.4840    2.6100   -1.7610 hc        1 LY7      0.051367
     27 HAB        -7.1790    1.7560    0.9980 hc        1 LY7      0.051367
     28 HABA       -5.7230    2.4340    1.8580 hc        1 LY7      0.051367
     29 HABB       -6.5320    3.3860    0.5440 hc        1 LY7      0.051367
     30 HAC        -1.7160   -1.6580   -2.7640 hc        1 LY7      0.040367
     31 HACA       -1.0480   -3.1150   -1.9190 hc        1 LY7      0.040367
     32 HACB       -2.8160   -2.7480   -1.8200 hc        1 LY7      0.040367
     33 HAH         6.2700    2.3370   -0.7550 ha        1 LY7      0.146500
     34 HAI         6.9170   -1.3920    1.3580 ha        1 LY7      0.146500
     35 HAJ         3.8620    1.7660   -1.0190 ha        1 LY7      0.143500
     36 HAK         4.5090   -1.9600    1.0870 ha        1 LY7      0.143500
     37 HAL         2.4110   -1.2780    1.8610 ha        1 LY7      0.138000
     38 HAM         2.4980    0.2650   -2.1810 ha        1 LY7      0.138000
     39 HAN         0.0110   -1.8490    1.5920 ha        1 LY7      0.137500
     40 HAO         0.0960   -0.3080   -2.4490 ha        1 LY7      0.137500
     41 HAP        -2.0420    0.4480   -1.5020 h1        1 LY7      0.057200
     42 HAPA       -2.1250    0.4180    0.3250 h1        1 LY7      0.057200
     43 HNAQ       -4.0900   -0.8900   -1.4480 hn        1 LY7      0.450800
     44 HAV        -4.4430    2.3830   -0.2790 h1        1 LY7      0.104700
     45 HAW        -1.8700   -2.0810    0.2940 hc        1 LY7      0.067700
     46 CAG         8.1170    0.8330    0.4700 cg        1 LY7      0.232800
@<TRIPOS>BOND
     1    1   21 1   
     2    1   24 1   
     3    1   25 1   
     4    1   26 1   
     5    2   21 1   
     6    2   27 1   
     7    2   28 1   
     8    2   29 1   
     9    3   22 1   
    10    3   30 1   
    11    3   31 1   
    12    3   32 1   
    13    4   46 3   
    14    5   23 2   
    15    6   23 2   
    16    7    9 ar  
    17    7   17 ar  
    18    7   33 1   
    19    8   10 ar  
    20    8   17 ar  
    21    8   34 1   
    22    9   18 ar  
    23    9   35 1   
    24   10   18 ar  
    25   10   36 1   
    26   11   13 ar  
    27   11   19 ar  
    28   11   37 1   
    29   12   14 ar  
    30   12   19 ar  
    31   12   38 1   
    32   13   20 ar  
    33   13   39 1   
    34   14   20 ar  
    35   14   40 1   
    36   15   16 1   
    37   15   22 1   
    38   15   41 1   
    39   15   42 1   
    40   16   23 1   
    41   16   43 1   
    42   17   46 1   
    43   18   19 1   
    44   20   22 1   
    45   21   23 1   
    46   21   44 1   
    47   22   45 1   
@<TRIPOS>SUBSTRUCTURE
     1 LY7         1 TEMP              0 ****  ****    0 ROOT
