@<TRIPOS>MOLECULE
LY9
   18    16     1     0     0
SMALL
bcc


@<TRIPOS>ATOM
      1 OAA      -577.9080 -834.5690 -222.7090 o         1 LY9     -0.821300
      2 OAB      -575.7350 -834.7480 -220.3500 o         1 LY9     -0.599100
      3 OAC       290.8120  418.5560  113.8990 oh        1 LY9     -0.518100
      4 CAF      -576.6660 -834.7710 -222.6320 c         1 LY9      0.838600
      5 CAG      -575.9380 -834.1810 -221.4280 c         1 LY9      0.472900
      6 CAH       292.5820  418.2940  112.2420 c3        1 LY9      0.256600
      7 CAI       292.1270  418.8130  113.5350 c2        1 LY9     -0.501100
      8 CAJ       292.9080  419.6030  114.3860 c2        1 LY9      0.443100
      9 OAK       292.3400  420.0700  115.5720 oh        1 LY9     -0.656100
     10 OAL       293.1520  416.9800  112.3170 oh        1 LY9     -0.673800
     11 HAG       291.7270  418.1740  111.5220 h1        1 LY9      0.013700
     12 HAH       293.6160  416.9320  113.1580 ho        1 LY9      0.393000
     13 HAI      -575.5700 -833.1350 -221.5760 h4        1 LY9     -0.068800
     14 HOAL      293.3630  418.9720  111.7990 h1        1 LY9      0.013700
     15 HOAB      291.4080  419.8210  115.5750 ho        1 LY9      0.398000
     16 OAD       294.0970  419.9910  114.2830 o         1 LY9     -0.501000
     17 OAE      -575.9650 -835.3670 -223.4940 o         1 LY9     -0.821300
     18 HOAC      290.8290  417.6830  114.3200 ho        1 LY9      0.332000
@<TRIPOS>BOND
     1    1    4 1   
     2    2    5 2   
     3    3    7 1   
     4    3   18 1   
     5    4    5 1   
     6    4   17 1   
     7    5   13 1   
     8    6    7 1   
     9    6   10 1   
    10    6   11 1   
    11    6   14 1   
    12    7    8 2   
    13    8    9 1   
    14    8   16 1   
    15    9   15 1   
    16   10   12 1   
@<TRIPOS>SUBSTRUCTURE
     1 LY9         1 TEMP              0 ****  ****    0 ROOT
