@<TRIPOS>MOLECULE
LY9
   18    17     1     0     0
SMALL
bcc


@<TRIPOS>ATOM
      1 OAA        -3.3300    0.0290   -0.8690 o         1 LY9     -0.859800
      2 OAB        -1.3320    1.7750   -0.7900 oh        1 LY9     -0.639300
      3 OAC         1.3550    0.2300    1.7810 oh        1 LY9     -0.639300
      4 CAF        -2.5220   -0.1640    0.0890 c         1 LY9      0.897100
      5 CAG        -1.2270    0.6800    0.1070 c3        1 LY9     -0.003400
      6 CAH         0.0430   -0.1340   -0.2190 c3        1 LY9      0.131100
      7 CAI         1.2860    0.5380    0.3950 c3        1 LY9     -0.003400
      8 CAJ         2.6020    0.1480   -0.3150 c         1 LY9      0.897100
      9 OAK         3.4400   -0.5340    0.3510 o         1 LY9     -0.859800
     10 OAL        -0.0600   -1.4730    0.2370 oh        1 LY9     -0.618800
     11 HAG        -1.1110    1.1380    1.1280 h1        1 LY9      0.051700
     12 HAH         0.1850   -0.2040   -1.3320 h1        1 LY9      0.070700
     13 HAI         1.1580    1.6530    0.3380 h1        1 LY9      0.051700
     14 HOAL       -0.5730   -1.4530    1.0570 ho        1 LY9      0.418000
     15 HOAB       -1.9310    1.4900   -1.4980 ho        1 LY9      0.412500
     16 OAD         2.8150    0.5500   -1.4940 o         1 LY9     -0.859800
     17 OAE        -2.7380   -0.9690    1.0400 o         1 LY9     -0.859800
     18 HOAC        1.9170   -0.5560    1.8500 ho        1 LY9      0.412500
@<TRIPOS>BOND
     1    1    4 1   
     2    2    5 1   
     3    2   15 1   
     4    3    7 1   
     5    3   18 1   
     6    4    5 1   
     7    4   17 1   
     8    5    6 1   
     9    5   11 1   
    10    6    7 1   
    11    6   10 1   
    12    6   12 1   
    13    7    8 1   
    14    7   13 1   
    15    8    9 1   
    16    8   16 1   
    17   10   14 1   
@<TRIPOS>SUBSTRUCTURE
     1 LY9         1 TEMP              0 ****  ****    0 ROOT
