@<TRIPOS>MOLECULE
LY9
   18    16     1     0     0
SMALL
bcc


@<TRIPOS>ATOM
      1 OAA      -957.2400 -714.4440 -317.1360 o         1 LY9     -0.821300
      2 OAB      -955.4340 -716.5750 -315.5500 o         1 LY9     -0.599100
      3 OAC       482.9440  360.3150  162.1060 oh        1 LY9     -0.656800
      4 CAF      -956.2840 -715.2150 -317.4210 c         1 LY9      0.838600
      5 CAG      -956.1220 -716.4710 -316.5700 c         1 LY9      0.472900
      6 CAH       481.9280  358.3440  161.2090 c3        1 LY9      0.124400
      7 CAI       482.1670  359.8390  161.0170 c3        1 LY9     -0.023900
      8 CAJ       482.8590  360.0950  159.6540 c         1 LY9      0.897600
      9 OAK       484.0560  360.5030  159.7030 o         1 LY9     -0.831800
     10 OAL       481.3920  358.0440  162.4900 oh        1 LY9     -0.640800
     11 HAG       481.1710  357.9760  160.4690 h1        1 LY9      0.040200
     12 HAH       481.8430  358.6220  163.1180 ho        1 LY9      0.406000
     13 HAI      -956.6970 -717.3580 -316.9380 h4        1 LY9     -0.068800
     14 HOAL      482.8900  357.7800  161.0820 h1        1 LY9      0.040200
     15 HOAB      481.1920  360.3940  161.0660 h1        1 LY9      0.047700
     16 OAD       482.2020  359.8880  158.6000 o         1 LY9     -0.831800
     17 OAE      -955.4860 -715.0670 -318.3870 o         1 LY9     -0.821300
     18 HOAC      483.8310  360.5060  161.7560 ho        1 LY9      0.430000
@<TRIPOS>BOND
     1    1    4 1   
     2    2    5 2   
     3    3    7 1   
     4    3   18 1   
     5    4    5 1   
     6    4   17 1   
     7    5   13 1   
     8    6    7 1   
     9    6   10 1   
    10    6   11 1   
    11    6   14 1   
    12    7    8 1   
    13    7   15 1   
    14    8    9 1   
    15    8   16 1   
    16   10   12 1   
@<TRIPOS>SUBSTRUCTURE
     1 LY9         1 TEMP              0 ****  ****    0 ROOT
