@<TRIPOS>MOLECULE
LYA
   51    53     1     0     0
SMALL
bcc


@<TRIPOS>ATOM
      1 C1         -0.4480    0.4180    0.1530 ca        1 LYA     -0.073300
      2 C2          0.8920    0.8270    0.1390 ca        1 LYA     -0.144000
      3 C3          1.6070    0.9420    1.3270 ca        1 LYA     -0.088500
      4 C4          0.9960    0.6370    2.5500 ca        1 LYA     -0.129600
      5 C5         -0.3440    0.2410    2.5700 ca        1 LYA     -0.088500
      6 C6         -1.0610    0.1380    1.3790 ca        1 LYA     -0.144000
      7 C7         -1.1940    0.3060   -1.1300 c3        1 LYA     -0.030100
      8 C8         -2.1320   -0.8920   -1.1670 c3        1 LYA     -0.026100
      9 C9         -2.3490   -1.3810   -2.5380 cc        1 LYA     -0.046300
     10 C10        -1.3810   -1.9450   -3.3810 cd        1 LYA     -0.170300
     11 N11        -1.9690   -2.3190   -4.5970 na        1 LYA     -0.187100
     12 C12        -3.3200   -1.9820   -4.5340 cd        1 LYA      0.105300
     13 C13        -3.5900   -1.3990   -3.2600 cc        1 LYA     -0.250600
     14 C14        -4.9530   -0.9840   -2.9440 c         1 LYA      0.746100
     15 O15        -5.2940   -0.4690   -1.8670 o         1 LYA     -0.539100
     16 N16        -5.9330   -1.1940   -3.9570 nc        1 LYA     -0.727100
     17 C17        -5.6200   -1.7690   -5.1070 cd        1 LYA      0.809100
     18 N18        -4.2900   -2.1040   -5.5340 na        1 LYA     -0.704600
     19 N19        -6.6490   -2.1100   -6.0380 nv        1 LYA     -0.881800
     20 C20         1.8190    0.7580    3.7940 c         1 LYA      0.643700
     21 O21         2.6750    1.6710    3.8860 o         1 LYA     -0.643100
     22 N22         1.5510   -0.1120    4.8280 ns        1 LYA     -0.517900
     23 C23         2.5180   -0.3560    5.8840 c3        1 LYA     -0.070300
     24 C24         2.1590    0.3300    7.2060 c3        1 LYA     -0.076400
     25 C25         2.3230    1.8370    7.1590 c3        1 LYA     -0.188400
     26 C26         1.0760    2.5730    7.5350 c         1 LYA      0.637100
     27 O27         0.9650    3.4860    8.3600 o         1 LYA     -0.541000
     28 O28        -0.1040    2.2680    6.9150 oh        1 LYA     -0.602100
     29 C29         2.6810   -1.9000    6.1830 c         1 LYA      0.913600
     30 O30         1.8990   -2.7050    5.6060 o         1 LYA     -0.820800
     31 O31         3.6000   -2.2080    6.9830 o         1 LYA     -0.820800
     32 HC2         1.3840    1.0610   -0.8170 ha        1 LYA      0.129000
     33 HC3         2.6570    1.2760    1.3230 ha        1 LYA      0.148000
     34 HC5        -0.8460    0.0120    3.5230 ha        1 LYA      0.148000
     35 HC6        -2.1170   -0.1720    1.4030 ha        1 LYA      0.129000
     36 HC71       -1.7890    1.2460   -1.2870 hc        1 LYA      0.048700
     37 HC72       -0.4630    0.2350   -1.9810 hc        1 LYA      0.048700
     38 HC81       -3.1230   -0.6110   -0.7150 hc        1 LYA      0.073700
     39 HC82       -1.7020   -1.7260   -0.5470 hc        1 LYA      0.073700
     40 H10        -0.3190   -2.1180   -3.2040 h4        1 LYA      0.180000
     41 H11        -1.4990   -2.7100   -5.3690 hn        1 LYA      0.297700
     42 H18        -4.1750   -2.8180   -6.2180 hn        1 LYA      0.434800
     43 H191       -6.4570   -1.7940   -6.9660 hn        1 LYA      0.404800
     44 H192       -7.5560   -1.8240   -5.7260 hn        1 LYA      0.404800
     45 H22         0.0410    1.5490    6.2820 ho        1 LYA      0.442000
     46 H23         3.5300    0.0230    5.5560 h1        1 LYA      0.064700
     47 H241        1.1180    0.0500    7.5130 hc        1 LYA      0.063700
     48 H242        2.8570   -0.0990    7.9770 hc        1 LYA      0.063700
     49 H251        3.1410    2.1580    7.8570 hc        1 LYA      0.088200
     50 H252        2.6160    2.1690    6.1220 hc        1 LYA      0.088200
     51 H222        1.0240   -0.9370    4.6010 hn        1 LYA      0.328500
@<TRIPOS>BOND
     1    1    2 ar  
     2    1    6 ar  
     3    1    7 1   
     4    2    3 ar  
     5    2   32 1   
     6    3    4 ar  
     7    3   33 1   
     8    4    5 ar  
     9    4   20 1   
    10    5    6 ar  
    11    5   34 1   
    12    6   35 1   
    13    7    8 1   
    14    7   36 1   
    15    7   37 1   
    16    8    9 1   
    17    8   38 1   
    18    8   39 1   
    19    9   10 2   
    20    9   13 1   
    21   10   11 1   
    22   10   40 1   
    23   11   12 1   
    24   11   41 1   
    25   12   13 2   
    26   12   18 1   
    27   13   14 1   
    28   14   15 2   
    29   14   16 1   
    30   16   17 2   
    31   17   18 1   
    32   17   19 1   
    33   18   42 1   
    34   19   43 1   
    35   19   44 1   
    36   20   21 2   
    37   20   22 1   
    38   22   23 1   
    39   22   51 1   
    40   23   24 1   
    41   23   29 1   
    42   23   46 1   
    43   24   25 1   
    44   24   47 1   
    45   24   48 1   
    46   25   26 1   
    47   25   49 1   
    48   25   50 1   
    49   26   27 2   
    50   26   28 1   
    51   28   45 1   
    52   29   30 1   
    53   29   31 1   
@<TRIPOS>SUBSTRUCTURE
     1 LYA         1 TEMP              0 ****  ****    0 ROOT
