@<TRIPOS>MOLECULE
LYA
   50    52     1     0     0
SMALL
bcc


@<TRIPOS>ATOM
      1 C1          2.3850    2.1410    1.1500 ca        1 LYA     -0.081300
      2 C2          1.2040    2.7270    1.6220 ca        1 LYA     -0.143500
      3 C3          0.0590    2.7140    0.8300 ca        1 LYA     -0.098000
      4 C4          0.0940    2.1200   -0.4370 ca        1 LYA     -0.129600
      5 C5          1.3190    1.7300   -0.9900 ca        1 LYA     -0.098000
      6 C6          2.4630    1.7470   -0.1920 ca        1 LYA     -0.143500
      7 C7          3.4800    1.7980    2.0980 c3        1 LYA     -0.020100
      8 C8          3.0460    0.7490    3.1260 c3        1 LYA     -0.004100
      9 C9          2.0430   -0.2080    2.6340 cc        1 LYA     -0.086300
     10 C10         2.1190   -1.0300    1.5010 cd        1 LYA     -0.170300
     11 N11         0.9150   -1.7270    1.3200 na        1 LYA     -0.166100
     12 C12         0.0440   -1.2940    2.3200 cd        1 LYA      0.159300
     13 C13         0.7280   -0.3910    3.1930 cc        1 LYA     -0.293600
     14 C14        -0.0220    0.2070    4.2910 c         1 LYA      0.753100
     15 O15         0.5090    0.9010    5.1890 o         1 LYA     -0.646100
     16 N16        -1.4200    0.0070    4.3030 nc        1 LYA     -0.790100
     17 C17        -1.9960   -0.8100    3.4040 cd        1 LYA      0.841100
     18 N18        -1.2850   -1.6550    2.5080 na        1 LYA     -0.687600
     19 N19        -3.4050   -0.9700    3.3940 nh        1 LYA     -0.892800
     20 C20        -1.2180    1.6840   -1.0240 c         1 LYA      0.678700
     21 O21        -2.2450    2.3980   -0.9310 o         1 LYA     -0.671100
     22 N22        -1.1970    0.4110   -1.5190 n         1 LYA     -0.532900
     23 C23        -2.3410   -0.4540   -1.6810 c3        1 LYA      0.019700
     24 C24        -2.2330   -1.3030   -2.9590 c3        1 LYA     -0.065400
     25 C25        -1.8890   -0.5160   -4.2040 c3        1 LYA     -0.189400
     26 C26        -0.4030   -0.5650   -4.5870 c         1 LYA      0.911600
     27 O27         0.4840   -0.1970   -3.7560 o         1 LYA     -0.868800
     28 O28        -0.1110   -0.9460   -5.7600 o         1 LYA     -0.868800
     29 C29        -2.4200   -1.4090   -0.4560 c         1 LYA      0.902600
     30 O30        -3.3670   -1.2860    0.3810 o         1 LYA     -0.880800
     31 O31        -1.5030   -2.2710   -0.2640 o         1 LYA     -0.880800
     32 HC2         1.1580    3.1110    2.6510 ha        1 LYA      0.123000
     33 HC3        -0.8980    3.0980    1.2170 ha        1 LYA      0.166500
     34 HC5         1.3690    1.3430   -2.0270 ha        1 LYA      0.166500
     35 HC6         3.4120    1.3730   -0.6010 ha        1 LYA      0.123000
     36 HC71        3.8160    2.7170    2.6480 hc        1 LYA      0.024200
     37 HC72        4.3650    1.4090    1.5270 hc        1 LYA      0.024200
     38 HC81        2.6070    1.2760    4.0200 hc        1 LYA      0.047200
     39 HC82        3.9620    0.1990    3.4750 hc        1 LYA      0.047200
     40 H10         2.9350   -1.1630    0.7920 h4        1 LYA      0.159000
     41 H11         0.5880   -2.1180    0.4580 hn        1 LYA      0.348700
     42 H18        -1.7760   -2.0950    1.7310 hn        1 LYA      0.515800
     43 H191       -3.8830   -0.2090    3.8280 hn        1 LYA      0.423300
     44 H192       -3.7730   -1.1950    2.4820 hn        1 LYA      0.423300
     45 H22        -0.3340    0.0340   -1.8720 hn        1 LYA      0.364500
     46 H23        -3.2770    0.1730   -1.7080 h1        1 LYA      0.060700
     47 H241       -1.4580   -2.0980   -2.7900 hc        1 LYA      0.039700
     48 H242       -3.2210   -1.8150   -3.0890 hc        1 LYA      0.039700
     49 H251       -2.4770   -0.9250   -5.0670 hc        1 LYA      0.022700
     50 H252       -2.1780    0.5590   -4.0830 hc        1 LYA      0.022700
@<TRIPOS>BOND
     1    1    2 ar  
     2    1    6 ar  
     3    1    7 1   
     4    2    3 ar  
     5    2   32 1   
     6    3    4 ar  
     7    3   33 1   
     8    4    5 ar  
     9    4   20 1   
    10    5    6 ar  
    11    5   34 1   
    12    6   35 1   
    13    7    8 1   
    14    7   36 1   
    15    7   37 1   
    16    8    9 1   
    17    8   38 1   
    18    8   39 1   
    19    9   10 2   
    20    9   13 1   
    21   10   11 1   
    22   10   40 1   
    23   11   12 1   
    24   11   41 1   
    25   12   13 2   
    26   12   18 1   
    27   13   14 1   
    28   14   15 2   
    29   14   16 1   
    30   16   17 2   
    31   17   18 1   
    32   17   19 1   
    33   18   42 1   
    34   19   43 1   
    35   19   44 1   
    36   20   21 2   
    37   20   22 1   
    38   22   23 1   
    39   22   45 1   
    40   23   24 1   
    41   23   29 1   
    42   23   46 1   
    43   24   25 1   
    44   24   47 1   
    45   24   48 1   
    46   25   26 1   
    47   25   49 1   
    48   25   50 1   
    49   26   27 1   
    50   26   28 1   
    51   29   30 1   
    52   29   31 1   
@<TRIPOS>SUBSTRUCTURE
     1 LYA         1 TEMP              0 ****  ****    0 ROOT
