@<TRIPOS>MOLECULE
LYA
   52    54     1     0     0
SMALL
bcc


@<TRIPOS>ATOM
      1 C1          1.3270    0.1630   -1.6600 ca        1 LYA     -0.058300
      2 C2          1.5900   -1.1120   -1.1440 ca        1 LYA     -0.132500
      3 C3          1.5570   -1.3340    0.2310 ca        1 LYA     -0.094500
      4 C4          1.2500   -0.2810    1.1010 ca        1 LYA     -0.152600
      5 C5          1.1030    1.0150    0.6000 ca        1 LYA     -0.094500
      6 C6          1.1510    1.2350   -0.7750 ca        1 LYA     -0.132500
      7 C7          1.1650    0.3660   -3.1270 c3        1 LYA     -0.034100
      8 C8         -0.1370   -0.2370   -3.6540 c3        1 LYA     -0.021100
      9 C9         -1.2830    0.0400   -2.7720 cc        1 LYA     -0.048300
     10 C10        -1.8550    1.2870   -2.4830 cd        1 LYA     -0.150300
     11 N11        -2.8110    1.1500   -1.4690 na        1 LYA     -0.164100
     12 C12        -2.8510   -0.1920   -1.1030 cd        1 LYA      0.105300
     13 C13        -1.9460   -0.9220   -1.9350 cc        1 LYA     -0.249600
     14 C14        -1.8340   -2.3620   -1.7840 c         1 LYA      0.754100
     15 O15        -1.1760   -3.1180   -2.5080 o         1 LYA     -0.503100
     16 N16        -2.5560   -2.9320   -0.6730 nc        1 LYA     -0.667100
     17 C17        -3.2770   -2.1630    0.1050 cd        1 LYA      0.743100
     18 N18        -3.6270   -0.7940   -0.0960 na        1 LYA     -0.658600
     19 N19        -3.8770   -2.7960    1.3190 n4        1 LYA     -0.831600
     20 C20         0.9900   -0.6080    2.5330 c         1 LYA      0.653700
     21 O21         1.7350   -1.3530    3.1950 o         1 LYA     -0.570100
     22 N22        -0.1510   -0.0250    3.1010 n         1 LYA     -0.542900
     23 C23        -0.9300   -0.7800    4.0700 c3        1 LYA     -0.001300
     24 C24        -1.3780    0.0720    5.2640 c3        1 LYA     -0.074400
     25 C25        -0.2220    0.4650    6.1630 c3        1 LYA     -0.178400
     26 C26        -0.1290    1.9500    6.3380 c         1 LYA      0.628100
     27 O27        -0.2290    2.5850    7.3880 o         1 LYA     -0.501000
     28 O28         0.1000    2.7390    5.2440 oh        1 LYA     -0.592100
     29 C29        -2.1870   -1.3740    3.4090 c         1 LYA      0.893600
     30 O30        -2.9310   -0.6490    2.6600 o         1 LYA     -0.871800
     31 O31        -2.4710   -2.6000    3.5490 o         1 LYA     -0.871800
     32 HC2         1.7890   -1.9500   -1.8310 ha        1 LYA      0.139500
     33 HC3         1.7480   -2.3390    0.6410 ha        1 LYA      0.147000
     34 HC5         0.9400    1.8620    1.2840 ha        1 LYA      0.147000
     35 HC6         1.0230    2.2540   -1.1680 ha        1 LYA      0.139500
     36 HC71        2.0220   -0.1110   -3.6740 hc        1 LYA      0.052700
     37 HC72        1.1840    1.4640   -3.3620 hc        1 LYA      0.052700
     38 HC81       -0.3320    0.1730   -4.6810 hc        1 LYA      0.069700
     39 HC82       -0.0160   -1.3520   -3.7470 hc        1 LYA      0.069700
     40 H10        -1.6510    2.2670   -2.9180 h4        1 LYA      0.183000
     41 H11        -3.3330    1.8810   -1.0590 hn        1 LYA      0.313700
     42 H18        -3.7880   -0.2400    0.7340 hn        1 LYA      0.482800
     43 H191       -4.7050   -3.3270    1.0660 hn        1 LYA      0.493133
     44 H192       -4.0780   -2.0540    2.0510 hn        1 LYA      0.493133
     45 H22         0.1900    2.1830    4.4580 ho        1 LYA      0.434000
     46 H23        -0.3000   -1.6380    4.4550 h1        1 LYA      0.104700
     47 H241       -2.1140   -0.5430    5.8490 hc        1 LYA      0.064700
     48 H242       -1.9260    0.9800    4.8960 hc        1 LYA      0.064700
     49 H251        0.7550    0.0970    5.7470 hc        1 LYA      0.087200
     50 H252       -0.3490    0.0000    7.1780 hc        1 LYA      0.087200
     51 H193       -3.1640   -3.4050    1.7810 hn        1 LYA      0.493133
     52 H222       -0.7280    0.4900    2.4660 hn        1 LYA      0.296500
@<TRIPOS>BOND
     1    1    2 ar  
     2    1    6 ar  
     3    1    7 1   
     4    2    3 ar  
     5    2   32 1   
     6    3    4 ar  
     7    3   33 1   
     8    4    5 ar  
     9    4   20 1   
    10    5    6 ar  
    11    5   34 1   
    12    6   35 1   
    13    7    8 1   
    14    7   36 1   
    15    7   37 1   
    16    8    9 1   
    17    8   38 1   
    18    8   39 1   
    19    9   10 2   
    20    9   13 1   
    21   10   11 1   
    22   10   40 1   
    23   11   12 1   
    24   11   41 1   
    25   12   13 2   
    26   12   18 1   
    27   13   14 1   
    28   14   15 2   
    29   14   16 1   
    30   16   17 2   
    31   17   18 1   
    32   17   19 1   
    33   18   42 1   
    34   19   43 1   
    35   19   44 1   
    36   19   51 1   
    37   20   21 2   
    38   20   22 1   
    39   22   23 1   
    40   22   52 1   
    41   23   24 1   
    42   23   29 1   
    43   23   46 1   
    44   24   25 1   
    45   24   47 1   
    46   24   48 1   
    47   25   26 1   
    48   25   49 1   
    49   25   50 1   
    50   26   27 2   
    51   26   28 1   
    52   28   45 1   
    53   29   30 1   
    54   29   31 1   
@<TRIPOS>SUBSTRUCTURE
     1 LYA         1 TEMP              0 ****  ****    0 ROOT
