@<TRIPOS>MOLECULE
LYC
   96    95     1     0     0
SMALL
bcc


@<TRIPOS>ATOM
      1 C1         71.4660   -4.6950  103.8110 c3        1 LYC     -0.058400
      2 C2         71.6800   -4.8610  102.3530 c2        1 LYC     -0.121900
      3 C3         73.0900   -4.9910  101.9130 c3        1 LYC     -0.058400
      4 C4         70.6540   -4.8940  101.4870 c2        1 LYC     -0.179200
      5 C5         70.8290   -5.0540  100.0250 c3        1 LYC     -0.042200
      6 C6         69.4980   -5.1600   99.3020 c3        1 LYC     -0.044200
      7 C7         69.6840   -5.3770   97.8380 c2        1 LYC     -0.097400
      8 C8         70.1490   -6.7240   97.4300 c3        1 LYC     -0.063900
      9 C9         69.4230   -4.3920   96.9570 ce        1 LYC     -0.149000
     10 C10        69.5620   -4.5180   95.5240 ce        1 LYC     -0.121000
     11 C11        69.2860   -3.5080   94.6790 cf        1 LYC     -0.131000
     12 C12        69.4030   -3.5800   93.2300 cf        1 LYC     -0.064200
     13 C13        70.0290   -4.7990   92.6650 c3        1 LYC     -0.061900
     14 C14        68.9380   -2.5500   92.4840 ce        1 LYC     -0.132000
     15 C15        68.9540   -2.4620   91.0440 ce        1 LYC     -0.123000
     16 C16        68.4930   -1.3790   90.3880 cf        1 LYC     -0.127000
     17 C17        68.4730   -1.2290   88.9410 cf        1 LYC     -0.065200
     18 C18        69.1320   -2.2910   88.1440 c3        1 LYC     -0.062900
     19 C19        67.8620   -0.1460   88.4050 ce        1 LYC     -0.130000
     20 C20        67.7320    0.1550   87.0020 ce        1 LYC     -0.123000
     21 C21        67.1360    1.2820   86.5570 cf        1 LYC     -0.123000
     22 C50        67.0000    1.5800   85.1540 cf        1 LYC     -0.130000
     23 C51        66.4530    2.6970   84.6190 ce        1 LYC     -0.065200
     24 C52        65.9070    3.8200   85.4190 c3        1 LYC     -0.062900
     25 C53        66.3830    2.8210   83.1710 ce        1 LYC     -0.127000
     26 C54        65.7580    3.8160   82.5120 cf        1 LYC     -0.123000
     27 C55        65.7210    3.8760   81.0710 cf        1 LYC     -0.132000
     28 C56        65.1450    4.8470   80.3240 ce        1 LYC     -0.064200
     29 C57        64.4640    6.0360   80.8900 c3        1 LYC     -0.061900
     30 C58        65.1830    4.7340   78.8740 ce        1 LYC     -0.131000
     31 C59        64.5070    5.5280   78.0230 cf        1 LYC     -0.121000
     32 C60        64.5770    5.3670   76.5880 cf        1 LYC     -0.149000
     33 C61        63.9000    6.1240   75.7020 c2        1 LYC     -0.097400
     34 C62        62.9930    7.2250   76.1050 c3        1 LYC     -0.063900
     35 C63        64.0470    5.8950   74.2360 c3        1 LYC     -0.044200
     36 C64        62.8060    5.2510   73.6440 c3        1 LYC     -0.042200
     37 C65        62.9250    5.0610   72.1790 c2        1 LYC     -0.179200
     38 C66        62.0200    4.3940   71.4450 c2        1 LYC     -0.121900
     39 C67        62.1710    4.2290   69.9800 c3        1 LYC     -0.058400
     40 C68        60.8160    3.7740   72.0480 c3        1 LYC     -0.058400
     41 H11A       70.3800   -4.6290  104.0660 hc        1 LYC      0.040700
     42 H12        71.9690   -3.7610  104.1680 hc        1 LYC      0.040700
     43 H13        71.9080   -5.5610  104.3640 hc        1 LYC      0.040700
     44 H31        73.2670   -6.0090  101.4830 hc        1 LYC      0.040700
     45 H32        73.7970   -4.8390  102.7640 hc        1 LYC      0.040700
     46 H33        73.3220   -4.2380  101.1190 hc        1 LYC      0.040700
     47 H4         69.6160   -4.7960  101.8440 ha        1 LYC      0.122000
     48 H51        71.4450   -5.9720   99.8160 hc        1 LYC      0.050700
     49 H52        71.4070   -4.1780   99.6190 hc        1 LYC      0.050700
     50 H61        68.9030   -4.2260   99.4870 hc        1 LYC      0.048700
     51 H62        68.9090   -6.0180   99.7270 hc        1 LYC      0.048700
     52 H81        70.3260   -7.3800   98.3180 hc        1 LYC      0.044367
     53 H82        71.1050   -6.6520   96.8530 hc        1 LYC      0.044367
     54 H83        69.3860   -7.2180   96.7780 hc        1 LYC      0.044367
     55 H9         69.0760   -3.4090   97.3230 ha        1 LYC      0.124000
     56 H10        69.9060   -5.4970   95.1470 ha        1 LYC      0.125000
     57 H11        68.9350   -2.5390   95.0780 ha        1 LYC      0.123000
     58 H131       69.3480   -5.6760   92.8030 hc        1 LYC      0.044700
     59 H132       70.9930   -5.0170   93.1910 hc        1 LYC      0.044700
     60 H133       70.2510   -4.6980   91.5750 hc        1 LYC      0.044700
     61 H14        68.4930   -1.6790   93.0020 ha        1 LYC      0.121000
     62 H15        69.3550   -3.3250   90.4860 ha        1 LYC      0.127000
     63 H16        68.0850   -0.5240   90.9590 ha        1 LYC      0.122000
     64 H181       70.1700   -2.4690   88.5240 hc        1 LYC      0.045367
     65 H182       69.2060   -2.0270   87.0620 hc        1 LYC      0.045367
     66 H183       68.5560   -3.2470   88.2320 hc        1 LYC      0.045367
     67 H19        67.4040    0.5960   89.0880 ha        1 LYC      0.121000
     68 H20        68.1360   -0.5750   86.2810 ha        1 LYC      0.125000
     69 H21        66.7280    2.0100   87.2790 ha        1 LYC      0.125000
     70 H50        67.3870    0.8000   84.4700 ha        1 LYC      0.121000
     71 H521       66.1310    3.7170   86.5070 hc        1 LYC      0.045367
     72 H522       64.7950    3.8710   85.2950 hc        1 LYC      0.045367
     73 H523       66.3440    4.7890   85.0700 hc        1 LYC      0.045367
     74 H53        66.8870    2.0180   82.6030 ha        1 LYC      0.122000
     75 H54        65.2430    4.6180   83.0670 ha        1 LYC      0.127000
     76 H55        66.2130    3.0300   80.5540 ha        1 LYC      0.121000
     77 H571       64.6570    6.1570   81.9830 hc        1 LYC      0.044700
     78 H572       63.3580    5.9500   80.7370 hc        1 LYC      0.044700
     79 H573       64.8180    6.9650   80.3750 hc        1 LYC      0.044700
     80 H58        65.8170    3.9200   78.4780 ha        1 LYC      0.123000
     81 H59        63.8610    6.3420   78.3950 ha        1 LYC      0.125000
     82 H60        65.2400    4.5620   76.2250 ha        1 LYC      0.124000
     83 H621       62.1850    6.8420   76.7770 hc        1 LYC      0.044367
     84 H622       62.5120    7.7010   75.2160 hc        1 LYC      0.044367
     85 H623       63.5620    8.0140   76.6590 hc        1 LYC      0.044367
     86 H631       64.9360    5.2410   74.0280 hc        1 LYC      0.048700
     87 H632       64.2350    6.8800   73.7290 hc        1 LYC      0.048700
     88 H641       61.9080    5.8910   73.8660 hc        1 LYC      0.050700
     89 H642       62.6250    4.2580   74.1410 hc        1 LYC      0.050700
     90 H65        63.8130    5.5080   71.7030 ha        1 LYC      0.122000
     91 H671       63.1170    4.6920   69.6060 hc        1 LYC      0.040700
     92 H672       61.3100    4.7080   69.4500 hc        1 LYC      0.040700
     93 H673       62.1810    3.1420   69.7150 hc        1 LYC      0.040700
     94 H681       60.2640    4.5190   72.6760 hc        1 LYC      0.040700
     95 H682       61.1110    2.9200   72.7090 hc        1 LYC      0.040700
     96 H683       60.1210    3.3890   71.2630 hc        1 LYC      0.040700
@<TRIPOS>BOND
     1    1    2 1   
     2    1   41 1   
     3    1   42 1   
     4    1   43 1   
     5    2    3 1   
     6    2    4 2   
     7    3   44 1   
     8    3   45 1   
     9    3   46 1   
    10    4    5 1   
    11    4   47 1   
    12    5    6 1   
    13    5   48 1   
    14    5   49 1   
    15    6    7 1   
    16    6   50 1   
    17    6   51 1   
    18    7    8 1   
    19    7    9 2   
    20    8   52 1   
    21    8   53 1   
    22    8   54 1   
    23    9   10 1   
    24    9   55 1   
    25   10   11 2   
    26   10   56 1   
    27   11   12 1   
    28   11   57 1   
    29   12   13 1   
    30   12   14 2   
    31   13   58 1   
    32   13   59 1   
    33   13   60 1   
    34   14   15 1   
    35   14   61 1   
    36   15   16 2   
    37   15   62 1   
    38   16   17 1   
    39   16   63 1   
    40   17   18 1   
    41   17   19 2   
    42   18   64 1   
    43   18   65 1   
    44   18   66 1   
    45   19   20 1   
    46   19   67 1   
    47   20   21 2   
    48   20   68 1   
    49   21   22 1   
    50   21   69 1   
    51   22   23 2   
    52   22   70 1   
    53   23   24 1   
    54   23   25 1   
    55   24   71 1   
    56   24   72 1   
    57   24   73 1   
    58   25   26 2   
    59   25   74 1   
    60   26   27 1   
    61   26   75 1   
    62   27   28 2   
    63   27   76 1   
    64   28   29 1   
    65   28   30 1   
    66   29   77 1   
    67   29   78 1   
    68   29   79 1   
    69   30   31 2   
    70   30   80 1   
    71   31   32 1   
    72   31   81 1   
    73   32   33 2   
    74   32   82 1   
    75   33   34 1   
    76   33   35 1   
    77   34   83 1   
    78   34   84 1   
    79   34   85 1   
    80   35   36 1   
    81   35   86 1   
    82   35   87 1   
    83   36   37 1   
    84   36   88 1   
    85   36   89 1   
    86   37   38 2   
    87   37   90 1   
    88   38   39 1   
    89   38   40 1   
    90   39   91 1   
    91   39   92 1   
    92   39   93 1   
    93   40   94 1   
    94   40   95 1   
    95   40   96 1   
@<TRIPOS>SUBSTRUCTURE
     1 LYC         1 TEMP              0 ****  ****    0 ROOT
