@<TRIPOS>MOLECULE
LYC
   96    82     1     0     0
SMALL
bcc


@<TRIPOS>ATOM
      1 C1         -9.7260    3.0390    9.2200 c3        1 LYC     -0.180500
      2 C2         -8.8200    2.8030   10.4100 c2        1 LYC     -0.114000
      3 C3         -9.1760    3.3880   11.7600 c3        1 LYC     -0.180500
      4 C4         -7.6950    2.0710   10.2660 c1        1 LYC     -0.176000
      5 C5         -7.3390    1.4850    8.9150 c2        1 LYC     -0.125000
      6 C6         -5.8440    1.2360    8.8500 c3        1 LYC     -0.129000
      7 C7         -5.5430    0.2620    7.7280 c2        1 LYC     -0.092000
      8 C8         -6.6280   -0.6560    7.2110 c3        1 LYC     -0.185000
      9 C9         -4.3020    0.2130    7.1880 c1        1 LYC     -0.146000
     10 C10        -3.2160    1.1310    7.7050 c1        1 LYC     -0.124833
     11 C11        -1.9370    0.9520    7.3120 c1        1 LYC     -0.124833
     12 C12        -1.5890   -0.1690    6.3530 c1        1 LYC     -0.066500
     13 C13        -1.8430   -1.6080    6.7470 c3        1 LYC     -0.182000
     14 C14        -1.0520    0.1160    5.1480 c1        1 LYC     -0.138000
     15 C15        -0.7980    1.5540    4.7550 c1        1 LYC     -0.124833
     16 C16         0.2310    1.8570    3.9380 c1        1 LYC     -0.124833
     17 C17         1.1320    0.7590    3.4150 c1        1 LYC     -0.066500
     18 C18         1.8960   -0.1170    4.3820 c3        1 LYC     -0.182000
     19 C19         1.2520    0.5610    2.0880 c1        1 LYC     -0.138000
     20 C20         0.4880    1.4360    1.1200 c1        1 LYC     -0.124833
     21 C21         0.9820    1.6710   -0.1110 c1        1 LYC     -0.124833
     22 C50         2.3020    1.0590   -0.5260 c1        1 LYC     -0.137000
     23 C51         3.0440    1.6450   -1.4860 c1        1 LYC     -0.065000
     24 C52         2.5580    2.9150   -2.1490 c2        1 LYC     -0.184000
     25 C53         4.3640    1.0330   -1.9010 c2        1 LYC     -0.127000
     26 C54         4.5440    0.6160   -3.1700 c1        1 LYC     -0.120500
     27 C55         3.4260    0.7590   -4.1800 c1        1 LYC     -0.137000
     28 C56         3.7120    1.0340   -5.4680 c1        1 LYC     -0.065000
     29 C57         5.1510    1.2000   -5.9040 c2        1 LYC     -0.184000
     30 C58         2.5950    1.1780   -6.4770 c2        1 LYC     -0.127000
     31 C59         2.5860    0.4110   -7.5850 c1        1 LYC     -0.120500
     32 C60         3.6930   -0.5920   -7.8210 c1        1 LYC     -0.149000
     33 C61         3.9100   -1.0790   -9.0590 c1        1 LYC     -0.091000
     34 C62         3.0450   -0.6230  -10.2130 c2        1 LYC     -0.184000
     35 C63         5.0170   -2.0830   -9.2940 c3        1 LYC     -0.126000
     36 C64         4.4930   -3.2250  -10.1360 c3        1 LYC     -0.125000
     37 C65         5.6560   -4.0250  -10.6820 c2        1 LYC     -0.175000
     38 C66         5.4290   -5.1690  -11.3570 c1        1 LYC     -0.114000
     39 C67         4.0110   -5.6530  -11.5700 c2        1 LYC     -0.184000
     40 C68         6.5920   -5.9680  -11.9040 c3        1 LYC     -0.179000
     41 H11A      -10.5230    3.5320    9.5090 hc        1 LYC      0.080000
     42 H12        -9.9950    2.1770    8.8380 hc        1 LYC      0.080000
     43 H13        -9.2470    3.5610    8.5430 hc        1 LYC      0.080000
     44 H31        -9.2720    2.6640   12.4150 hc        1 LYC      0.080000
     45 H32       -10.0220    3.8800   11.6900 hc        1 LYC      0.080000
     46 H33        -8.4660    3.9980   12.0490 hc        1 LYC      0.080000
     47 H4         -7.1110    1.9190   11.0330 ha        1 LYC      0.122000
     48 H51        -7.5950    2.1120    8.2110 ha        1 LYC      0.090000
     49 H52        -7.8160    0.6410    8.7900 ha        1 LYC      0.090000
     50 H61        -5.5390    0.8590    9.6990 hc        1 LYC      0.087500
     51 H62        -5.3800    2.0790    8.6830 hc        1 LYC      0.087500
     52 H81        -7.2470   -0.1450    6.6490 hc        1 LYC      0.082333
     53 H82        -6.2240   -1.3750    6.6820 hc        1 LYC      0.082333
     54 H83        -7.1170   -1.0430    7.9680 hc        1 LYC      0.082333
     55 H9         -4.1090   -0.4140    6.4660 ha        1 LYC      0.129000
     56 H10        -3.4400    1.8530    8.3230 ha        1 LYC      0.125667
     57 H11        -1.2360    1.5440    7.6450 ha        1 LYC      0.125667
     58 H131       -2.1440   -1.6430    7.6780 hc        1 LYC      0.084833
     59 H132       -2.5340   -1.9880    6.1650 hc        1 LYC      0.084833
     60 H133       -1.0150   -2.1240    6.6510 hc        1 LYC      0.084833
     61 H14        -0.8280   -0.6060    4.5310 ha        1 LYC      0.127500
     62 H15        -1.3790    2.2610    5.0920 ha        1 LYC      0.125667
     63 H16         0.3950    2.7860    3.6830 ha        1 LYC      0.125667
     64 H181        1.5860   -1.0430    4.3000 hc        1 LYC      0.084833
     65 H182        2.8530   -0.0740    4.1760 hc        1 LYC      0.084833
     66 H183        1.7450    0.1980    5.2980 hc        1 LYC      0.084833
     67 H19         1.8330   -0.1470    1.7500 ha        1 LYC      0.127500
     68 H20        -0.3640    1.8320    1.3880 ha        1 LYC      0.125667
     69 H21         0.4890    2.2370   -0.7360 ha        1 LYC      0.125667
     70 H50         2.6160    0.2400   -0.0990 ha        1 LYC      0.127500
     71 H521        2.3340    3.5770   -1.4620 ha        1 LYC      0.083333
     72 H522        3.2630    3.2710   -2.7290 ha        1 LYC      0.083333
     73 H523        1.7610    2.7190   -2.6850 ha        1 LYC      0.083333
     74 H53         5.0850    0.9410   -1.2500 ha        1 LYC      0.124500
     75 H54         5.3960    0.2210   -3.4370 ha        1 LYC      0.121500
     76 H55         2.4970    0.6520   -3.8980 ha        1 LYC      0.127500
     77 H571        5.6440    0.3730   -5.7240 ha        1 LYC      0.083333
     78 H572        5.1800    1.3970   -6.8640 ha        1 LYC      0.083333
     79 H573        5.5600    1.9390   -5.4060 ha        1 LYC      0.083333
     80 H58         1.8800    1.8250   -6.3250 ha        1 LYC      0.124500
     81 H59         1.8640    0.5040   -8.2370 ha        1 LYC      0.121500
     82 H60         4.2510   -0.8860   -7.0760 ha        1 LYC      0.129000
     83 H621        3.4640   -0.8860  -11.0590 ha        1 LYC      0.083333
     84 H622        2.9500    0.3530  -10.1850 ha        1 LYC      0.083333
     85 H623        2.1600   -1.0390  -10.1430 ha        1 LYC      0.083333
     86 H631        5.3320   -2.4290   -8.4340 hc        1 LYC      0.087000
     87 H632        5.7580   -1.6470   -9.7610 hc        1 LYC      0.087000
     88 H641        3.9660   -2.8680  -10.8780 hc        1 LYC      0.090500
     89 H642        3.9290   -3.8040   -9.5850 hc        1 LYC      0.090500
     90 H65         6.5700   -3.7120  -10.5450 ha        1 LYC      0.122000
     91 H671        4.0190   -6.4360  -12.1590 ha        1 LYC      0.083333
     92 H672        3.4800   -4.9400  -11.9810 ha        1 LYC      0.083333
     93 H673        3.6170   -5.8980  -10.7060 ha        1 LYC      0.083333
     94 H681        6.8240   -5.6380  -12.7970 hc        1 LYC      0.079667
     95 H682        6.3400   -6.9140  -11.9600 hc        1 LYC      0.079667
     96 H683        7.3640   -5.8700  -11.3080 hc        1 LYC      0.079667
@<TRIPOS>BOND
     1    1    2 1   
     2    1   41 1   
     3    1   42 1   
     4    1   43 1   
     5    2    3 1   
     6    2    4 1   
     7    3   44 1   
     8    3   45 1   
     9    3   46 1   
    10    4   47 1   
    11    5    6 1   
    12    5   48 1   
    13    5   49 1   
    14    6    7 1   
    15    6   50 1   
    16    6   51 1   
    17    7    8 1   
    18    7    9 1   
    19    8   52 1   
    20    8   53 1   
    21    8   54 1   
    22    9   55 1   
    23   10   11 1   
    24   10   56 1   
    25   11   57 1   
    26   12   13 1   
    27   12   14 1   
    28   13   58 1   
    29   13   59 1   
    30   13   60 1   
    31   14   61 1   
    32   15   16 1   
    33   15   62 1   
    34   16   63 1   
    35   17   18 1   
    36   17   19 1   
    37   18   64 1   
    38   18   65 1   
    39   18   66 1   
    40   19   67 1   
    41   20   21 1   
    42   20   68 1   
    43   21   69 1   
    44   22   23 1   
    45   22   70 1   
    46   23   25 1   
    47   24   71 1   
    48   24   72 1   
    49   24   73 1   
    50   25   26 1   
    51   25   74 1   
    52   26   75 1   
    53   27   28 1   
    54   27   76 1   
    55   28   30 1   
    56   29   77 1   
    57   29   78 1   
    58   29   79 1   
    59   30   31 1   
    60   30   80 1   
    61   31   81 1   
    62   32   33 1   
    63   32   82 1   
    64   33   35 1   
    65   34   83 1   
    66   34   84 1   
    67   34   85 1   
    68   35   36 1   
    69   35   86 1   
    70   35   87 1   
    71   36   37 1   
    72   36   88 1   
    73   36   89 1   
    74   37   38 1   
    75   37   90 1   
    76   38   40 1   
    77   39   91 1   
    78   39   92 1   
    79   39   93 1   
    80   40   94 1   
    81   40   95 1   
    82   40   96 1   
@<TRIPOS>SUBSTRUCTURE
     1 LYC         1 TEMP              0 ****  ****    0 ROOT
