@<TRIPOS>MOLECULE
LYC
   96    95     1     0     0
SMALL
bcc


@<TRIPOS>ATOM
      1 C1          4.4990    2.7100   -1.5720 c3        1 LYC     -0.058400
      2 C2          3.0200    2.7030   -1.6700 c2        1 LYC     -0.121900
      3 C3          2.2850    2.5300   -0.3950 c3        1 LYC     -0.058400
      4 C4          2.3800    2.8500   -2.8420 c2        1 LYC     -0.179700
      5 C5          3.0800    3.0210   -4.1360 c3        1 LYC     -0.042200
      6 C6          2.1160    3.3230   -5.2690 c3        1 LYC     -0.044200
      7 C7          2.8280    3.4670   -6.5710 c2        1 LYC     -0.098900
      8 C8          2.7970    2.2630   -7.4380 c3        1 LYC     -0.062900
      9 C9          3.4580    4.5890   -6.9670 ce        1 LYC     -0.147500
     10 C10         3.5440    5.8110   -6.1990 ce        1 LYC     -0.121000
     11 C11         4.2300    6.9070   -6.5590 cf        1 LYC     -0.130000
     12 C12         5.0450    7.0750   -7.7570 cf        1 LYC     -0.067200
     13 C13         6.0980    6.0640   -8.0180 c3        1 LYC     -0.062400
     14 C14         4.8460    8.1460   -8.5560 ce        1 LYC     -0.136500
     15 C15         5.6100    8.4280   -9.7500 ce        1 LYC     -0.121500
     16 C16         5.3330    9.4030  -10.6280 cf        1 LYC     -0.126500
     17 C17         4.1980   10.3190  -10.5690 cf        1 LYC     -0.071200
     18 C18         2.8620    9.7130  -10.7970 c3        1 LYC     -0.061900
     19 C19         4.3400   11.6470  -10.3730 ce        1 LYC     -0.135500
     20 C20         5.6100   12.2990  -10.1630 ce        1 LYC     -0.123000
     21 C21         5.7980   13.6090   -9.9160 cf        1 LYC     -0.123000
     22 C50         4.7650   14.6080   -9.8040 cf        1 LYC     -0.135500
     23 C51         4.9970   15.9280   -9.6230 ce        1 LYC     -0.071200
     24 C52         6.3630   16.4910   -9.4930 c3        1 LYC     -0.061900
     25 C53         3.8690   16.8450   -9.5100 ce        1 LYC     -0.126500
     26 C54         3.7280   18.0330  -10.1210 cf        1 LYC     -0.121500
     27 C55         4.6630   18.6020  -11.0630 cf        1 LYC     -0.136500
     28 C56         4.6910   19.8910  -11.4710 ce        1 LYC     -0.067200
     29 C57         3.7750   20.9390  -10.9580 c3        1 LYC     -0.062400
     30 C58         5.6700   20.2960  -12.4690 ce        1 LYC     -0.130000
     31 C59         5.7120   21.5040  -13.0600 cf        1 LYC     -0.121000
     32 C60         6.7050   21.8500  -14.0510 cf        1 LYC     -0.147500
     33 C61         6.7710   23.0390  -14.6830 c2        1 LYC     -0.098900
     34 C62         5.8160   24.1440  -14.4270 c3        1 LYC     -0.062900
     35 C63         7.8420   23.3120  -15.6830 c3        1 LYC     -0.044200
     36 C64         7.2950   23.3280  -17.0990 c3        1 LYC     -0.042200
     37 C65         8.3440   23.6450  -18.0950 c2        1 LYC     -0.179700
     38 C66         8.1440   23.5880  -19.4220 c2        1 LYC     -0.121900
     39 C67         9.2180   23.9170  -20.3890 c3        1 LYC     -0.058400
     40 C68         6.8420   23.1880  -20.0080 c3        1 LYC     -0.058400
     41 H11A        4.8980    3.7260   -1.8210 hc        1 LYC      0.040783
     42 H12         4.8400    2.4400   -0.5430 hc        1 LYC      0.040783
     43 H13         4.9430    1.9800   -2.2950 hc        1 LYC      0.040783
     44 H31         2.5720    3.3350    0.3270 hc        1 LYC      0.040783
     45 H32         2.5430    1.5430    0.0650 hc        1 LYC      0.040783
     46 H33         1.1780    2.5690   -0.5450 hc        1 LYC      0.040783
     47 H4          1.2790    2.8440   -2.8820 ha        1 LYC      0.122000
     48 H51         3.8320    3.8530   -4.0550 hc        1 LYC      0.050950
     49 H52         3.6560    2.0850   -4.3760 hc        1 LYC      0.050950
     50 H61         1.3610    2.4940   -5.3430 hc        1 LYC      0.048200
     51 H62         1.5460    4.2620   -5.0350 hc        1 LYC      0.048200
     52 H81         1.7460    2.0440   -7.7520 hc        1 LYC      0.043367
     53 H82         3.4180    2.3960   -8.3570 hc        1 LYC      0.043367
     54 H83         3.1840    1.3770   -6.8730 hc        1 LYC      0.043367
     55 H9          3.9520    4.6120   -7.9560 ha        1 LYC      0.125500
     56 H10         2.9830    5.8270   -5.2470 ha        1 LYC      0.125000
     57 H11         4.1900    7.8020   -5.9110 ha        1 LYC      0.125000
     58 H131        6.0970    5.2680   -7.2340 hc        1 LYC      0.045033
     59 H132        7.1070    6.5490   -8.0240 hc        1 LYC      0.045033
     60 H133        5.9390    5.5780   -9.0140 hc        1 LYC      0.045033
     61 H14         4.0550    8.8760   -8.3060 ha        1 LYC      0.130000
     62 H15         6.4930    7.7850   -9.9240 ha        1 LYC      0.122500
     63 H16         5.9970    9.5600  -11.4980 ha        1 LYC      0.126500
     64 H181        2.7890    9.3450  -11.8520 hc        1 LYC      0.046367
     65 H182        2.7100    8.8400  -10.1140 hc        1 LYC      0.046367
     66 H183        2.0410   10.4500  -10.6230 hc        1 LYC      0.046367
     67 H19         3.4420   12.2890  -10.3670 ha        1 LYC      0.125000
     68 H20         6.4960   11.6390  -10.2150 ha        1 LYC      0.123000
     69 H21         6.8340   13.9740   -9.7830 ha        1 LYC      0.123000
     70 H50         3.7220   14.2530   -9.8790 ha        1 LYC      0.125000
     71 H521        6.9050   16.0000   -8.6460 hc        1 LYC      0.046367
     72 H522        6.3310   17.5910   -9.2980 hc        1 LYC      0.046367
     73 H523        6.9500   16.3170  -10.4300 hc        1 LYC      0.046367
     74 H53         3.0580   16.4870   -8.8480 ha        1 LYC      0.126500
     75 H54         2.8130   18.6190   -9.9220 ha        1 LYC      0.122500
     76 H55         5.3990   17.8890  -11.4820 ha        1 LYC      0.130000
     77 H571        3.1960   20.5940  -10.0670 hc        1 LYC      0.045033
     78 H572        4.3570   21.8460  -10.6570 hc        1 LYC      0.045033
     79 H573        3.0490   21.2360  -11.7570 hc        1 LYC      0.045033
     80 H58         6.4140   19.5250  -12.7420 ha        1 LYC      0.125000
     81 H59         4.9740   22.2860  -12.8090 ha        1 LYC      0.125000
     82 H60         7.4470   21.0660  -14.2850 ha        1 LYC      0.125500
     83 H621        6.0330   25.0270  -15.0770 hc        1 LYC      0.043367
     84 H622        5.8790   24.4720  -13.3580 hc        1 LYC      0.043367
     85 H623        4.7670   23.8120  -14.6270 hc        1 LYC      0.043367
     86 H631        8.6530   22.5390  -15.6110 hc        1 LYC      0.048200
     87 H632        8.3120   24.3070  -15.4520 hc        1 LYC      0.048200
     88 H641        6.8370   22.3290  -17.3350 hc        1 LYC      0.050950
     89 H642        6.4670   24.0880  -17.1730 hc        1 LYC      0.050950
     90 H65         9.3250   23.9420  -17.6900 ha        1 LYC      0.122000
     91 H671        8.9110   24.7890  -21.0200 hc        1 LYC      0.040783
     92 H672       10.1750   24.1750  -19.8730 hc        1 LYC      0.040783
     93 H673        9.4050   23.0460  -21.0660 hc        1 LYC      0.040783
     94 H681        6.0110   23.7900  -19.5620 hc        1 LYC      0.040783
     95 H682        6.8320   23.3360  -21.1150 hc        1 LYC      0.040783
     96 H683        6.6380   22.1080  -19.7940 hc        1 LYC      0.040783
@<TRIPOS>BOND
     1    1    2 1   
     2    1   41 1   
     3    1   42 1   
     4    1   43 1   
     5    2    3 1   
     6    2    4 2   
     7    3   44 1   
     8    3   45 1   
     9    3   46 1   
    10    4    5 1   
    11    4   47 1   
    12    5    6 1   
    13    5   48 1   
    14    5   49 1   
    15    6    7 1   
    16    6   50 1   
    17    6   51 1   
    18    7    8 1   
    19    7    9 2   
    20    8   52 1   
    21    8   53 1   
    22    8   54 1   
    23    9   10 1   
    24    9   55 1   
    25   10   11 2   
    26   10   56 1   
    27   11   12 1   
    28   11   57 1   
    29   12   13 1   
    30   12   14 2   
    31   13   58 1   
    32   13   59 1   
    33   13   60 1   
    34   14   15 1   
    35   14   61 1   
    36   15   16 2   
    37   15   62 1   
    38   16   17 1   
    39   16   63 1   
    40   17   18 1   
    41   17   19 2   
    42   18   64 1   
    43   18   65 1   
    44   18   66 1   
    45   19   20 1   
    46   19   67 1   
    47   20   21 2   
    48   20   68 1   
    49   21   22 1   
    50   21   69 1   
    51   22   23 2   
    52   22   70 1   
    53   23   24 1   
    54   23   25 1   
    55   24   71 1   
    56   24   72 1   
    57   24   73 1   
    58   25   26 2   
    59   25   74 1   
    60   26   27 1   
    61   26   75 1   
    62   27   28 2   
    63   27   76 1   
    64   28   29 1   
    65   28   30 1   
    66   29   77 1   
    67   29   78 1   
    68   29   79 1   
    69   30   31 2   
    70   30   80 1   
    71   31   32 1   
    72   31   81 1   
    73   32   33 2   
    74   32   82 1   
    75   33   34 1   
    76   33   35 1   
    77   34   83 1   
    78   34   84 1   
    79   34   85 1   
    80   35   36 1   
    81   35   86 1   
    82   35   87 1   
    83   36   37 1   
    84   36   88 1   
    85   36   89 1   
    86   37   38 2   
    87   37   90 1   
    88   38   39 1   
    89   38   40 1   
    90   39   91 1   
    91   39   92 1   
    92   39   93 1   
    93   40   94 1   
    94   40   95 1   
    95   40   96 1   
@<TRIPOS>SUBSTRUCTURE
     1 LYC         1 TEMP              0 ****  ****    0 ROOT
