@<TRIPOS>MOLECULE
LYC
   96    95     1     0     0
SMALL
bcc


@<TRIPOS>ATOM
      1 C1          4.1600    2.2680   -1.7400 c3        1 LYC     -0.058150
      2 C2          2.7120    2.5720   -1.8320 c2        1 LYC     -0.123400
      3 C3          1.9320    2.4060   -0.5820 c3        1 LYC     -0.058150
      4 C4          2.1370    2.9710   -2.9780 c2        1 LYC     -0.177700
      5 C5          2.8850    3.1520   -4.2430 c3        1 LYC     -0.041200
      6 C6          1.9690    3.5070   -5.4010 c3        1 LYC     -0.044700
      7 C7          2.7270    3.6510   -6.6760 c2        1 LYC     -0.096900
      8 C8          2.6880    2.4640   -7.5660 c3        1 LYC     -0.062400
      9 C9          3.4050    4.7590   -7.0310 ce        1 LYC     -0.149000
     10 C10         3.5040    5.9640   -6.2390 ce        1 LYC     -0.120500
     11 C11         4.2320    7.0450   -6.5580 cf        1 LYC     -0.130500
     12 C12         5.0880    7.2090   -7.7290 cf        1 LYC     -0.067200
     13 C13         6.1200    6.1720   -7.9740 c3        1 LYC     -0.062400
     14 C14         4.9440    8.2970   -8.5150 ce        1 LYC     -0.137000
     15 C15         5.7510    8.5740   -9.6810 ce        1 LYC     -0.121000
     16 C16         5.5250    9.5670  -10.5550 cf        1 LYC     -0.127000
     17 C17         4.4110   10.5090  -10.5210 cf        1 LYC     -0.070700
     18 C18         3.0670    9.9370  -10.7930 c3        1 LYC     -0.061900
     19 C19         4.5790   11.8310  -10.3090 ce        1 LYC     -0.135500
     20 C20         5.8570   12.4510  -10.0570 ce        1 LYC     -0.123000
     21 C21         6.0710   13.7560   -9.8040 cf        1 LYC     -0.123000
     22 C50         5.0590   14.7810   -9.7250 cf        1 LYC     -0.135500
     23 C51         5.3190   16.0980   -9.5580 ce        1 LYC     -0.070700
     24 C52         6.6970   16.6300   -9.4110 c3        1 LYC     -0.061900
     25 C53         4.2130   17.0430   -9.4770 ce        1 LYC     -0.127000
     26 C54         4.1080   18.2210  -10.1150 cf        1 LYC     -0.121000
     27 C55         5.0680   18.7460  -11.0560 cf        1 LYC     -0.137000
     28 C56         5.1270   20.0230  -11.4990 ce        1 LYC     -0.067200
     29 C57         4.2220   21.1010  -11.0300 c3        1 LYC     -0.062400
     30 C58         6.1290   20.3820  -12.4910 ce        1 LYC     -0.130500
     31 C59         6.1990   21.5700  -13.1180 cf        1 LYC     -0.120500
     32 C60         7.2140   21.8700  -14.1020 cf        1 LYC     -0.149000
     33 C61         7.3180   23.0410  -14.7630 c2        1 LYC     -0.096900
     34 C62         6.3860   24.1720  -14.5450 c3        1 LYC     -0.062400
     35 C63         8.4100   23.2450  -15.7600 c3        1 LYC     -0.044700
     36 C64         8.1020   22.6090  -17.1050 c3        1 LYC     -0.041200
     37 C65         7.0250   23.3070  -17.8440 c2        1 LYC     -0.177700
     38 C66         6.7930   23.1430  -19.1560 c2        1 LYC     -0.123400
     39 C67         7.6170   22.2460  -20.0020 c3        1 LYC     -0.058150
     40 C68         5.6940   23.8560  -19.8500 c3        1 LYC     -0.058150
     41 H11A        4.7660    3.1320   -2.1150 hc        1 LYC      0.040450
     42 H12         4.4650    2.0530   -0.6870 hc        1 LYC      0.040450
     43 H13         4.4090    1.3770   -2.3690 hc        1 LYC      0.040450
     44 H31         2.3230    3.0940    0.2080 hc        1 LYC      0.040450
     45 H32         2.0280    1.3560   -0.2070 hc        1 LYC      0.040450
     46 H33         0.8480    2.6270   -0.7380 hc        1 LYC      0.040450
     47 H4          1.0570    3.1870   -3.0160 ha        1 LYC      0.123500
     48 H51         3.6530    3.9650   -4.1150 hc        1 LYC      0.050450
     49 H52         3.4480    2.2100   -4.4880 hc        1 LYC      0.050450
     50 H61         1.1900    2.7050   -5.5150 hc        1 LYC      0.047950
     51 H62         1.4220    4.4600   -5.1670 hc        1 LYC      0.047950
     52 H81         1.6410    2.2840   -7.9170 hc        1 LYC      0.043200
     53 H82         3.3420    2.5930   -8.4620 hc        1 LYC      0.043200
     54 H83         3.0280    1.5560   -7.0060 hc        1 LYC      0.043200
     55 H9          3.9310    4.7840   -8.0040 ha        1 LYC      0.125000
     56 H10         2.9140    5.9800   -5.3040 ha        1 LYC      0.124000
     57 H11         4.2000    7.9290   -5.8950 ha        1 LYC      0.124500
     58 H131        6.0720    5.3630   -7.2040 hc        1 LYC      0.045033
     59 H132        7.1420    6.6280   -7.9390 hc        1 LYC      0.045033
     60 H133        5.9800    5.7080   -8.9820 hc        1 LYC      0.045033
     61 H14         4.1650    9.0450   -8.2770 ha        1 LYC      0.130000
     62 H15         6.6230    7.9120   -9.8350 ha        1 LYC      0.122500
     63 H16         6.2200    9.7170  -11.4010 ha        1 LYC      0.126500
     64 H181        2.8760    9.0610  -10.1240 hc        1 LYC      0.046200
     65 H182        2.2600   10.6920  -10.6320 hc        1 LYC      0.046200
     66 H183        3.0150    9.5840  -11.8530 hc        1 LYC      0.046200
     67 H19         3.6970   12.4950  -10.3240 ha        1 LYC      0.125000
     68 H20         6.7280   11.7690  -10.0810 ha        1 LYC      0.122500
     69 H21         7.1100   14.0950   -9.6380 ha        1 LYC      0.122500
     70 H50         4.0100   14.4500   -9.8140 ha        1 LYC      0.125000
     71 H521        7.2090   16.1440   -8.5430 hc        1 LYC      0.046200
     72 H522        6.6870   17.7340   -9.2390 hc        1 LYC      0.046200
     73 H523        7.2980   16.4220  -10.3320 hc        1 LYC      0.046200
     74 H53         3.3860   16.7180   -8.8180 ha        1 LYC      0.126500
     75 H54         3.2050   18.8320   -9.9400 ha        1 LYC      0.122500
     76 H55         5.7970   18.0090  -11.4430 ha        1 LYC      0.130000
     77 H571        3.6270   20.7940  -10.1370 hc        1 LYC      0.045033
     78 H572        4.8150   22.0080  -10.7500 hc        1 LYC      0.045033
     79 H573        3.5110   21.3850  -11.8470 hc        1 LYC      0.045033
     80 H58         6.8650   19.5920  -12.7270 ha        1 LYC      0.124500
     81 H59         5.4700   22.3700  -12.9040 ha        1 LYC      0.124000
     82 H60         7.9400   21.0640  -14.3100 ha        1 LYC      0.125000
     83 H621        6.6710   25.0650  -15.1540 hc        1 LYC      0.043200
     84 H622        6.3810   24.4730  -13.4670 hc        1 LYC      0.043200
     85 H623        5.3440   23.8760  -14.8280 hc        1 LYC      0.043200
     86 H631        9.3600   22.7910  -15.3650 hc        1 LYC      0.047950
     87 H632        8.6020   24.3410  -15.9030 hc        1 LYC      0.047950
     88 H641        9.0420   22.6040  -17.7230 hc        1 LYC      0.050450
     89 H642        7.8060   21.5350  -16.9500 hc        1 LYC      0.050450
     90 H65         6.3920   23.9800  -17.2410 ha        1 LYC      0.123500
     91 H671        7.1480   22.0900  -21.0040 hc        1 LYC      0.040450
     92 H672        8.6350   22.6870  -20.1540 hc        1 LYC      0.040450
     93 H673        7.7430   21.2480  -19.5110 hc        1 LYC      0.040450
     94 H681        5.1520   24.5500  -19.1620 hc        1 LYC      0.040450
     95 H682        6.1020   24.4510  -20.7050 hc        1 LYC      0.040450
     96 H683        4.9570   23.1190  -20.2580 hc        1 LYC      0.040450
@<TRIPOS>BOND
     1    1    2 1   
     2    1   41 1   
     3    1   42 1   
     4    1   43 1   
     5    2    3 1   
     6    2    4 2   
     7    3   44 1   
     8    3   45 1   
     9    3   46 1   
    10    4    5 1   
    11    4   47 1   
    12    5    6 1   
    13    5   48 1   
    14    5   49 1   
    15    6    7 1   
    16    6   50 1   
    17    6   51 1   
    18    7    8 1   
    19    7    9 2   
    20    8   52 1   
    21    8   53 1   
    22    8   54 1   
    23    9   10 1   
    24    9   55 1   
    25   10   11 2   
    26   10   56 1   
    27   11   12 1   
    28   11   57 1   
    29   12   13 1   
    30   12   14 2   
    31   13   58 1   
    32   13   59 1   
    33   13   60 1   
    34   14   15 1   
    35   14   61 1   
    36   15   16 2   
    37   15   62 1   
    38   16   17 1   
    39   16   63 1   
    40   17   18 1   
    41   17   19 2   
    42   18   64 1   
    43   18   65 1   
    44   18   66 1   
    45   19   20 1   
    46   19   67 1   
    47   20   21 2   
    48   20   68 1   
    49   21   22 1   
    50   21   69 1   
    51   22   23 2   
    52   22   70 1   
    53   23   24 1   
    54   23   25 1   
    55   24   71 1   
    56   24   72 1   
    57   24   73 1   
    58   25   26 2   
    59   25   74 1   
    60   26   27 1   
    61   26   75 1   
    62   27   28 2   
    63   27   76 1   
    64   28   29 1   
    65   28   30 1   
    66   29   77 1   
    67   29   78 1   
    68   29   79 1   
    69   30   31 2   
    70   30   80 1   
    71   31   32 1   
    72   31   81 1   
    73   32   33 2   
    74   32   82 1   
    75   33   34 1   
    76   33   35 1   
    77   34   83 1   
    78   34   84 1   
    79   34   85 1   
    80   35   36 1   
    81   35   86 1   
    82   35   87 1   
    83   36   37 1   
    84   36   88 1   
    85   36   89 1   
    86   37   38 2   
    87   37   90 1   
    88   38   39 1   
    89   38   40 1   
    90   39   91 1   
    91   39   92 1   
    92   39   93 1   
    93   40   94 1   
    94   40   95 1   
    95   40   96 1   
@<TRIPOS>SUBSTRUCTURE
     1 LYC         1 TEMP              0 ****  ****    0 ROOT
