@<TRIPOS>MOLECULE
LYD
   51    53     1     0     0
SMALL
bcc


@<TRIPOS>ATOM
      1 C5'         0.2720   -0.8850    0.2940 ca        1 LYD     -0.142500
      2 C4'        -0.9800   -0.9130   -0.3300 ca        1 LYD     -0.083300
      3 C3'        -2.1360   -0.8950    0.4590 ca        1 LYD     -0.142500
      4 C2'        -2.0420   -0.8470    1.8470 ca        1 LYD     -0.093500
      5 C1'        -0.7870   -0.8060    2.4670 ca        1 LYD     -0.120600
      6 C6'         0.3700   -0.8280    1.6840 ca        1 LYD     -0.093500
      7 C9         -0.7430   -0.7660    3.9670 c         1 LYD      0.651700
      8 O9         -1.5920   -1.4180    4.6240 o         1 LYD     -0.654100
      9 N           0.2530   -0.0320    4.5450 n         1 LYD     -0.511900
     10 CA          0.3160    0.2670    5.9610 c3        1 LYD     -0.038300
     11 CB          1.2790   -0.6550    6.7410 c3        1 LYD     -0.058700
     12 CG1         1.0390   -0.4760    8.2270 c3        1 LYD     -0.091600
     13 CG2         1.1220   -2.1140    6.3660 c3        1 LYD     -0.091600
     14 C8         -1.0850   -0.9840   -1.8130 c3        1 LYD     -0.026100
     15 C7         -0.4300    0.2130   -2.4860 c3        1 LYD     -0.025100
     16 C5         -0.7690    0.2950   -3.9150 cc        1 LYD     -0.048300
     17 C           0.7850    1.7570    6.1760 c         1 LYD      0.910600
     18 OX1         0.3250    2.3560    7.1830 o         1 LYD     -0.830300
     19 OX2         1.5820    2.2560    5.3330 o         1 LYD     -0.830300
     20 C6         -2.0450    0.4780   -4.4670 cd        1 LYD     -0.170300
     21 N7         -1.9610    0.5300   -5.8640 na        1 LYD     -0.165100
     22 C7A        -0.6250    0.3840   -6.2240 cd        1 LYD      0.179100
     23 C4A         0.1440    0.2330   -5.0210 cc        1 LYD     -0.266600
     24 C4          1.5700    0.0520   -5.1210 c         1 LYD      0.752100
     25 O4          2.3930   -0.1020   -4.2030 o         1 LYD     -0.623500
     26 N3          2.0780    0.0630   -6.4500 n         1 LYD     -0.506400
     27 C2          1.2370    0.2000   -7.5720 cc        1 LYD      0.660800
     28 N1         -0.0970    0.3910   -7.5100 nd        1 LYD     -0.678100
     29 N2          1.8470    0.0710   -8.8520 nh        1 LYD     -0.883800
     30 H5'         1.1860   -0.9040   -0.3180 ha        1 LYD      0.126500
     31 H3'        -3.1260   -0.9220   -0.0190 ha        1 LYD      0.126500
     32 H2'        -2.9470   -0.8500    2.4740 ha        1 LYD      0.148500
     33 H6'         1.3650   -0.8050    2.1560 ha        1 LYD      0.148500
     34 HN          0.8120    0.5710    3.9760 hn        1 LYD      0.330500
     35 HCA        -0.7160    0.1490    6.4000 h1        1 LYD      0.065700
     36 HCB         2.3310   -0.3300    6.5040 hc        1 LYD      0.047700
     37 HG11        1.8480   -0.9770    8.8110 hc        1 LYD      0.028700
     38 HG12        1.0200    0.6140    8.4820 hc        1 LYD      0.028700
     39 HG13        0.0610   -0.9260    8.5210 hc        1 LYD      0.028700
     40 HG21        0.0390   -2.3850    6.3100 hc        1 LYD      0.028700
     41 HG22        1.5860   -2.3210    5.3720 hc        1 LYD      0.028700
     42 HG23        1.6180   -2.7670    7.1240 hc        1 LYD      0.028700
     43 HC81       -0.5920   -1.9270   -2.1740 hc        1 LYD      0.043700
     44 HC82       -2.1650   -1.0360   -2.1190 hc        1 LYD      0.043700
     45 HC71       -0.7630    1.1570   -1.9740 hc        1 LYD      0.071200
     46 HC72        0.6870    0.1440   -2.3710 hc        1 LYD      0.071200
     47 HC6        -3.0080    0.5780   -3.9650 h4        1 LYD      0.175000
     48 HN7        -2.7130    0.6560   -6.4880 hn        1 LYD      0.304700
     49 HN3         3.0480   -0.1240   -6.5710 hn        1 LYD      0.331500
     50 HN21        1.2260    0.2630   -9.6100 hn        1 LYD      0.406800
     51 HN22        2.7180    0.5500   -8.9350 hn        1 LYD      0.406800
@<TRIPOS>BOND
     1    1    2 ar  
     2    1    6 ar  
     3    1   30 1   
     4    2    3 ar  
     5    2   14 1   
     6    3    4 ar  
     7    3   31 1   
     8    4    5 ar  
     9    4   32 1   
    10    5    6 ar  
    11    5    7 1   
    12    6   33 1   
    13    7    8 2   
    14    7    9 1   
    15    9   10 1   
    16    9   34 1   
    17   10   11 1   
    18   10   17 1   
    19   10   35 1   
    20   11   12 1   
    21   11   13 1   
    22   11   36 1   
    23   12   37 1   
    24   12   38 1   
    25   12   39 1   
    26   13   40 1   
    27   13   41 1   
    28   13   42 1   
    29   14   15 1   
    30   14   43 1   
    31   14   44 1   
    32   15   16 1   
    33   15   45 1   
    34   15   46 1   
    35   16   20 2   
    36   16   23 1   
    37   17   18 1   
    38   17   19 1   
    39   20   21 1   
    40   20   47 1   
    41   21   22 1   
    42   21   48 1   
    43   22   23 2   
    44   22   28 1   
    45   23   24 1   
    46   24   25 2   
    47   24   26 1   
    48   26   27 1   
    49   26   49 1   
    50   27   28 2   
    51   27   29 1   
    52   29   50 1   
    53   29   51 1   
@<TRIPOS>SUBSTRUCTURE
     1 LYD         1 TEMP              0 ****  ****    0 ROOT
