@<TRIPOS>MOLECULE
LYD
   53    55     1     0     0
SMALL
bcc


@<TRIPOS>ATOM
      1 C5'         0.1980    0.9740   -0.2400 ca        1 LYD     -0.138500
      2 C4'         1.5700    1.0510    0.0250 ca        1 LYD     -0.036300
      3 C3'         2.0070    1.5750    1.2480 ca        1 LYD     -0.138500
      4 C2'         1.0830    1.9760    2.2080 ca        1 LYD     -0.060000
      5 C1'        -0.2950    1.8510    1.9550 ca        1 LYD     -0.185600
      6 C6'        -0.7350    1.3710    0.7150 ca        1 LYD     -0.060000
      7 C9         -1.2070    2.2440    3.0360 c         1 LYD      0.571700
      8 O9         -0.9250    2.9760    3.9860 o         1 LYD     -0.481100
      9 N          -2.6040    1.7230    3.0310 n4        1 LYD     -0.663800
     10 CA         -2.6860    0.2280    3.2150 c3        1 LYD     -0.033500
     11 CB         -3.6800   -0.1830    4.3070 c3        1 LYD     -0.068700
     12 CG1        -3.4690   -1.6540    4.6210 c3        1 LYD     -0.108100
     13 CG2        -3.5460    0.6290    5.5800 c3        1 LYD     -0.108100
     14 C8          2.5370    0.5500   -0.9910 c3        1 LYD     -0.037100
     15 C7          2.6560   -0.9670   -0.8990 c3        1 LYD     -0.027100
     16 C5          3.1170   -1.5850   -2.1510 cc        1 LYD     -0.055300
     17 C          -3.1210   -0.4210    1.8220 c         1 LYD      0.924600
     18 OX1        -2.8170   -1.6130    1.6450 o         1 LYD     -0.771300
     19 OX2        -3.6880    0.3700    1.0140 o         1 LYD     -0.771300
     20 C6          4.3510   -2.2510   -2.3450 cd        1 LYD     -0.092300
     21 N7          4.4140   -2.7890   -3.6220 na        1 LYD     -0.115100
     22 C7A         3.2190   -2.4870   -4.2760 cd        1 LYD      0.089100
     23 C4A         2.3970   -1.7180   -3.3730 cc        1 LYD     -0.181600
     24 C4          1.0970   -1.2580   -3.8120 c         1 LYD      0.755100
     25 O4          0.2810   -0.5490   -3.2170 o         1 LYD     -0.544500
     26 N3          0.7280   -1.6800   -5.1330 n         1 LYD     -0.500400
     27 C2          1.6090   -2.4490   -5.8960 cc        1 LYD      0.495800
     28 N1          2.8290   -2.8620   -5.5550 nd        1 LYD     -0.532100
     29 N2          1.1480   -2.8660   -7.2620 n4        1 LYD     -0.794600
     30 H5'        -0.1540    0.5760   -1.2080 ha        1 LYD      0.158000
     31 H3'         3.0840    1.6660    1.4570 ha        1 LYD      0.158000
     32 H2'         1.4250    2.3860    3.1730 ha        1 LYD      0.178000
     33 H6'        -1.8110    1.2680    0.4680 ha        1 LYD      0.178000
     34 HN         -3.0590    1.9180    2.1070 hn        1 LYD      0.466300
     35 HCA        -1.6590   -0.1510    3.4750 hx        1 LYD      0.092700
     36 HCB        -4.7220   -0.0520    3.8970 hc        1 LYD      0.073700
     37 HG11       -4.2870   -2.0140    5.2910 hc        1 LYD      0.048700
     38 HG12       -2.4910   -1.8070    5.1370 hc        1 LYD      0.048700
     39 HG13       -3.4770   -2.2620    3.6810 hc        1 LYD      0.048700
     40 HG21       -4.0320    0.0840    6.4270 hc        1 LYD      0.048700
     41 HG22       -2.4730    0.7900    5.8440 hc        1 LYD      0.048700
     42 HG23       -4.0530    1.6220    5.4960 hc        1 LYD      0.048700
     43 HC81        2.1710    0.8340   -2.0160 hc        1 LYD      0.060700
     44 HC82        3.5440    1.0220   -0.8450 hc        1 LYD      0.060700
     45 HC71        3.3550   -1.2360   -0.0620 hc        1 LYD      0.078200
     46 HC72        1.6450   -1.3980   -0.6460 hc        1 LYD      0.078200
     47 HC6         5.1820   -2.3720   -1.6420 h4        1 LYD      0.204000
     48 HN7         5.1640   -3.3110   -4.0060 hn        1 LYD      0.331700
     49 HN3        -0.1770   -1.4220   -5.4650 hn        1 LYD      0.350500
     50 HN21        0.9450   -2.0320   -7.8250 hn        1 LYD      0.480800
     51 HN22        0.3030   -3.4440   -7.1730 hn        1 LYD      0.480800
     52 HN31       -3.1380    2.1990    3.7660 hn        1 LYD      0.466300
     53 H23         1.8860   -3.4160   -7.7260 hn        1 LYD      0.480800
@<TRIPOS>BOND
     1    1    2 ar  
     2    1    6 ar  
     3    1   30 1   
     4    2    3 ar  
     5    2   14 1   
     6    3    4 ar  
     7    3   31 1   
     8    4    5 ar  
     9    4   32 1   
    10    5    6 ar  
    11    5    7 1   
    12    6   33 1   
    13    7    8 2   
    14    7    9 1   
    15    9   10 1   
    16    9   34 1   
    17    9   52 1   
    18   10   11 1   
    19   10   17 1   
    20   10   35 1   
    21   11   12 1   
    22   11   13 1   
    23   11   36 1   
    24   12   37 1   
    25   12   38 1   
    26   12   39 1   
    27   13   40 1   
    28   13   41 1   
    29   13   42 1   
    30   14   15 1   
    31   14   43 1   
    32   14   44 1   
    33   15   16 1   
    34   15   45 1   
    35   15   46 1   
    36   16   20 2   
    37   16   23 1   
    38   17   18 1   
    39   17   19 1   
    40   20   21 1   
    41   20   47 1   
    42   21   22 1   
    43   21   48 1   
    44   22   23 2   
    45   22   28 1   
    46   23   24 1   
    47   24   25 2   
    48   24   26 1   
    49   26   27 1   
    50   26   49 1   
    51   27   28 2   
    52   27   29 1   
    53   29   50 1   
    54   29   51 1   
    55   29   53 1   
@<TRIPOS>SUBSTRUCTURE
     1 LYD         1 TEMP              0 ****  ****    0 ROOT
