@<TRIPOS>MOLECULE
LYD
   52    54     1     0     0
SMALL
bcc


@<TRIPOS>ATOM
      1 C5'         0.0370    0.4370   -0.1310 ca        1 LYD     -0.145000
      2 C4'         1.3870    0.7970   -0.0120 ca        1 LYD     -0.009300
      3 C3'         1.8080    1.5260    1.1080 ca        1 LYD     -0.145000
      4 C2'         0.8970    1.8860    2.0920 ca        1 LYD     -0.065000
      5 C1'        -0.4570    1.5190    1.9730 ca        1 LYD     -0.205600
      6 C6'        -0.8830    0.7890    0.8520 ca        1 LYD     -0.065000
      7 C9         -1.3480    1.9500    3.0520 c         1 LYD      0.572700
      8 O9         -1.0300    2.6460    4.0200 o         1 LYD     -0.502100
      9 N          -2.7820    1.5510    3.0040 ny        1 LYD     -0.663800
     10 CA         -3.0090    0.1020    3.3400 c3        1 LYD     -0.044500
     11 CB         -3.7070   -0.1200    4.6870 c3        1 LYD     -0.063700
     12 CG1        -3.3820   -1.5220    5.1710 c3        1 LYD     -0.108100
     13 CG2        -3.3280    0.8870    5.7550 c3        1 LYD     -0.108100
     14 C8          2.3470    0.4110   -1.0810 c3        1 LYD     -0.050100
     15 C7          2.6880   -1.0730   -1.0080 c3        1 LYD     -0.005100
     16 C5          3.2420   -1.5690   -2.2750 cc        1 LYD     -0.068300
     17 C          -3.8580   -0.5650    2.1530 c         1 LYD      0.926600
     18 OX1        -4.0870    0.1950    1.1690 o         1 LYD     -0.763300
     19 OX2        -4.1710   -1.7580    2.2960 o         1 LYD     -0.763300
     20 C6          4.5340   -2.0610   -2.4930 cd        1 LYD     -0.160300
     21 N7          4.6680   -2.4810   -3.8230 na        1 LYD     -0.166100
     22 C7A         3.4550   -2.2660   -4.4710 cd        1 LYD      0.200100
     23 C4A         2.5430   -1.6890   -3.5240 cc        1 LYD     -0.280600
     24 C4          1.2080   -1.3600   -3.9530 c         1 LYD      0.755100
     25 O4          0.2980   -0.8370   -3.2820 o         1 LYD     -0.642500
     26 N3          0.9200   -1.6790   -5.3050 ns        1 LYD     -0.503400
     27 C2          1.8910   -2.2290   -6.1680 cc        1 LYD      0.679800
     28 N1          3.1480   -2.5600   -5.7920 nd        1 LYD     -0.680100
     29 N2          1.5310   -2.3840   -7.5270 nv        1 LYD     -0.890800
     30 H5'        -0.2940   -0.1290   -1.0230 ha        1 LYD      0.165000
     31 H3'         2.8650    1.8170    1.2090 ha        1 LYD      0.165000
     32 H2'         1.2270    2.4620    2.9730 ha        1 LYD      0.173000
     33 H6'        -1.9380    0.4720    0.7200 ha        1 LYD      0.173000
     34 HN         -3.1590    1.6790    2.0300 hn        1 LYD      0.466300
     35 HCA        -2.0060   -0.4090    3.3400 hx        1 LYD      0.090700
     36 HCB        -4.8190   -0.0600    4.5090 hc        1 LYD      0.074700
     37 HG11       -3.6210   -2.2700    4.3720 hc        1 LYD      0.046200
     38 HG12       -2.3010   -1.6050    5.4360 hc        1 LYD      0.046200
     39 HG13       -3.9900   -1.7570    6.0770 hc        1 LYD      0.046200
     40 HG21       -3.8760    1.8520    5.6260 hc        1 LYD      0.046200
     41 HG22       -2.2300    1.0930    5.7500 hc        1 LYD      0.046200
     42 HG23       -3.6000    0.4860    6.7630 hc        1 LYD      0.046200
     43 HC81        1.8760    0.6250   -2.0810 hc        1 LYD      0.067700
     44 HC82        3.2870    1.0180   -1.0050 hc        1 LYD      0.067700
     45 HC71        1.7490   -1.6520   -0.7780 hc        1 LYD      0.058200
     46 HC72        3.4130   -1.2530   -0.1710 hc        1 LYD      0.058200
     47 HC6         5.3710   -2.1490   -1.7990 h4        1 LYD      0.173000
     48 HN7         5.4760   -2.8750   -4.2300 hn        1 LYD      0.310700
     49 HN3         0.0220   -1.4260   -5.6550 hn        1 LYD      0.336500
     50 HN21        0.5900   -2.6680   -7.6890 hn        1 LYD      0.419800
     51 HN22        2.2020   -2.8750   -8.0800 hn        1 LYD      0.419800
     52 HN31       -3.3200    2.1420    3.6440 hn        1 LYD      0.466300
@<TRIPOS>BOND
     1    1    2 ar  
     2    1    6 ar  
     3    1   30 1   
     4    2    3 ar  
     5    2   14 1   
     6    3    4 ar  
     7    3   31 1   
     8    4    5 ar  
     9    4   32 1   
    10    5    6 ar  
    11    5    7 1   
    12    6   33 1   
    13    7    8 2   
    14    7    9 1   
    15    9   10 1   
    16    9   34 1   
    17    9   52 1   
    18   10   11 1   
    19   10   17 1   
    20   10   35 1   
    21   11   12 1   
    22   11   13 1   
    23   11   36 1   
    24   12   37 1   
    25   12   38 1   
    26   12   39 1   
    27   13   40 1   
    28   13   41 1   
    29   13   42 1   
    30   14   15 1   
    31   14   43 1   
    32   14   44 1   
    33   15   16 1   
    34   15   45 1   
    35   15   46 1   
    36   16   20 2   
    37   16   23 1   
    38   17   18 1   
    39   17   19 1   
    40   20   21 1   
    41   20   47 1   
    42   21   22 1   
    43   21   48 1   
    44   22   23 2   
    45   22   28 1   
    46   23   24 1   
    47   24   25 2   
    48   24   26 1   
    49   26   27 1   
    50   26   49 1   
    51   27   28 2   
    52   27   29 1   
    53   29   50 1   
    54   29   51 1   
@<TRIPOS>SUBSTRUCTURE
     1 LYD         1 TEMP              0 ****  ****    0 ROOT
