@<TRIPOS>MOLECULE
LYF
   41    40     1     0     0
SMALL
bcc


@<TRIPOS>ATOM
      1 C          -6.7480   -0.4350    0.3190 c         1 LYF      0.888600
      2 N          -5.1280   -1.8820   -0.9840 n3        1 LYF     -0.894800
      3 O          -7.6130   -0.7080   -0.5680 o         1 LYF     -0.859800
      4 CA         -5.2830   -0.9420    0.1200 c3        1 LYF      0.030500
      5 CB         -4.3570    0.2760    0.0380 c3        1 LYF     -0.068400
      6 CD         -2.0170    1.1590    0.0170 c3        1 LYF     -0.070400
      7 CE         -0.5270    0.7970   -0.0280 c3        1 LYF      0.111800
      8 CG         -2.8850   -0.0830    0.0660 c3        1 LYF     -0.079400
      9 NZ          0.3050    1.9640   -0.1820 n2        1 LYF     -0.620900
     10 C11         2.3570    0.9000    0.8270 c3        1 LYF     -0.197700
     11 C12         2.8300   -0.1900   -0.1370 c3        1 LYF      0.155100
     12 C13         3.9720   -0.9850    0.5080 c3        1 LYF     -0.082400
     13 C14         2.3720    3.2790   -0.0170 c         1 LYF      0.836300
     14 O15         2.2150    4.2210    0.8040 o         1 LYF     -0.836300
     15 O16         3.2130    3.2840   -0.9610 o         1 LYF     -0.836300
     16 O17         3.2370    0.3120   -1.4000 oh        1 LYF     -0.636800
     17 C18         4.2150   -2.3140   -0.1640 c3        1 LYF     -0.175400
     18 C20         5.2720   -3.1630    0.5510 c         1 LYF      0.902600
     19 O21         6.0840   -3.8320   -0.1620 o         1 LYF     -0.875800
     20 O22         5.2940   -3.2090    1.8180 o         1 LYF     -0.875800
     21 C41         1.5390    1.9890    0.1780 ce        1 LYF      0.380300
     22 OXT        -7.0170    0.2040    1.3740 o         1 LYF     -0.859800
     23 HN         -6.0350   -2.2680   -1.1900 hn        1 LYF      0.327300
     24 HNA        -4.8360   -1.3820   -1.8040 hn        1 LYF      0.327300
     25 HA         -5.0170   -1.5180    1.0550 h1        1 LYF      0.042700
     26 HB         -4.5820    0.8590   -0.8930 hc        1 LYF      0.040700
     27 HBA        -4.6040    0.9350    0.9120 hc        1 LYF      0.040700
     28 HD         -2.2230    1.7960    0.9160 hc        1 LYF      0.036200
     29 HDA        -2.2850    1.7660   -0.8860 hc        1 LYF      0.036200
     30 HE         -0.2830    0.2020    0.9010 h1        1 LYF      0.023200
     31 HEA        -0.3540    0.1090   -0.9060 h1        1 LYF      0.023200
     32 HG         -2.6590   -0.6660    0.9960 hc        1 LYF      0.032700
     33 HGA        -2.6350   -0.7450   -0.8040 hc        1 LYF      0.032700
     34 H11         1.7720    0.4120    1.6500 hc        1 LYF      0.046700
     35 H11A        3.2580    1.3790    1.2950 hc        1 LYF      0.046700
     36 H12         1.9700   -0.8820   -0.3710 h1        1 LYF      0.036700
     37 H13         4.9070   -0.3690    0.4640 hc        1 LYF      0.040200
     38 H13A        3.7350   -1.1630    1.5900 hc        1 LYF      0.040200
     39 HO17        3.4900    1.2430   -1.2900 ho        1 LYF      0.442000
     40 H18         3.2640   -2.9080   -0.1810 hc        1 LYF      0.024700
     41 H18A        4.5290   -2.1480   -1.2250 hc        1 LYF      0.024700
@<TRIPOS>BOND
     1    1    3 1   
     2    1    4 1   
     3    1   22 1   
     4    2    4 1   
     5    2   23 1   
     6    2   24 1   
     7    4    5 1   
     8    4   25 1   
     9    5    8 1   
    10    5   26 1   
    11    5   27 1   
    12    6    7 1   
    13    6    8 1   
    14    6   28 1   
    15    6   29 1   
    16    7    9 1   
    17    7   30 1   
    18    7   31 1   
    19    8   32 1   
    20    8   33 1   
    21    9   21 2   
    22   10   11 1   
    23   10   21 1   
    24   10   34 1   
    25   10   35 1   
    26   11   12 1   
    27   11   16 1   
    28   11   36 1   
    29   12   17 1   
    30   12   37 1   
    31   12   38 1   
    32   13   14 1   
    33   13   15 1   
    34   13   21 1   
    35   16   39 1   
    36   17   18 1   
    37   17   40 1   
    38   17   41 1   
    39   18   19 1   
    40   18   20 1   
@<TRIPOS>SUBSTRUCTURE
     1 LYF         1 TEMP              0 ****  ****    0 ROOT
