@<TRIPOS>MOLECULE
LYG
   36    39     1     0     0
SMALL
bcc


@<TRIPOS>ATOM
      1 C1         -0.7170    0.9190    0.4880 c3        1 LYG      0.119100
      2 N1          0.4380   -0.0560    2.4280 n3        1 LYG     -0.729600
      3 O1          0.0370    1.8010   -0.3260 oh        1 LYG     -0.598800
      4 S1          4.3950   -4.1830    5.8720 ss        1 LYG      0.154500
      5 Cl1         8.4750   -3.7640    1.2730 cl        1 LYG     -0.090400
      6 C2         -0.4230   -0.5550    0.1810 c3        1 LYG     -0.136400
      7 N2          3.5940   -1.5280    3.1200 nc        1 LYG     -0.608300
      8 O2          1.6180   -2.6670    6.5630 o         1 LYG     -0.625500
      9 C3          0.1890   -1.1350    1.4650 c3        1 LYG      0.151800
     10 N3          1.7790   -1.3510    4.6990 ns        1 LYG     -0.461400
     11 C4          1.8470    0.1650    2.7130 c3        1 LYG      0.119500
     12 C5          2.4520   -0.9830    3.5370 cd        1 LYG      0.486900
     13 C6          4.1250   -2.5210    3.9210 cc        1 LYG      0.201400
     14 C7          5.3550   -3.2420    3.6660 ca        1 LYG     -0.068800
     15 C8          6.2440   -3.0970    2.5930 ca        1 LYG     -0.056000
     16 C9          7.3700   -3.9080    2.5580 ca        1 LYG     -0.000600
     17 C10         7.6230   -4.8560    3.5720 ca        1 LYG     -0.101000
     18 C11         6.7450   -4.9990    4.6320 ca        1 LYG     -0.099000
     19 C12         5.5980   -4.1940    4.6950 ca        1 LYG     -0.081100
     20 C13         3.5230   -2.9680    5.1140 cd        1 LYG     -0.254600
     21 C14         2.2680   -2.3690    5.5450 c         1 LYG      0.731700
     22 C15        -0.2460    1.1460    1.9460 c3        1 LYG      0.157800
     23 H1         -1.8090    1.1520    0.3810 h1        1 LYG      0.048700
     24 HO1        -0.2270    1.6370   -1.2390 ho        1 LYG      0.405000
     25 H2          0.2930   -0.6430   -0.6730 hc        1 LYG      0.059200
     26 H2A        -1.3580   -1.1010   -0.0880 hc        1 LYG      0.059200
     27 H3         -0.5390   -1.8400    1.9530 h1        1 LYG      0.059700
     28 H3A         1.1260   -1.7090    1.2320 h1        1 LYG      0.059700
     29 HN3         0.9030   -0.9260    4.9210 hn        1 LYG      0.353500
     30 H4          2.4640    0.3050    1.7770 h1        1 LYG      0.074200
     31 H4A         1.9470    1.1000    3.3360 h1        1 LYG      0.074200
     32 H8          6.0390   -2.3530    1.8070 ha        1 LYG      0.167000
     33 H10         8.5260   -5.4840    3.5160 ha        1 LYG      0.150000
     34 H11         6.9430   -5.7380    5.4220 ha        1 LYG      0.145000
     35 H15        -1.1440    1.2960    2.6050 h1        1 LYG      0.067700
     36 H15A        0.3980    2.0650    1.9980 h1        1 LYG      0.067700
@<TRIPOS>BOND
     1    1    3 1   
     2    1    6 1   
     3    1   22 1   
     4    1   23 1   
     5    2    9 1   
     6    2   11 1   
     7    2   22 1   
     8    3   24 1   
     9    4   19 1   
    10    4   20 1   
    11    5   16 1   
    12    6    9 1   
    13    6   25 1   
    14    6   26 1   
    15    7   12 2   
    16    7   13 1   
    17    8   21 2   
    18    9   27 1   
    19    9   28 1   
    20   10   12 1   
    21   10   21 1   
    22   10   29 1   
    23   11   12 1   
    24   11   30 1   
    25   11   31 1   
    26   13   14 1   
    27   13   20 2   
    28   14   15 ar  
    29   14   19 ar  
    30   15   16 ar  
    31   15   32 1   
    32   16   17 ar  
    33   17   18 ar  
    34   17   33 1   
    35   18   19 ar  
    36   18   34 1   
    37   20   21 1   
    38   22   35 1   
    39   22   36 1   
@<TRIPOS>SUBSTRUCTURE
     1 LYG         1 TEMP              0 ****  ****    0 ROOT
