@<TRIPOS>MOLECULE
LYG
   36    39     1     0     0
SMALL
bcc


@<TRIPOS>ATOM
      1 C1          5.6770    0.7880    0.0150 c3        1 LYG      0.119100
      2 N1          3.5990   -0.4880    0.3300 n3        1 LYG     -0.729600
      3 O1          5.9300    1.2830   -1.2890 oh        1 LYG     -0.598800
      4 S1         -2.9080   -1.6230    1.2920 ss        1 LYG      0.154500
      5 CL1        -4.0730    2.8960   -2.7310 cl        1 LYG     -0.090400
      6 C2          4.6880    1.6660    0.7910 c3        1 LYG     -0.136400
      7 N2          0.1900   -0.2040   -0.6190 nc        1 LYG     -0.608300
      8 O2         -0.2150   -3.1500    2.2460 o         1 LYG     -0.625500
      9 C3          3.4620    0.7790    1.0570 c3        1 LYG      0.151800
     10 N3          1.0830   -1.9250    0.8160 n         1 LYG     -0.461400
     11 C4          2.6080   -0.6740   -0.7190 c3        1 LYG      0.119500
     12 C5          1.2050   -0.9230   -0.1440 cd        1 LYG      0.486900
     13 C6         -1.0600   -0.5000   -0.1090 cc        1 LYG      0.201400
     14 C7         -2.2990    0.1490   -0.4850 ca        1 LYG     -0.068800
     15 C8         -2.4970    1.1780   -1.4150 ca        1 LYG     -0.056000
     16 C9         -3.7890    1.6480   -1.6120 ca        1 LYG     -0.000600
     17 C10        -4.8810    1.1080   -0.9000 ca        1 LYG     -0.101000
     18 C11        -4.6860    0.0910    0.0180 ca        1 LYG     -0.099000
     19 C12        -3.3920   -0.4030    0.2390 ca        1 LYG     -0.081100
     20 C13        -1.2920   -1.4910    0.8650 cd        1 LYG     -0.254600
     21 C14        -0.1670   -2.2570    1.3810 c         1 LYG      0.731700
     22 C15         4.9760   -0.5830   -0.1570 c3        1 LYG      0.157800
     23 H1          6.6480    0.6730    0.5670 h1        1 LYG      0.048700
     24 HO1         6.3330    2.1530   -1.1870 ho        1 LYG      0.405000
     25 H2          5.1340    2.0160    1.7530 hc        1 LYG      0.059200
     26 H2A         4.4040    2.5640    0.1890 hc        1 LYG      0.059200
     27 H3          2.5170    1.3190    0.7800 h1        1 LYG      0.059700
     28 H3A         3.4070    0.5190    2.1500 h1        1 LYG      0.059700
     29 HN3         1.8980   -2.3890    1.1550 hn        1 LYG      0.353500
     30 H4          2.5590    0.2000   -1.4320 h1        1 LYG      0.074200
     31 H4A         2.8830   -1.5920   -1.3150 h1        1 LYG      0.074200
     32 H8         -1.6390    1.5930   -1.9670 ha        1 LYG      0.167000
     33 H10        -5.8940    1.5020   -1.0790 ha        1 LYG      0.150000
     34 H11        -5.5380   -0.3290    0.5720 ha        1 LYG      0.145000
     35 H15         5.0390   -0.9080   -1.2300 h1        1 LYG      0.067700
     36 H15A        5.4970   -1.3460    0.4830 h1        1 LYG      0.067700
@<TRIPOS>BOND
     1    1    3 1   
     2    1    6 1   
     3    1   22 1   
     4    1   23 1   
     5    2    9 1   
     6    2   11 1   
     7    2   22 1   
     8    3   24 1   
     9    4   19 1   
    10    4   20 1   
    11    5   16 1   
    12    6    9 1   
    13    6   25 1   
    14    6   26 1   
    15    7   12 2   
    16    7   13 1   
    17    8   21 2   
    18    9   27 1   
    19    9   28 1   
    20   10   12 1   
    21   10   21 1   
    22   10   29 1   
    23   11   12 1   
    24   11   30 1   
    25   11   31 1   
    26   13   14 1   
    27   13   20 2   
    28   14   15 ar  
    29   14   19 ar  
    30   15   16 ar  
    31   15   32 1   
    32   16   17 ar  
    33   17   18 ar  
    34   17   33 1   
    35   18   19 ar  
    36   18   34 1   
    37   20   21 1   
    38   22   35 1   
    39   22   36 1   
@<TRIPOS>SUBSTRUCTURE
     1 LYG         1 TEMP              0 ****  ****    0 ROOT
