@<TRIPOS>MOLECULE
LYG
   36    39     1     0     0
SMALL
bcc


@<TRIPOS>ATOM
      1 C1         -0.6870    0.9270    0.4520 c3        1 LYG      0.119100
      2 N1          0.4030   -0.1150    2.3950 n3        1 LYG     -0.729600
      3 O1          0.0750    1.8750   -0.2750 oh        1 LYG     -0.598800
      4 S1          4.3250   -4.2940    5.8140 ss        1 LYG      0.154500
      5 CL1         8.6110   -3.4970    1.4590 cl        1 LYG     -0.090400
      6 C2         -0.3280   -0.5180    0.0830 c3        1 LYG     -0.136400
      7 N2          3.5700   -1.5210    3.1680 nc        1 LYG     -0.608300
      8 O2          1.4670   -2.9080    6.4410 o         1 LYG     -0.625500
      9 C3          0.2400   -1.1470    1.3640 c3        1 LYG      0.151800
     10 N3          1.6740   -1.4880    4.6600 n         1 LYG     -0.461400
     11 C4          1.7880    0.1350    2.7620 c3        1 LYG      0.119500
     12 C5          2.3910   -1.0360    3.5550 cd        1 LYG      0.486900
     13 C6          4.0950   -2.5380    3.9430 cc        1 LYG      0.201400
     14 C7          5.3600   -3.2050    3.7130 ca        1 LYG     -0.068800
     15 C8          6.2950   -2.9740    2.6960 ca        1 LYG     -0.056000
     16 C9          7.4500   -3.7450    2.6760 ca        1 LYG     -0.000600
     17 C10         7.6840   -4.7390    3.6510 ca        1 LYG     -0.101000
     18 C11         6.7610   -4.9670    4.6550 ca        1 LYG     -0.099000
     19 C12         5.5850   -4.2040    4.7020 ca        1 LYG     -0.081100
     20 C13         3.4510   -3.0690    5.0780 cd        1 LYG     -0.254600
     21 C14         2.1560   -2.5340    5.4750 c         1 LYG      0.731700
     22 C15        -0.2970    1.0890    1.9420 c3        1 LYG      0.157800
     23 H1         -1.7810    1.1310    0.3020 h1        1 LYG      0.048700
     24 HO1        -0.1380    1.7530   -1.2080 ho        1 LYG      0.405000
     25 H2         -1.2290   -1.0790   -0.2620 hc        1 LYG      0.059200
     26 H2A         0.4320   -0.5360   -0.7360 hc        1 LYG      0.059200
     27 H3         -0.4870   -1.9000    1.7760 h1        1 LYG      0.059700
     28 H3A         1.2060   -1.6770    1.1490 h1        1 LYG      0.059700
     29 HN3         0.7750   -1.1040    4.8580 hn        1 LYG      0.353500
     30 H4          2.4460    0.3450    1.8680 h1        1 LYG      0.074200
     31 H4A         1.8240    1.0370    3.4380 h1        1 LYG      0.074200
     32 H8          6.1040   -2.1960    1.9410 ha        1 LYG      0.167000
     33 H10         8.6100   -5.3340    3.6080 ha        1 LYG      0.150000
     34 H11         6.9440   -5.7410    5.4150 ha        1 LYG      0.145000
     35 H15         0.3110    2.0240    2.0750 h1        1 LYG      0.067700
     36 H15A       -1.2310    1.1750    2.5610 h1        1 LYG      0.067700
@<TRIPOS>BOND
     1    1    3 1   
     2    1    6 1   
     3    1   22 1   
     4    1   23 1   
     5    2    9 1   
     6    2   11 1   
     7    2   22 1   
     8    3   24 1   
     9    4   19 1   
    10    4   20 1   
    11    5   16 1   
    12    6    9 1   
    13    6   25 1   
    14    6   26 1   
    15    7   12 2   
    16    7   13 1   
    17    8   21 2   
    18    9   27 1   
    19    9   28 1   
    20   10   12 1   
    21   10   21 1   
    22   10   29 1   
    23   11   12 1   
    24   11   30 1   
    25   11   31 1   
    26   13   14 1   
    27   13   20 2   
    28   14   15 ar  
    29   14   19 ar  
    30   15   16 ar  
    31   15   32 1   
    32   16   17 ar  
    33   17   18 ar  
    34   17   33 1   
    35   18   19 ar  
    36   18   34 1   
    37   20   21 1   
    38   22   35 1   
    39   22   36 1   
@<TRIPOS>SUBSTRUCTURE
     1 LYG         1 TEMP              0 ****  ****    0 ROOT
