@<TRIPOS>MOLECULE
LYG
   36    39     1     0     0
SMALL
bcc


@<TRIPOS>ATOM
      1 C1         -0.7650    0.8300    0.4660 c3        1 LYG      0.119100
      2 N1          0.4040   -0.1100    2.4150 n3        1 LYG     -0.729600
      3 O1         -0.0280    1.7260   -0.3490 oh        1 LYG     -0.598800
      4 S1          4.4450   -4.1270    5.8900 ss        1 LYG      0.154500
      5 CL1         8.5270   -3.6380    1.2990 cl        1 LYG     -0.090400
      6 C2         -0.4360   -0.6370    0.1660 c3        1 LYG     -0.136400
      7 N2          3.5910   -1.5050    3.1230 nc        1 LYG     -0.608300
      8 O2          1.6320   -2.6710    6.5660 o         1 LYG     -0.625500
      9 C3          0.1840   -1.1980    1.4550 c3        1 LYG      0.151800
     10 N3          1.7680   -1.3610    4.6970 n         1 LYG     -0.461400
     11 C4          1.8070    0.1450    2.7030 c3        1 LYG      0.119500
     12 C5          2.4360   -0.9840    3.5340 cd        1 LYG      0.486900
     13 C6          4.1420   -2.4810    3.9310 cc        1 LYG      0.201400
     14 C7          5.3890   -3.1750    3.6820 ca        1 LYG     -0.068800
     15 C8          6.2770   -3.0150    2.6100 ca        1 LYG     -0.056000
     16 C9          7.4220   -3.8000    2.5820 ca        1 LYG     -0.000600
     17 C10         7.6940   -4.7370    3.6020 ca        1 LYG     -0.101000
     18 C11         6.8170   -4.8950    4.6600 ca        1 LYG     -0.099000
     19 C12         5.6510   -4.1170    4.7160 ca        1 LYG     -0.081100
     20 C13         3.5480   -2.9360    5.1240 cd        1 LYG     -0.254600
     21 C14         2.2790   -2.3630    5.5490 c         1 LYG      0.731700
     22 C15        -0.3060    1.0730    1.9250 c3        1 LYG      0.157800
     23 H1         -1.8620    1.0370    0.3530 h1        1 LYG      0.048700
     24 HO1        -0.2840    1.5530   -1.2620 ho        1 LYG      0.405000
     25 H2          0.2860   -0.7120   -0.6840 hc        1 LYG      0.059200
     26 H2A        -1.3570   -1.2070   -0.1050 hc        1 LYG      0.059200
     27 H3         -0.5300   -1.9170    1.9430 h1        1 LYG      0.059700
     28 H3A         1.1350   -1.7510    1.2280 h1        1 LYG      0.059700
     29 HN3         0.8820   -0.9560    4.9140 hn        1 LYG      0.353500
     30 H4          2.4240    0.2960    1.7690 h1        1 LYG      0.074200
     31 H4A         1.8820    1.0860    3.3220 h1        1 LYG      0.074200
     32 H8          6.0580   -2.2810    1.8200 ha        1 LYG      0.167000
     33 H10         8.6110   -5.3450    3.5510 ha        1 LYG      0.150000
     34 H11         7.0290   -5.6250    5.4550 ha        1 LYG      0.145000
     35 H15         0.3150    2.0080    1.9760 h1        1 LYG      0.067700
     36 H15A       -1.2100    1.2050    2.5790 h1        1 LYG      0.067700
@<TRIPOS>BOND
     1    1    3 1   
     2    1    6 1   
     3    1   22 1   
     4    1   23 1   
     5    2    9 1   
     6    2   11 1   
     7    2   22 1   
     8    3   24 1   
     9    4   19 1   
    10    4   20 1   
    11    5   16 1   
    12    6    9 1   
    13    6   25 1   
    14    6   26 1   
    15    7   12 2   
    16    7   13 1   
    17    8   21 2   
    18    9   27 1   
    19    9   28 1   
    20   10   12 1   
    21   10   21 1   
    22   10   29 1   
    23   11   12 1   
    24   11   30 1   
    25   11   31 1   
    26   13   14 1   
    27   13   20 2   
    28   14   15 ar  
    29   14   19 ar  
    30   15   16 ar  
    31   15   32 1   
    32   16   17 ar  
    33   17   18 ar  
    34   17   33 1   
    35   18   19 ar  
    36   18   34 1   
    37   20   21 1   
    38   22   35 1   
    39   22   36 1   
@<TRIPOS>SUBSTRUCTURE
     1 LYG         1 TEMP              0 ****  ****    0 ROOT
