@<TRIPOS>MOLECULE
LYH
   21    20     1     0     0
SMALL
bcc


@<TRIPOS>ATOM
      1 N           2.2860    1.7990    0.1060 n3        1 LYH     -0.882800
      2 CA          1.4310    0.6650    0.4470 c3        1 LYH      0.031700
      3 C           2.0540   -0.7190    0.0260 c         1 LYH      0.893600
      4 O           2.7170   -0.7490   -1.0490 o         1 LYH     -0.833800
      5 CB          0.0840    0.7580   -0.1970 c2        1 LYH     -0.077200
      6 CG         -1.0650    0.7120    0.4850 c2        1 LYH     -0.238200
      7 CD         -2.4000    0.7310   -0.1590 c3        1 LYH     -0.031200
      8 CE         -3.2010   -0.5030    0.2640 c3        1 LYH      0.145800
      9 NZ         -4.4950   -0.6100   -0.3790 n3        1 LYH     -0.916800
     10 OXT         1.8770   -1.6960    0.7990 o         1 LYH     -0.833800
     11 H           3.1990    1.6060    0.4810 hn        1 LYH      0.329800
     12 H2          2.3930    1.8190   -0.8950 hn        1 LYH      0.329800
     13 HA          1.3200    0.6580    1.5690 h1        1 LYH      0.051700
     14 HB          0.0960    0.8230   -1.2980 ha        1 LYH      0.111000
     15 HG         -1.0750    0.6380    1.5830 ha        1 LYH      0.117000
     16 HD1        -2.9520    1.6600    0.1460 hc        1 LYH      0.031700
     17 HD2        -2.2990    0.7560   -1.2770 hc        1 LYH      0.031700
     18 HE1        -2.5570   -1.4120    0.0790 h1        1 LYH      0.035700
     19 HE2        -3.3870   -0.4510    1.3740 h1        1 LYH      0.035700
     20 HZ1        -4.4250   -0.3860   -1.3520 hn        1 LYH      0.335300
     21 HZ2        -4.8370   -1.5470   -0.2950 hn        1 LYH      0.335300
@<TRIPOS>BOND
     1    1    2 1   
     2    1   11 1   
     3    1   12 1   
     4    2    3 1   
     5    2    5 1   
     6    2   13 1   
     7    3    4 1   
     8    3   10 1   
     9    5    6 2   
    10    5   14 1   
    11    6    7 1   
    12    6   15 1   
    13    7    8 1   
    14    7   16 1   
    15    7   17 1   
    16    8    9 1   
    17    8   18 1   
    18    8   19 1   
    19    9   20 1   
    20    9   21 1   
@<TRIPOS>SUBSTRUCTURE
     1 LYH         1 TEMP              0 ****  ****    0 ROOT
