@<TRIPOS>MOLECULE
LYJ
   25    24     1     0     0
SMALL
bcc


@<TRIPOS>ATOM
      1 C          -2.8130   -0.9090    0.2830 c3        1 LYJ      0.140400
      2 N          -1.9530    1.4080    0.2370 n3        1 LYJ     -0.910800
      3 O          -4.0060   -0.6850   -0.4340 oh        1 LYJ     -0.600800
      4 CA         -1.6810    0.0410   -0.1650 c3        1 LYJ      0.118500
      5 CB         -0.3490   -0.5440    0.3300 c3        1 LYJ     -0.116400
      6 CD          2.1380   -0.4560    0.1640 c3        1 LYJ     -0.082400
      7 CE          3.3280    0.3810   -0.3020 c3        1 LYJ      0.159800
      8 CG          0.8400    0.2570   -0.1520 c3        1 LYJ     -0.080400
      9 NZ          4.6000   -0.2660   -0.0900 n3        1 LYJ     -0.916800
     10 H          -2.9990   -0.8140    1.3860 h1        1 LYJ      0.042700
     11 HA         -2.5330   -1.9690    0.0420 h1        1 LYJ      0.042700
     12 HN         -1.9230    1.4970    1.2340 hn        1 LYJ      0.349300
     13 HNA        -1.2750    2.0260   -0.1640 hn        1 LYJ      0.349300
     14 HO         -4.2400    0.2460   -0.3340 ho        1 LYJ      0.414000
     15 HAA        -1.6690    0.0340   -1.2970 h1        1 LYJ      0.072700
     16 HB         -0.3470   -0.5900    1.4500 hc        1 LYJ      0.047700
     17 HBA        -0.2640   -1.5970   -0.0480 hc        1 LYJ      0.047700
     18 HD          2.1540   -1.4560   -0.3430 hc        1 LYJ      0.048200
     19 HDA         2.2070   -0.6400    1.2680 hc        1 LYJ      0.048200
     20 HE          3.2280    0.5670   -1.4110 h1        1 LYJ      0.023700
     21 HEA         3.2650    1.3900    0.2070 h1        1 LYJ      0.023700
     22 HG          0.7610    0.4210   -1.2590 hc        1 LYJ      0.039700
     23 HGA         0.8460    1.2690    0.3340 hc        1 LYJ      0.039700
     24 HNZ         5.3490    0.3590   -0.3100 hn        1 LYJ      0.349300
     25 HNZA        4.6950   -0.5750    0.8570 hn        1 LYJ      0.349300
@<TRIPOS>BOND
     1    1    3 1   
     2    1    4 1   
     3    1   10 1   
     4    1   11 1   
     5    2    4 1   
     6    2   12 1   
     7    2   13 1   
     8    3   14 1   
     9    4    5 1   
    10    4   15 1   
    11    5    8 1   
    12    5   16 1   
    13    5   17 1   
    14    6    7 1   
    15    6    8 1   
    16    6   18 1   
    17    6   19 1   
    18    7    9 1   
    19    7   20 1   
    20    7   21 1   
    21    8   22 1   
    22    8   23 1   
    23    9   24 1   
    24    9   25 1   
@<TRIPOS>SUBSTRUCTURE
     1 LYJ         1 TEMP              0 ****  ****    0 ROOT
