@<TRIPOS>MOLECULE
LYJ
   27    26     1     0     0
SMALL
bcc


@<TRIPOS>ATOM
      1 C           0.0170   -0.1100    0.1100 c3        1 LYJ      0.116400
      2 N           1.8250    1.2970   -0.9010 nz        1 LYJ     -0.837600
      3 O          -0.4810   -0.1060   -1.2130 oh        1 LYJ     -0.632800
      4 CA          1.5440    0.1260    0.0010 c3        1 LYJ      0.114500
      5 CB          2.1360    0.2960    1.3990 c3        1 LYJ     -0.116400
      6 CD          4.1020   -0.0390    2.8930 c3        1 LYJ     -0.109400
      7 CE          5.5830   -0.4010    2.9360 c3        1 LYJ      0.100800
      8 CG          3.6230    0.0010    1.4520 c3        1 LYJ     -0.086400
      9 NZ          6.1220   -0.5020    4.3230 nz        1 LYJ     -0.837600
     10 H          -0.1510   -1.1000    0.6130 h1        1 LYJ      0.078700
     11 HA         -0.4720    0.7080    0.7050 h1        1 LYJ      0.078700
     12 HN          2.8290    1.3940   -1.0630 hn        1 LYJ      0.470133
     13 HNA         1.3400    1.1360   -1.7990 hn        1 LYJ      0.470133
     14 HO         -1.3450   -0.5460   -1.2160 ho        1 LYJ      0.472000
     15 HAA         2.0030   -0.7750   -0.5120 hx        1 LYJ      0.123700
     16 HB          1.5940   -0.4270    2.0730 hc        1 LYJ      0.092700
     17 HBA         1.9300    1.3240    1.8010 hc        1 LYJ      0.092700
     18 HD          3.5000   -0.7980    3.4630 hc        1 LYJ      0.080700
     19 HDA         3.9300    0.9620    3.3730 hc        1 LYJ      0.080700
     20 HE          5.7520   -1.3990    2.4320 hx        1 LYJ      0.119200
     21 HEA         6.1890    0.3830    2.3920 hx        1 LYJ      0.119200
     22 HG          4.1950    0.7840    0.8880 hc        1 LYJ      0.061700
     23 HGA         3.8310   -0.9890    0.9610 hc        1 LYJ      0.061700
     24 HNZ         7.1200   -0.7460    4.2920 hn        1 LYJ      0.472133
     25 HNZA        6.0150    0.3920    4.8170 hn        1 LYJ      0.472133
     26 HN3         1.4590    2.1600   -0.4870 hn        1 LYJ      0.470133
     27 HZ3         5.6210   -1.2270    4.8510 hn        1 LYJ      0.472133
@<TRIPOS>BOND
     1    1    3 1   
     2    1    4 1   
     3    1   10 1   
     4    1   11 1   
     5    2    4 1   
     6    2   12 1   
     7    2   13 1   
     8    2   26 1   
     9    3   14 1   
    10    4    5 1   
    11    4   15 1   
    12    5    8 1   
    13    5   16 1   
    14    5   17 1   
    15    6    7 1   
    16    6    8 1   
    17    6   18 1   
    18    6   19 1   
    19    7    9 1   
    20    7   20 1   
    21    7   21 1   
    22    8   22 1   
    23    8   23 1   
    24    9   24 1   
    25    9   25 1   
    26    9   27 1   
@<TRIPOS>SUBSTRUCTURE
     1 LYJ         1 TEMP              0 ****  ****    0 ROOT
