@<TRIPOS>MOLECULE
LYJ
   27    26     1     0     0
SMALL
bcc


@<TRIPOS>ATOM
      1 C           0.0120   -0.0980    0.1180 c3        1 LYJ      0.116400
      2 N           1.8450    1.2410   -0.9390 n4        1 LYJ     -0.837600
      3 O          -0.4870   -0.1290   -1.2040 oh        1 LYJ     -0.632800
      4 CA          1.5440    0.1050    0.0010 c3        1 LYJ      0.114500
      5 CB          2.1400    0.3100    1.3920 c3        1 LYJ     -0.116400
      6 CD          4.1010   -0.0120    2.8950 c3        1 LYJ     -0.109400
      7 CE          5.5760   -0.4000    2.9480 c3        1 LYJ      0.100800
      8 CG          3.6210   -0.0110    1.4530 c3        1 LYJ     -0.086400
      9 NZ          6.1140   -0.4660    4.3380 n4        1 LYJ     -0.837600
     10 H          -0.1740   -1.0670    0.6540 h1        1 LYJ      0.078700
     11 HA         -0.4600    0.7480    0.6860 h1        1 LYJ      0.078700
     12 HN          2.8500    1.3140   -1.1050 hn        1 LYJ      0.470133
     13 HNA         1.3560    1.0590   -1.8310 hn        1 LYJ      0.470133
     14 HO         -1.3590   -0.5510   -1.1910 ho        1 LYJ      0.472000
     15 HAA         1.9850   -0.8210   -0.4820 hx        1 LYJ      0.123700
     16 HB          1.9540    1.3550    1.7600 hc        1 LYJ      0.092700
     17 HBA         1.5860   -0.3790    2.0900 hc        1 LYJ      0.092700
     18 HD          3.4860   -0.7410    3.4900 hc        1 LYJ      0.080700
     19 HDA         3.9490    1.0070    3.3420 hc        1 LYJ      0.080700
     20 HE          6.1950    0.3540    2.3790 hx        1 LYJ      0.119200
     21 HEA         5.7250   -1.4170    2.4780 hx        1 LYJ      0.119200
     22 HG          4.2070    0.7430    0.8640 hc        1 LYJ      0.061700
     23 HGA         3.8100   -1.0200    0.9960 hc        1 LYJ      0.061700
     24 HNZ         7.1080   -0.7290    4.3140 hn        1 LYJ      0.472133
     25 HNZA        5.6010   -1.1640    4.8890 hn        1 LYJ      0.472133
     26 HN3         1.4960    2.1230   -0.5540 hn        1 LYJ      0.470133
     27 HZ3         6.0250    0.4460    4.8020 hn        1 LYJ      0.472133
@<TRIPOS>BOND
     1    1    3 1   
     2    1    4 1   
     3    1   10 1   
     4    1   11 1   
     5    2    4 1   
     6    2   12 1   
     7    2   13 1   
     8    2   26 1   
     9    3   14 1   
    10    4    5 1   
    11    4   15 1   
    12    5    8 1   
    13    5   16 1   
    14    5   17 1   
    15    6    7 1   
    16    6    8 1   
    17    6   18 1   
    18    6   19 1   
    19    7    9 1   
    20    7   20 1   
    21    7   21 1   
    22    8   22 1   
    23    8   23 1   
    24    9   24 1   
    25    9   25 1   
    26    9   27 1   
@<TRIPOS>SUBSTRUCTURE
     1 LYJ         1 TEMP              0 ****  ****    0 ROOT
