@<TRIPOS>MOLECULE
LYJ
   27    26     1     0     0
SMALL
bcc


@<TRIPOS>ATOM
      1 C           0.0190   -0.1270    0.1070 c3        1 LYJ      0.116400
      2 N           1.8190    1.2920   -0.9010 n4        1 LYJ     -0.837600
      3 O          -0.4780   -0.1260   -1.2160 oh        1 LYJ     -0.632800
      4 CA          1.5450    0.1190   -0.0000 c3        1 LYJ      0.114500
      5 CB          2.1350    0.2910    1.3990 c3        1 LYJ     -0.116400
      6 CD          4.1020   -0.0320    2.8940 c3        1 LYJ     -0.109400
      7 CE          5.5840   -0.3880    2.9370 c3        1 LYJ      0.100800
      8 CG          3.6230    0.0040    1.4520 c3        1 LYJ     -0.085400
      9 NZ          6.1230   -0.4840    4.3250 n4        1 LYJ     -0.837600
     10 H          -0.1430   -1.1180    0.6100 h1        1 LYJ      0.078700
     11 HA         -0.4750    0.6870    0.7030 h1        1 LYJ      0.078700
     12 HN          2.8220    1.3970   -1.0620 hn        1 LYJ      0.470133
     13 HNA         1.3350    1.1290   -1.8000 hn        1 LYJ      0.470133
     14 HO         -1.3380   -0.5710   -1.2190 ho        1 LYJ      0.472000
     15 HAA         2.0100   -0.7790   -0.5130 hx        1 LYJ      0.123700
     16 HB          1.5960   -0.4340    2.0720 hc        1 LYJ      0.092700
     17 HBA         1.9240    1.3190    1.8000 hc        1 LYJ      0.092700
     18 HD          3.5020   -0.7920    3.4650 hc        1 LYJ      0.080700
     19 HDA         3.9260    0.9690    3.3720 hc        1 LYJ      0.080700
     20 HE          5.7570   -1.3860    2.4360 hx        1 LYJ      0.119200
     21 HEA         6.1870    0.3960    2.3920 hx        1 LYJ      0.119200
     22 HG          4.1910    0.7900    0.8880 hc        1 LYJ      0.061700
     23 HGA         3.8370   -0.9850    0.9630 hc        1 LYJ      0.061700
     24 HNZ         7.1220   -0.7250    4.2950 hn        1 LYJ      0.472133
     25 HNZA        6.0130    0.4100    4.8170 hn        1 LYJ      0.472133
     26 HN3         1.4470    2.1530   -0.4870 hn        1 LYJ      0.470133
     27 HZ3         5.6240   -1.2100    4.8540 hn        1 LYJ      0.472133
@<TRIPOS>BOND
     1    1    3 1   
     2    1    4 1   
     3    1   10 1   
     4    1   11 1   
     5    2    4 1   
     6    2   12 1   
     7    2   13 1   
     8    2   26 1   
     9    3   14 1   
    10    4    5 1   
    11    4   15 1   
    12    5    8 1   
    13    5   16 1   
    14    5   17 1   
    15    6    7 1   
    16    6    8 1   
    17    6   18 1   
    18    6   19 1   
    19    7    9 1   
    20    7   20 1   
    21    7   21 1   
    22    8   22 1   
    23    8   23 1   
    24    9   24 1   
    25    9   25 1   
    26    9   27 1   
@<TRIPOS>SUBSTRUCTURE
     1 LYJ         1 TEMP              0 ****  ****    0 ROOT
