@<TRIPOS>MOLECULE
LYK
   26    25     1     0     0
SMALL
bcc


@<TRIPOS>ATOM
      1 C          -2.4970   -0.4860   -0.4310 c3        1 LYK      0.282900
      2 N          -1.4500    1.4840    0.7700 n3        1 LYK     -0.899800
      3 O          -3.6630    0.2930   -0.5880 oh        1 LYK     -0.633800
      4 CA         -1.2920    0.4850   -0.2620 c3        1 LYK      0.151500
      5 CB         -0.0410   -0.3840   -0.0800 c3        1 LYK     -0.073400
      6 CD          2.4490   -0.4600   -0.0630 c3        1 LYK     -0.084400
      7 CE          3.7220    0.3860   -0.0480 c3        1 LYK      0.158800
      8 CG          1.2290    0.4370   -0.0940 c3        1 LYK     -0.074400
      9 NZ          4.9310   -0.4000    0.0270 n3        1 LYK     -0.916800
     10 OXT        -2.7540   -1.3080    0.6800 oh        1 LYK     -0.633800
     11 H          -2.3090    1.9810    0.6360 hn        1 LYK      0.355800
     12 H2         -1.4440    1.0660    1.6790 hn        1 LYK      0.355800
     13 HO         -4.4020   -0.3130   -0.7250 ho        1 LYK      0.413500
     14 HA         -1.2060    1.0470   -1.2400 h1        1 LYK      0.076700
     15 HB         -0.1190   -0.9610    0.8790 hc        1 LYK      0.047200
     16 HBA        -0.0140   -1.1310   -0.9170 hc        1 LYK      0.047200
     17 HD          2.4470   -1.1330   -0.9600 hc        1 LYK      0.045200
     18 HDA         2.4160   -1.1140    0.8470 hc        1 LYK      0.045200
     19 HE          3.7010    1.0620   -0.9550 h1        1 LYK      0.025200
     20 HEA         3.7020    1.0550    0.8600 h1        1 LYK      0.025200
     21 HG          1.2520    1.0790   -1.0140 hc        1 LYK      0.050200
     22 HGA         1.2480    1.1270    0.7900 hc        1 LYK      0.050200
     23 HNZ         4.9420   -1.1120   -0.6750 hn        1 LYK      0.347300
     24 HNZA        5.7330    0.1860   -0.0860 hn        1 LYK      0.347300
     25 HXT        -2.8770   -0.7480    1.4560 ho        1 LYK      0.413500
     26 H1         -2.3320   -1.1910   -1.2930 h2        1 LYK      0.075700
@<TRIPOS>BOND
     1    1    3 1   
     2    1    4 1   
     3    1   10 1   
     4    1   26 1   
     5    2    4 1   
     6    2   11 1   
     7    2   12 1   
     8    3   13 1   
     9    4    5 1   
    10    4   14 1   
    11    5    8 1   
    12    5   15 1   
    13    5   16 1   
    14    6    7 1   
    15    6    8 1   
    16    6   17 1   
    17    6   18 1   
    18    7    9 1   
    19    7   19 1   
    20    7   20 1   
    21    8   21 1   
    22    8   22 1   
    23    9   23 1   
    24    9   24 1   
    25   10   25 1   
@<TRIPOS>SUBSTRUCTURE
     1 LYK         1 TEMP              0 ****  ****    0 ROOT
