@<TRIPOS>MOLECULE
LYL
   23    23     1     0     0
SMALL
bcc


@<TRIPOS>ATOM
      1 C1          0.1170    0.0590   -0.0970 ca        1 LYL     -0.094300
      2 C2          1.5080   -0.1450    0.0080 ca        1 LYL      0.130100
      3 C3         -0.6160    0.2680    1.0740 ca        1 LYL     -0.103000
      4 C4         -0.5690    0.0390   -1.4200 c3        1 LYL     -0.003900
      5 C5          2.1540   -0.1360    1.2600 ca        1 LYL     -0.157300
      6 C15         3.6150   -0.3490    1.3690 c3        1 LYL     -0.054800
      7 O6          2.1840   -0.3610   -1.1730 oh        1 LYL     -0.501100
      8 C7          0.0120    0.2800    2.3180 ca        1 LYL     -0.159000
      9 C8          1.3870    0.0800    2.4080 ca        1 LYL     -0.095000
     10 C13        -1.1650    1.3570   -1.7640 c2        1 LYL     -0.158200
     11 C14        -1.0910    1.9070   -2.9730 c2        1 LYL     -0.223000
     12 HC3        -1.7030    0.4240    1.0050 ha        1 LYL      0.134000
     13 HC41        0.1490   -0.2870   -2.2210 hc        1 LYL      0.063200
     14 HC42       -1.3960   -0.7260   -1.3840 hc        1 LYL      0.063200
     15 H151        4.1720    0.4440    0.8080 hc        1 LYL      0.044367
     16 H152        3.9470   -0.3160    2.4350 hc        1 LYL      0.044367
     17 H153        3.9010   -1.3470    0.9480 hc        1 LYL      0.044367
     18 HO6         3.1270   -0.4510   -0.9740 ho        1 LYL      0.420000
     19 HC7        -0.5800    0.4460    3.2290 ha        1 LYL      0.133000
     20 HC8         1.8780    0.0910    3.3930 ha        1 LYL      0.131000
     21 H13        -1.6940    1.8610   -0.9370 ha        1 LYL      0.119000
     22 H141       -0.5620    1.4340   -3.8110 ha        1 LYL      0.111000
     23 H142       -1.5560    2.8740   -3.2050 ha        1 LYL      0.111000
@<TRIPOS>BOND
     1    1    2 ar  
     2    1    3 ar  
     3    1    4 1   
     4    2    5 ar  
     5    2    7 1   
     6    3    8 ar  
     7    3   12 1   
     8    4   10 1   
     9    4   13 1   
    10    4   14 1   
    11    5    6 1   
    12    5    9 ar  
    13    6   15 1   
    14    6   16 1   
    15    6   17 1   
    16    7   18 1   
    17    8    9 ar  
    18    8   19 1   
    19    9   20 1   
    20   10   11 2   
    21   10   21 1   
    22   11   22 1   
    23   11   23 1   
@<TRIPOS>SUBSTRUCTURE
     1 LYL         1 TEMP              0 ****  ****    0 ROOT
