@<TRIPOS>MOLECULE
LYL
   23    23     1     0     0
SMALL
bcc


@<TRIPOS>ATOM
      1 C1         -0.6290   -0.2980   -0.3680 ca        1 LYL     -0.153300
      2 C2          0.5270   -0.0740    0.4020 ca        1 LYL      0.130100
      3 C3         -1.8750   -0.2450    0.2650 ca        1 LYL     -0.097000
      4 C4         -0.5450   -0.6180   -1.8210 c3        1 LYL     -0.011900
      5 C5          0.4440    0.1870    1.7870 ca        1 LYL     -0.099300
      6 C15         1.6780    0.4020    2.5750 c3        1 LYL     -0.042800
      7 O6          1.7990   -0.1160   -0.1250 oh        1 LYL     -0.502100
      8 C7         -1.9690    0.0170    1.6290 ca        1 LYL     -0.160000
      9 C8         -0.8160    0.2280    2.3840 ca        1 LYL     -0.102000
     10 C13        -0.1190    0.5490   -2.6380 c2        1 LYL     -0.171200
     11 C14         0.8800    0.5100   -3.5170 c2        1 LYL     -0.229000
     12 HC3        -2.7890   -0.4150   -0.3240 ha        1 LYL      0.131000
     13 HC41        0.1600   -1.4830   -1.9680 hc        1 LYL      0.058200
     14 HC42       -1.5530   -0.9550   -2.1920 hc        1 LYL      0.058200
     15 H151        2.2310   -0.5650    2.6870 hc        1 LYL      0.046700
     16 H152        2.3530    1.1210    2.0460 hc        1 LYL      0.046700
     17 H153        1.4460    0.8020    3.5910 hc        1 LYL      0.046700
     18 HO6         1.7270   -0.0870   -1.0920 ho        1 LYL      0.425000
     19 HC7        -2.9560    0.0550    2.1130 ha        1 LYL      0.133000
     20 HC8        -0.8970    0.4320    3.4620 ha        1 LYL      0.134000
     21 H13        -0.7030    1.4700   -2.4730 ha        1 LYL      0.131000
     22 H141        1.1610    1.3830   -4.1220 ha        1 LYL      0.114500
     23 H142        1.4790   -0.3920   -3.7000 ha        1 LYL      0.114500
@<TRIPOS>BOND
     1    1    2 ar  
     2    1    3 ar  
     3    1    4 1   
     4    2    5 ar  
     5    2    7 1   
     6    3    8 ar  
     7    3   12 1   
     8    4   10 1   
     9    4   13 1   
    10    4   14 1   
    11    5    6 1   
    12    5    9 ar  
    13    6   15 1   
    14    6   16 1   
    15    6   17 1   
    16    7   18 1   
    17    8    9 ar  
    18    8   19 1   
    19    9   20 1   
    20   10   11 2   
    21   10   21 1   
    22   11   22 1   
    23   11   23 1   
@<TRIPOS>SUBSTRUCTURE
     1 LYL         1 TEMP              0 ****  ****    0 ROOT
