@<TRIPOS>MOLECULE
LYL
   23    23     1     0     0
SMALL
bcc


@<TRIPOS>ATOM
      1 C1          0.1160    0.0640   -0.1030 ca        1 LYL     -0.094300
      2 C2          1.5060   -0.1490    0.0000 ca        1 LYL      0.130100
      3 C3         -0.6180    0.2540    1.0710 ca        1 LYL     -0.103000
      4 C4         -0.5680    0.0720   -1.4270 c3        1 LYL     -0.003900
      5 C5          2.1500   -0.1660    1.2530 ca        1 LYL     -0.157300
      6 C15         3.6100   -0.3880    1.3590 c3        1 LYL     -0.054800
      7 O6          2.1830   -0.3450   -1.1840 oh        1 LYL     -0.501100
      8 C7          0.0080    0.2390    2.3160 ca        1 LYL     -0.159000
      9 C8          1.3820    0.0320    2.4040 ca        1 LYL     -0.095000
     10 C13        -1.1580    1.3990   -1.7460 c2        1 LYL     -0.158200
     11 C14        -1.0790    1.9720   -2.9450 c2        1 LYL     -0.223000
     12 HC3        -1.7040    0.4160    1.0040 ha        1 LYL      0.134000
     13 HC41        0.1490   -0.2420   -2.2330 hc        1 LYL      0.063200
     14 HC42       -1.3990   -0.6890   -1.4070 hc        1 LYL      0.063200
     15 H151        4.1710    0.4130    0.8140 hc        1 LYL      0.044367
     16 H152        3.9410   -0.3760    2.4270 hc        1 LYL      0.044367
     17 H153        3.8920   -1.3780    0.9200 hc        1 LYL      0.044367
     18 HO6         3.1250   -0.4430   -0.9850 ho        1 LYL      0.420000
     19 HC7        -0.5840    0.3910    3.2290 ha        1 LYL      0.133000
     20 HC8         1.8720    0.0220    3.3890 ha        1 LYL      0.131000
     21 H13        -1.6870    1.8890   -0.9110 ha        1 LYL      0.118000
     22 H141       -0.5500    1.5130   -3.7900 ha        1 LYL      0.111000
     23 H142       -1.5390    2.9450   -3.1590 ha        1 LYL      0.111000
@<TRIPOS>BOND
     1    1    2 ar  
     2    1    3 ar  
     3    1    4 1   
     4    2    5 ar  
     5    2    7 1   
     6    3    8 ar  
     7    3   12 1   
     8    4   10 1   
     9    4   13 1   
    10    4   14 1   
    11    5    6 1   
    12    5    9 ar  
    13    6   15 1   
    14    6   16 1   
    15    6   17 1   
    16    7   18 1   
    17    8    9 ar  
    18    8   19 1   
    19    9   20 1   
    20   10   11 2   
    21   10   21 1   
    22   11   22 1   
    23   11   23 1   
@<TRIPOS>SUBSTRUCTURE
     1 LYL         1 TEMP              0 ****  ****    0 ROOT
