@<TRIPOS>MOLECULE
LYM
   26    25     1     0     0
SMALL
bcc


@<TRIPOS>ATOM
      1 N          -1.8080   -0.4900    1.5850 n3        1 LYM     -0.898800
      2 CA         -0.3710   -0.4430    1.4110 c3        1 LYM      0.068500
      3 C           0.3190    0.1680    2.6350 c         1 LYM      0.572100
      4 O          -0.0810    1.2130    3.1520 o         1 LYM     -0.530100
      5 CB          0.1430    0.3270    0.1820 c3        1 LYM     -0.115400
      6 CG         -0.2970   -0.3150   -1.1150 c3        1 LYM     -0.078400
      7 CD          0.3970    0.3280   -2.2970 c3        1 LYM     -0.083400
      8 CE         -0.0860   -0.3080   -3.6010 c3        1 LYM      0.159800
      9 NZ          0.5890    0.2050   -4.7690 n3        1 LYM     -0.916800
     10 CM          1.5080   -0.5840    3.1300 c3        1 LYM     -0.200100
     11 H          -2.2550   -0.6900    0.7120 hn        1 LYM      0.357800
     12 H2         -2.1510    0.3830    1.9400 hn        1 LYM      0.357800
     13 HA         -0.0320   -1.5180    1.3130 h1        1 LYM      0.069700
     14 HB2        -0.2140    1.3890    0.2250 hc        1 LYM      0.053200
     15 HB3         1.2640    0.3480    0.2250 hc        1 LYM      0.053200
     16 HG2        -0.0640   -1.4130   -1.0930 hc        1 LYM      0.041200
     17 HG3        -1.4080   -0.2150   -1.2380 hc        1 LYM      0.041200
     18 HD2         0.1840    1.4290   -2.3050 hc        1 LYM      0.049200
     19 HD3         1.5070    0.2020   -2.2000 hc        1 LYM      0.049200
     20 HE2         0.1150   -1.4170   -3.5590 h1        1 LYM      0.024200
     21 HE3        -1.2080   -0.1780   -3.6570 h1        1 LYM      0.024200
     22 HZ1         0.1670   -0.1570   -5.6010 hn        1 LYM      0.349300
     23 HZ2         0.5620    1.2040   -4.7930 hn        1 LYM      0.349300
     24 HM1         2.0420   -0.0070    3.9240 hc        1 LYM      0.067033
     25 HM2         1.1740   -1.5620    3.5560 hc        1 LYM      0.067033
     26 HM3         2.2130   -0.7830    2.2850 hc        1 LYM      0.067033
@<TRIPOS>BOND
     1    1    2 1   
     2    1   11 1   
     3    1   12 1   
     4    2    3 1   
     5    2    5 1   
     6    2   13 1   
     7    3    4 2   
     8    3   10 1   
     9    5    6 1   
    10    5   14 1   
    11    5   15 1   
    12    6    7 1   
    13    6   16 1   
    14    6   17 1   
    15    7    8 1   
    16    7   18 1   
    17    7   19 1   
    18    8    9 1   
    19    8   20 1   
    20    8   21 1   
    21    9   22 1   
    22    9   23 1   
    23   10   24 1   
    24   10   25 1   
    25   10   26 1   
@<TRIPOS>SUBSTRUCTURE
     1 LYM         1 TEMP              0 ****  ****    0 ROOT
