@<TRIPOS>MOLECULE
LYM
   26    25     1     0     0
SMALL
bcc


@<TRIPOS>ATOM
      1 N          -2.0260   -0.8480    1.3360 n3        1 LYM     -0.887800
      2 CA         -0.6030   -0.8480    1.3360 c3        1 LYM      0.070500
      3 C          -0.0990   -0.8480    2.7610 c         1 LYM      0.524100
      4 O          -0.1160    0.1780    3.4110 o         1 LYM     -0.535100
      5 CB         -0.0990    0.3860    0.6240 c3        1 LYM     -0.069400
      6 CG         -0.0150    0.1110   -0.8620 c3        1 LYM     -0.076400
      7 CD          0.4380    1.3630   -1.5810 c3        1 LYM     -0.084400
      8 CE          0.5690    1.0750   -3.0600 c3        1 LYM      0.159800
      9 NZ          0.9440    2.2680   -3.7450 n3        1 LYM     -0.916800
     10 CM          0.4230   -2.1270    3.3790 c3        1 LYM     -0.201100
     11 H          -2.3300   -1.6720    1.0890 hn        1 LYM      0.355800
     12 H2         -2.3300   -0.6510    2.1730 hn        1 LYM      0.355800
     13 HA         -0.2780   -1.6450    0.8760 h1        1 LYM      0.072700
     14 HB2         0.7860    0.6180    0.9630 hc        1 LYM      0.047700
     15 HB3        -0.7140    1.1270    0.7830 hc        1 LYM      0.047700
     16 HG2         0.6260   -0.6070   -1.0240 hc        1 LYM      0.051700
     17 HG3        -0.8930   -0.1550   -1.1940 hc        1 LYM      0.051700
     18 HD2         1.3020    1.6470   -1.2270 hc        1 LYM      0.045200
     19 HD3        -0.2180    2.0720   -1.4440 hc        1 LYM      0.045200
     20 HE2        -0.2850    0.7550   -3.4060 h1        1 LYM      0.025200
     21 HE3         1.2530    0.3920   -3.1990 h1        1 LYM      0.025200
     22 HZ1         0.3100    2.4720   -4.3680 hn        1 LYM      0.347800
     23 HZ2         1.7470    2.1420   -4.1590 hn        1 LYM      0.347800
     24 HM1         1.2790   -2.3600    2.9710 hc        1 LYM      0.065367
     25 HM2         0.5450   -1.9980    4.3390 hc        1 LYM      0.065367
     26 HM3        -0.2180   -2.8470    3.2260 hc        1 LYM      0.065367
@<TRIPOS>BOND
     1    1    2 1   
     2    1   11 1   
     3    1   12 1   
     4    2    3 1   
     5    2    5 1   
     6    2   13 1   
     7    3    4 2   
     8    3   10 1   
     9    5    6 1   
    10    5   14 1   
    11    5   15 1   
    12    6    7 1   
    13    6   16 1   
    14    6   17 1   
    15    7    8 1   
    16    7   18 1   
    17    7   19 1   
    18    8    9 1   
    19    8   20 1   
    20    8   21 1   
    21    9   22 1   
    22    9   23 1   
    23   10   24 1   
    24   10   25 1   
    25   10   26 1   
@<TRIPOS>SUBSTRUCTURE
     1 LYM         1 TEMP              0 ****  ****    0 ROOT
