@<TRIPOS>MOLECULE
LYN
   26    25     1     0     0
SMALL
bcc


@<TRIPOS>ATOM
      1 N           1.7030    1.3760    0.6580 n3        1 LYN     -0.912800
      2 CA          1.3260   -0.0110    0.5150 c3        1 LYN      0.101500
      3 CB          0.0700   -0.2840   -0.3300 c3        1 LYN     -0.122400
      4 CG         -1.1870    0.2140    0.3470 c3        1 LYN     -0.076400
      5 CD         -2.4060   -0.2620   -0.4240 c3        1 LYN     -0.111400
      6 CE         -3.6710    0.2130    0.2780 c3        1 LYN      0.099800
      7 NZ         -4.9140   -0.2520   -0.4090 n4        1 LYN     -0.839600
      8 C           2.4780   -0.8630   -0.0730 c         1 LYN      0.656100
      9 O           2.2490   -1.7050   -0.9650 o         1 LYN     -0.624100
     10 NT          3.7280   -0.7070    0.4500 n         1 LYN     -0.645000
     11 H           1.9620    1.7800   -0.2200 hn        1 LYN      0.361800
     12 H2          0.9600    1.9060    1.0680 hn        1 LYN      0.361800
     13 HA          1.1370   -0.4120    1.5590 h1        1 LYN      0.078700
     14 HB2         0.1820    0.1900   -1.3400 hc        1 LYN      0.075700
     15 HB3        -0.0010   -1.3940   -0.4970 hc        1 LYN      0.075700
     16 HG2        -1.2310   -0.1720    1.4000 hc        1 LYN      0.053200
     17 HG3        -1.1880    1.3340    0.3970 hc        1 LYN      0.053200
     18 HD2        -2.3620    0.1390   -1.4720 hc        1 LYN      0.074700
     19 HD3        -2.3880   -1.3840   -0.4850 hc        1 LYN      0.074700
     20 HE2        -3.6980   -0.1790    1.3360 hx        1 LYN      0.113200
     21 HE3        -3.6980    1.3410    0.3090 hx        1 LYN      0.113200
     22 HZ1        -4.9360    0.1010   -1.3720 hn        1 LYN      0.462133
     23 HZ2        -4.9360   -1.2770   -0.4390 hn        1 LYN      0.462133
     24 HZ3        -5.7410    0.0870    0.0920 hn        1 LYN      0.462133
     25 HNT1        3.9250   -0.0010    1.1130 hn        1 LYN      0.326500
     26 HNT2        4.4780   -1.2400    0.0800 hn        1 LYN      0.326500
@<TRIPOS>BOND
     1    1    2 1   
     2    1   11 1   
     3    1   12 1   
     4    2    3 1   
     5    2    8 1   
     6    2   13 1   
     7    3    4 1   
     8    3   14 1   
     9    3   15 1   
    10    4    5 1   
    11    4   16 1   
    12    4   17 1   
    13    5    6 1   
    14    5   18 1   
    15    5   19 1   
    16    6    7 1   
    17    6   20 1   
    18    6   21 1   
    19    7   22 1   
    20    7   23 1   
    21    7   24 1   
    22    8    9 2   
    23    8   10 1   
    24   10   25 1   
    25   10   26 1   
@<TRIPOS>SUBSTRUCTURE
     1 LYN         1 TEMP              0 ****  ****    0 ROOT
