@<TRIPOS>MOLECULE
LYO
   24    23     1     0     0
SMALL
bcc


@<TRIPOS>ATOM
      1 N           1.5110    1.6270    0.7390 n3        1 LYO     -0.906800
      2 CA          1.4070    0.1980    0.4960 c3        1 LYO      0.026500
      3 C           2.6830   -0.4560   -0.1390 c         1 LYO      0.898600
      4 O           3.5720    0.3010   -0.6180 o         1 LYO     -0.841300
      5 CB          0.2280   -0.2210   -0.3860 c3        1 LYO     -0.108400
      6 CG         -1.1090    0.3310    0.0910 c3        1 LYO      0.134100
      7 OG         -1.3710    1.6280   -0.4350 oh        1 LYO     -0.609800
      8 CD         -2.2450   -0.6220   -0.2820 c3        1 LYO     -0.115400
      9 CE         -3.5690   -0.1210    0.2870 c3        1 LYO      0.151800
     10 NZ         -4.7080   -0.9390   -0.0660 n3        1 LYO     -0.915800
     11 OXT         2.7340   -1.7170   -0.1370 o         1 LYO     -0.841300
     12 H           2.4550    1.9150    0.5350 hn        1 LYO      0.339300
     13 H2          0.9010    2.1270    0.1170 hn        1 LYO      0.339300
     14 HA          1.2700   -0.2790    1.5110 h1        1 LYO      0.041700
     15 HB1         0.4130    0.1100   -1.4420 hc        1 LYO      0.054200
     16 HB2         0.2070   -1.3430   -0.3860 hc        1 LYO      0.054200
     17 HG         -1.0950    0.4950    1.2060 h1        1 LYO      0.079700
     18 HOG        -1.1800    1.5970   -1.3790 ho        1 LYO      0.390000
     19 HD1        -2.3110   -0.7020   -1.3980 hc        1 LYO      0.046200
     20 HD2        -2.0100   -1.6400    0.1220 hc        1 LYO      0.046200
     21 HE1        -3.4480   -0.0230    1.4080 h1        1 LYO      0.032200
     22 HE2        -3.7590    0.9160   -0.1140 h1        1 LYO      0.032200
     23 HZ1        -4.4840   -1.9120    0.0060 hn        1 LYO      0.336800
     24 HZ2        -5.4740   -0.7410    0.5460 hn        1 LYO      0.336800
@<TRIPOS>BOND
     1    1    2 1   
     2    1   12 1   
     3    1   13 1   
     4    2    3 1   
     5    2    5 1   
     6    2   14 1   
     7    3    4 1   
     8    3   11 1   
     9    5    6 1   
    10    5   15 1   
    11    5   16 1   
    12    6    7 1   
    13    6    8 1   
    14    6   17 1   
    15    7   18 1   
    16    8    9 1   
    17    8   19 1   
    18    8   20 1   
    19    9   10 1   
    20    9   21 1   
    21    9   22 1   
    22   10   23 1   
    23   10   24 1   
@<TRIPOS>SUBSTRUCTURE
     1 LYO         1 TEMP              0 ****  ****    0 ROOT
