@<TRIPOS>MOLECULE
LYP
   37    36     1     0     0
SMALL
bcc


@<TRIPOS>ATOM
      1 N           2.2440    0.2220    0.1120 n4        1 LYP     -0.828600
      2 CA          1.3330    1.0560    0.9620 c3        1 LYP     -0.020500
      3 CB          0.1760    0.2310    1.5340 c3        1 LYP     -0.086400
      4 CG         -0.5090    0.9540    2.6820 c3        1 LYP     -0.075400
      5 CD          0.1270    0.6640    4.0360 c3        1 LYP     -0.104400
      6 CE          0.4980    1.9420    4.7930 c3        1 LYP      0.117800
      7 NZ          1.9270    1.9790    5.2550 n4        1 LYP     -0.690400
      8 CM          2.1250    1.0960    6.4260 c3        1 LYP      0.086100
      9 C           2.1750    1.6520    2.1360 c         1 LYP      0.902600
     10 O           2.9900    0.8640    2.7040 o         1 LYP     -0.797800
     11 CCA         4.1220    5.0020    6.1070 c3        1 LYP     -0.099100
     12 CCC         3.7640    3.5380    6.0330 c3        1 LYP     -0.098400
     13 CCD         2.3300    3.3940    5.5410 c3        1 LYP      0.107800
     14 OXT         1.9530    2.8340    2.4790 o         1 LYP     -0.797800
     15 HN1         2.7880    0.8300   -0.5030 hn        1 LYP      0.457467
     16 HN2         2.8920   -0.2720    0.7500 hn        1 LYP      0.457467
     17 HA          0.9310    1.8970    0.3280 hx        1 LYP      0.115700
     18 HBC1        0.5450   -0.7680    1.8890 hc        1 LYP      0.059700
     19 HBC2       -0.5760    0.0470    0.7210 hc        1 LYP      0.059700
     20 HGC1       -1.5820    0.6200    2.7110 hc        1 LYP      0.074200
     21 HGC2       -0.5140    2.0560    2.4660 hc        1 LYP      0.074200
     22 HDC1        1.0300    0.0090    3.8910 hc        1 LYP      0.072200
     23 HDC2       -0.5980    0.0810    4.6650 hc        1 LYP      0.072200
     24 HEC1        0.3510    2.8430    4.1240 hx        1 LYP      0.102700
     25 HEC2       -0.1560    2.0580    5.7020 hx        1 LYP      0.102700
     26 HMC1        1.6910    0.0860    6.2030 hx        1 LYP      0.091367
     27 HMC2        1.6180    1.5340    7.3260 hx        1 LYP      0.091367
     28 HMC3        3.2240    0.9910    6.6300 hx        1 LYP      0.091367
     29 HCD1        2.2150    3.9600    4.5650 hx        1 LYP      0.106200
     30 HCD2        1.6160    3.8140    6.3030 hx        1 LYP      0.106200
     31 HCA1        3.4330    5.5460    6.7980 hc        1 LYP      0.054700
     32 HCA2        4.0630    5.4780    5.0980 hc        1 LYP      0.054700
     33 HCA3        5.1660    5.1140    6.4890 hc        1 LYP      0.054700
     34 HCC1        4.4710    3.0150    5.3340 hc        1 LYP      0.061200
     35 HCC2        3.8770    3.0730    7.0480 hc        1 LYP      0.061200
     36 HN3         1.7180   -0.4530   -0.4420 hn        1 LYP      0.457467
     37 HZ1         2.5370    1.6390    4.4760 hn        1 LYP      0.502800
@<TRIPOS>BOND
     1    1    2 1   
     2    1   15 1   
     3    1   16 1   
     4    1   36 1   
     5    2    3 1   
     6    2    9 1   
     7    2   17 1   
     8    3    4 1   
     9    3   18 1   
    10    3   19 1   
    11    4    5 1   
    12    4   20 1   
    13    4   21 1   
    14    5    6 1   
    15    5   22 1   
    16    5   23 1   
    17    6    7 1   
    18    6   24 1   
    19    6   25 1   
    20    7    8 1   
    21    7   13 1   
    22    7   37 1   
    23    8   26 1   
    24    8   27 1   
    25    8   28 1   
    26    9   10 1   
    27    9   14 1   
    28   11   12 1   
    29   11   31 1   
    30   11   32 1   
    31   11   33 1   
    32   12   13 1   
    33   12   34 1   
    34   12   35 1   
    35   13   29 1   
    36   13   30 1   
@<TRIPOS>SUBSTRUCTURE
     1 LYP         1 TEMP              0 ****  ****    0 ROOT
