@<TRIPOS>MOLECULE
LYP
   37    36     1     0     0
SMALL
bcc


@<TRIPOS>ATOM
      1 N           2.3850    0.0970    0.1890 nz        1 LYP     -0.828600
      2 CA          1.5090    1.0530    0.9420 c3        1 LYP     -0.020500
      3 CB          0.2130    0.3850    1.4110 c3        1 LYP     -0.086400
      4 CG         -0.4830    1.2100    2.4820 c3        1 LYP     -0.075400
      5 CD         -0.0140    0.8760    3.8920 c3        1 LYP     -0.104400
      6 CE          0.4390    2.1160    4.6670 c3        1 LYP      0.117800
      7 NZ          1.8130    1.9910    5.2610 nx        1 LYP     -0.690400
      8 CM          1.7940    1.1170    6.4550 c3        1 LYP      0.086100
      9 C           2.3060    1.5680    2.1830 c         1 LYP      0.902600
     10 O           2.9630    0.7010    2.8330 o         1 LYP     -0.797800
     11 CCA         4.2720    4.7470    6.2840 c3        1 LYP     -0.099100
     12 CCC         3.7480    3.3350    6.1910 c3        1 LYP     -0.098400
     13 CCD         2.3570    3.3540    5.5680 c3        1 LYP      0.107800
     14 OXT         2.1980    2.7760    2.4900 o         1 LYP     -0.797800
     15 HN1         1.8350   -0.5220   -0.4050 hn        1 LYP      0.457467
     16 HN2         2.9070   -0.4570    0.8900 hn        1 LYP      0.457467
     17 HA          1.2720    1.9220    0.2640 hx        1 LYP      0.115700
     18 HBC1       -0.4780    0.2750    0.5330 hc        1 LYP      0.059700
     19 HBC2        0.4230   -0.6430    1.8090 hc        1 LYP      0.059700
     20 HGC1       -0.3340    2.3000    2.2550 hc        1 LYP      0.074200
     21 HGC2       -1.5860    1.0080    2.4130 hc        1 LYP      0.074200
     22 HDC1       -0.8580    0.3980    4.4570 hc        1 LYP      0.072200
     23 HDC2        0.8130    0.1140    3.8400 hc        1 LYP      0.072200
     24 HEC1       -0.2760    2.3300    5.5100 hx        1 LYP      0.102700
     25 HEC2        0.4660    3.0130    3.9780 hx        1 LYP      0.102700
     26 HMC1        2.8490    0.8840    6.7620 hx        1 LYP      0.091367
     27 HMC2        1.2640    1.6320    7.2980 hx        1 LYP      0.091367
     28 HMC3        1.2620    0.1610    6.2030 hx        1 LYP      0.091367
     29 HCD1        1.6330    3.8730    6.2560 hx        1 LYP      0.106200
     30 HCD2        2.4030    3.9080    4.5800 hx        1 LYP      0.106200
     31 HCA1        3.5940    5.3850    6.9010 hc        1 LYP      0.054700
     32 HCA2        5.2830    4.7410    6.7610 hc        1 LYP      0.054700
     33 HCA3        4.3650    5.2040    5.2690 hc        1 LYP      0.054700
     34 HCC1        3.7090    2.8820    7.2170 hc        1 LYP      0.061200
     35 HCC2        4.4460    2.7160    5.5680 hc        1 LYP      0.061200
     36 HN3         3.0540    0.6210   -0.3780 hn        1 LYP      0.457467
     37 HZ1         2.4470    1.5630    4.5460 hn        1 LYP      0.502800
@<TRIPOS>BOND
     1    1    2 1   
     2    1   15 1   
     3    1   16 1   
     4    1   36 1   
     5    2    3 1   
     6    2    9 1   
     7    2   17 1   
     8    3    4 1   
     9    3   18 1   
    10    3   19 1   
    11    4    5 1   
    12    4   20 1   
    13    4   21 1   
    14    5    6 1   
    15    5   22 1   
    16    5   23 1   
    17    6    7 1   
    18    6   24 1   
    19    6   25 1   
    20    7    8 1   
    21    7   13 1   
    22    7   37 1   
    23    8   26 1   
    24    8   27 1   
    25    8   28 1   
    26    9   10 1   
    27    9   14 1   
    28   11   12 1   
    29   11   31 1   
    30   11   32 1   
    31   11   33 1   
    32   12   13 1   
    33   12   34 1   
    34   12   35 1   
    35   13   29 1   
    36   13   30 1   
@<TRIPOS>SUBSTRUCTURE
     1 LYP         1 TEMP              0 ****  ****    0 ROOT
