@<TRIPOS>MOLECULE
LYP
   35    34     1     0     0
SMALL
bcc


@<TRIPOS>ATOM
      1 N           3.3170    1.6340    1.0730 n3        1 LYP     -0.892800
      2 CA          3.1940    0.2560    0.6140 c3        1 LYP      0.018500
      3 CB          1.9760    0.0210   -0.2810 c3        1 LYP     -0.063400
      4 CG          0.6690    0.2360    0.4500 c3        1 LYP     -0.076400
      5 CD         -0.5140   -0.0880   -0.4400 c3        1 LYP     -0.082400
      6 CE         -1.8160    0.2390    0.2870 c3        1 LYP      0.168800
      7 NZ         -3.0340   -0.1980   -0.3910 n3        1 LYP     -0.737600
      8 CM         -3.0760    0.1530   -1.7900 c3        1 LYP      0.157100
      9 C           4.4570   -0.2900   -0.1320 c         1 LYP      0.887600
     10 O           5.4520    0.4800   -0.2590 o         1 LYP     -0.844800
     11 CCA        -6.6020   -0.2090    0.9280 c3        1 LYP     -0.092100
     12 CCC        -5.4760   -0.5800   -0.0020 c3        1 LYP     -0.082400
     13 CCD        -4.2210    0.2240    0.3410 c3        1 LYP      0.172800
     14 OXT         4.4200   -1.4810   -0.5480 o         1 LYP     -0.844800
     15 HN1         4.2510    1.7430    1.4350 hn        1 LYP      0.329800
     16 HN2         3.2560    2.2410    0.2750 hn        1 LYP      0.329800
     17 HA          3.0750   -0.3780    1.5410 h1        1 LYP      0.040700
     18 HBC1        2.0220    0.6940   -1.1770 hc        1 LYP      0.046700
     19 HBC2        2.0400   -1.0370   -0.6530 hc        1 LYP      0.046700
     20 HGC1        0.6410   -0.4130    1.3650 hc        1 LYP      0.036700
     21 HGC2        0.5980    1.3000    0.7980 hc        1 LYP      0.036700
     22 HDC1       -0.4420    0.5110   -1.3850 hc        1 LYP      0.042200
     23 HDC2       -0.4870   -1.1720   -0.7240 hc        1 LYP      0.042200
     24 HEC1       -1.8010   -0.2790    1.2880 h1        1 LYP      0.026200
     25 HEC2       -1.8390    1.3530    0.4830 h1        1 LYP      0.026200
     26 HMC1       -2.2400   -0.3770   -2.3190 h1        1 LYP      0.027033
     27 HMC2       -4.0470   -0.1920   -2.2330 h1        1 LYP      0.027033
     28 HMC3       -2.9740    1.2580   -1.9760 h1        1 LYP      0.027033
     29 HCD1       -4.0180    0.0910    1.4420 h1        1 LYP      0.025200
     30 HCD2       -4.4450    1.3190    0.1740 h1        1 LYP      0.025200
     31 HCA1       -6.8280    0.8820    0.8620 hc        1 LYP      0.028700
     32 HCA2       -7.5260   -0.7770    0.6620 hc        1 LYP      0.028700
     33 HCA3       -6.3360   -0.4470    1.9870 hc        1 LYP      0.028700
     34 HCC1       -5.2600   -1.6770    0.0810 hc        1 LYP      0.044700
     35 HCC2       -5.7860   -0.3800   -1.0610 hc        1 LYP      0.044700
@<TRIPOS>BOND
     1    1    2 1   
     2    1   15 1   
     3    1   16 1   
     4    2    3 1   
     5    2    9 1   
     6    2   17 1   
     7    3    4 1   
     8    3   18 1   
     9    3   19 1   
    10    4    5 1   
    11    4   20 1   
    12    4   21 1   
    13    5    6 1   
    14    5   22 1   
    15    5   23 1   
    16    6    7 1   
    17    6   24 1   
    18    6   25 1   
    19    7    8 1   
    20    7   13 1   
    21    8   26 1   
    22    8   27 1   
    23    8   28 1   
    24    9   10 1   
    25    9   14 1   
    26   11   12 1   
    27   11   31 1   
    28   11   32 1   
    29   11   33 1   
    30   12   13 1   
    31   12   34 1   
    32   12   35 1   
    33   13   29 1   
    34   13   30 1   
@<TRIPOS>SUBSTRUCTURE
     1 LYP         1 TEMP              0 ****  ****    0 ROOT
