@<TRIPOS>MOLECULE
LYP
   37    36     1     0     0
SMALL
bcc


@<TRIPOS>ATOM
      1 N           2.1810    0.3570    0.0490 n4        1 LYP     -0.828600
      2 CA          1.2510    1.0910    0.9670 c3        1 LYP     -0.020500
      3 CB          0.1970    0.1590    1.5720 c3        1 LYP     -0.086400
      4 CG         -0.4860    0.7930    2.7730 c3        1 LYP     -0.075400
      5 CD          0.2410    0.5260    4.0840 c3        1 LYP     -0.104400
      6 CE          0.5440    1.8120    4.8570 c3        1 LYP      0.117800
      7 NZ          1.9870    1.9570    5.2500 n4        1 LYP     -0.690400
      8 CM          2.3180    1.0670    6.3840 c3        1 LYP      0.086100
      9 C           2.1000    1.7270    2.1140 c         1 LYP      0.902600
     10 O           3.0060    0.9970    2.6180 o         1 LYP     -0.797800
     11 CCA         3.9660    5.1330    6.0770 c3        1 LYP     -0.099100
     12 CCC         3.7280    3.6470    5.9790 c3        1 LYP     -0.098400
     13 CCD         2.2860    3.3950    5.5540 c3        1 LYP      0.107800
     14 OXT         1.7990    2.8780    2.5000 o         1 LYP     -0.797800
     15 HN1         2.9010   -0.0960    0.6400 hn        1 LYP      0.457467
     16 HN2         2.6420    1.0220   -0.5740 hn        1 LYP      0.457467
     17 HA          0.7480    1.9110    0.3780 hx        1 LYP      0.115700
     18 HBC1       -0.5780   -0.0690    0.7920 hc        1 LYP      0.059700
     19 HBC2        0.6650   -0.8150    1.8800 hc        1 LYP      0.059700
     20 HGC1       -1.5240    0.3700    2.8450 hc        1 LYP      0.074200
     21 HGC2       -0.5930    1.8960    2.5880 hc        1 LYP      0.074200
     22 HDC1       -0.3990   -0.1310    4.7320 hc        1 LYP      0.072200
     23 HDC2        1.1870   -0.0480    3.8770 hc        1 LYP      0.072200
     24 HEC1       -0.0690    1.8510    5.8010 hx        1 LYP      0.102700
     25 HEC2        0.2900    2.7130    4.2220 hx        1 LYP      0.102700
     26 HMC1        1.9580    0.0290    6.1540 hx        1 LYP      0.091367
     27 HMC2        3.4310    1.0490    6.5300 hx        1 LYP      0.091367
     28 HMC3        1.8240    1.4390    7.3190 hx        1 LYP      0.091367
     29 HCD1        2.0750    3.9720    4.6020 hx        1 LYP      0.106200
     30 HCD2        1.5810    3.7350    6.3630 hx        1 LYP      0.106200
     31 HCA1        5.0160    5.3230    6.4100 hc        1 LYP      0.054700
     32 HCA2        3.8160    5.6270    5.0860 hc        1 LYP      0.054700
     33 HCA3        3.2720    5.6010    6.8160 hc        1 LYP      0.054700
     34 HCC1        3.9300    3.1680    6.9730 hc        1 LYP      0.061200
     35 HCC2        4.4380    3.2010    5.2310 hc        1 LYP      0.061200
     36 HN3         1.6860   -0.3470   -0.4970 hn        1 LYP      0.457467
     37 HZ1         2.5830    1.6890    4.4320 hn        1 LYP      0.502800
@<TRIPOS>BOND
     1    1    2 1   
     2    1   15 1   
     3    1   16 1   
     4    1   36 1   
     5    2    3 1   
     6    2    9 1   
     7    2   17 1   
     8    3    4 1   
     9    3   18 1   
    10    3   19 1   
    11    4    5 1   
    12    4   20 1   
    13    4   21 1   
    14    5    6 1   
    15    5   22 1   
    16    5   23 1   
    17    6    7 1   
    18    6   24 1   
    19    6   25 1   
    20    7    8 1   
    21    7   13 1   
    22    7   37 1   
    23    8   26 1   
    24    8   27 1   
    25    8   28 1   
    26    9   10 1   
    27    9   14 1   
    28   11   12 1   
    29   11   31 1   
    30   11   32 1   
    31   11   33 1   
    32   12   13 1   
    33   12   34 1   
    34   12   35 1   
    35   13   29 1   
    36   13   30 1   
@<TRIPOS>SUBSTRUCTURE
     1 LYP         1 TEMP              0 ****  ****    0 ROOT
