@<TRIPOS>MOLECULE
LYR
   71    71     1     0     0
SMALL
bcc


@<TRIPOS>ATOM
      1 N          -5.1970    0.7390    3.1010 n3        1 LYR     -0.891800
      2 CA         -4.4770   -0.0080    4.1240 c3        1 LYR      0.032500
      3 C          -2.9710   -0.2240    3.7950 c         1 LYR      0.881600
      4 O          -2.6490   -0.5500    2.6120 o         1 LYR     -0.852300
      5 OXT        -2.1320   -0.0610    4.7250 o         1 LYR     -0.852300
      6 CB         -5.1030   -1.3750    4.4240 c3        1 LYR     -0.048400
      7 CG         -5.2490   -2.2340    3.1850 c3        1 LYR     -0.099400
      8 CD         -5.3350   -3.7040    3.5300 c3        1 LYR     -0.111400
      9 CE         -5.8350   -4.5480    2.3580 c3        1 LYR      0.162800
     10 NZ         -5.1940   -4.3760    1.0730 n3        1 LYR     -0.823200
     11 C1         -3.8490   -4.9240    0.9960 c3        1 LYR      0.193000
     12 C2         -3.0090   -4.3480   -0.0980 c2        1 LYR     -0.166200
     13 C3         -3.3550   -4.2950   -1.3980 ce        1 LYR     -0.078200
     14 C4         -4.6510   -4.8240   -1.8990 c3        1 LYR     -0.049900
     15 C5         -2.4820   -3.7390   -2.4200 ce        1 LYR     -0.145000
     16 C6         -1.6000   -2.7320   -2.3050 cf        1 LYR     -0.110000
     17 C7         -1.3420   -1.9350   -1.1300 cf        1 LYR     -0.160000
     18 C80        -0.1880   -1.2750   -0.8800 ce        1 LYR     -0.053200
     19 C8          0.9930   -1.3340   -1.7780 c3        1 LYR     -0.062900
     20 C9         -0.0650   -0.4770    0.3320 ce        1 LYR     -0.156000
     21 C10         0.9620    0.3530    0.5890 cf        1 LYR     -0.104000
     22 C11         1.0850    1.1290    1.8160 cf        1 LYR     -0.146200
     23 C12         0.9140    0.5830    3.0410 c2        1 LYR     -0.022400
     24 C13         0.5890   -0.8460    3.2600 c3        1 LYR     -0.096900
     25 C14         0.9260    1.3790    4.2990 c3        1 LYR     -0.063200
     26 C15         1.4910    2.7720    4.1390 c3        1 LYR     -0.068400
     27 C16         1.0200    3.4060    2.8510 c3        1 LYR     -0.066400
     28 C17         1.4170    2.5870    1.6190 c3        1 LYR      0.006200
     29 C18         0.6470    3.1470    0.4250 c3        1 LYR     -0.080600
     30 C19         2.9110    2.7410    1.3510 c3        1 LYR     -0.080600
     31 H          -5.1660    0.2120    2.2440 hn        1 LYR      0.331800
     32 H2         -4.6920    1.5910    2.9330 hn        1 LYR      0.331800
     33 HA         -4.5290    0.6020    5.0730 h1        1 LYR      0.046700
     34 HB2        -4.4340   -1.8870    5.1650 hc        1 LYR      0.027700
     35 HB3        -6.1060   -1.2380    4.9060 hc        1 LYR      0.027700
     36 HG2        -4.3570   -2.0520    2.5200 hc        1 LYR      0.059200
     37 HG3        -6.1670   -1.9270    2.6190 hc        1 LYR      0.059200
     38 HD2        -6.0400   -3.8560    4.3890 hc        1 LYR      0.036200
     39 HD3        -4.3270   -4.0660    3.8610 hc        1 LYR      0.036200
     40 HE2        -5.7610   -5.6350    2.6440 h1        1 LYR      0.034200
     41 HE3        -6.9260   -4.3110    2.1930 h1        1 LYR      0.034200
     42 HZ         -5.1810   -3.4020    0.8250 hn        1 LYR      0.370800
     43 H1         -3.9600   -6.0360    0.8240 h1        1 LYR      0.033700
     44 H11        -3.2890   -4.7950    1.9710 h1        1 LYR      0.033700
     45 HC2        -2.0300   -3.9630    0.2350 ha        1 LYR      0.143000
     46 H41        -4.5900   -5.0930   -2.9820 hc        1 LYR      0.038367
     47 H42        -5.4490   -4.0500   -1.7740 hc        1 LYR      0.038367
     48 H43        -4.9590   -5.7340   -1.3260 hc        1 LYR      0.038367
     49 H5         -2.5920   -4.2200   -3.4100 ha        1 LYR      0.106000
     50 H6         -1.0240   -2.4500   -3.2070 ha        1 LYR      0.106000
     51 H7         -2.1730   -1.8610   -0.4000 ha        1 LYR      0.159000
     52 H81         0.9030   -2.1410   -2.5440 hc        1 LYR      0.035033
     53 H82         1.9200   -1.5290   -1.1820 hc        1 LYR      0.035033
     54 H83         1.1180   -0.3560   -2.3080 hc        1 LYR      0.035033
     55 H9         -0.8950   -0.5780    1.0700 ha        1 LYR      0.199000
     56 H10         1.7730    0.5080   -0.1430 ha        1 LYR      0.096000
     57 H131        1.0700   -1.2230    4.1960 hc        1 LYR      0.063700
     58 H132        0.9150   -1.4890    2.4080 hc        1 LYR      0.063700
     59 H133       -0.5340   -0.9320    3.3810 hc        1 LYR      0.063700
     60 H141       -0.1470    1.4180    4.6550 hc        1 LYR      0.074200
     61 H142        1.5110    0.8340    5.0880 hc        1 LYR      0.074200
     62 H151        1.1710    3.4060    5.0060 hc        1 LYR      0.023200
     63 H152        2.6120    2.7330    4.1530 hc        1 LYR      0.023200
     64 H161       -0.0980    3.4960    2.8770 hc        1 LYR      0.036200
     65 H162        1.4450    4.4390    2.7580 hc        1 LYR      0.036200
     66 H181        0.8070    4.2500    0.3510 hc        1 LYR      0.027200
     67 H182        0.9940    2.6740   -0.5240 hc        1 LYR      0.027200
     68 H183       -0.4440    2.9460    0.5440 hc        1 LYR      0.027200
     69 H191        3.1670    3.8170    1.2020 hc        1 LYR      0.027200
     70 H192        3.5040    2.3460    2.2090 hc        1 LYR      0.027200
     71 H193        3.1990    2.1760    0.4330 hc        1 LYR      0.027200
@<TRIPOS>BOND
     1    1    2 1   
     2    1   31 1   
     3    1   32 1   
     4    2    3 1   
     5    2    6 1   
     6    2   33 1   
     7    3    4 1   
     8    3    5 1   
     9    6    7 1   
    10    6   34 1   
    11    6   35 1   
    12    7    8 1   
    13    7   36 1   
    14    7   37 1   
    15    8    9 1   
    16    8   38 1   
    17    8   39 1   
    18    9   10 1   
    19    9   40 1   
    20    9   41 1   
    21   10   11 1   
    22   10   42 1   
    23   11   12 1   
    24   11   43 1   
    25   11   44 1   
    26   12   13 2   
    27   12   45 1   
    28   13   14 1   
    29   13   15 1   
    30   14   46 1   
    31   14   47 1   
    32   14   48 1   
    33   15   16 2   
    34   15   49 1   
    35   16   17 1   
    36   16   50 1   
    37   17   18 2   
    38   17   51 1   
    39   18   19 1   
    40   18   20 1   
    41   19   52 1   
    42   19   53 1   
    43   19   54 1   
    44   20   21 2   
    45   20   55 1   
    46   21   22 1   
    47   21   56 1   
    48   22   23 2   
    49   22   28 1   
    50   23   24 1   
    51   23   25 1   
    52   24   57 1   
    53   24   58 1   
    54   24   59 1   
    55   25   26 1   
    56   25   60 1   
    57   25   61 1   
    58   26   27 1   
    59   26   62 1   
    60   26   63 1   
    61   27   28 1   
    62   27   64 1   
    63   27   65 1   
    64   28   29 1   
    65   28   30 1   
    66   29   66 1   
    67   29   67 1   
    68   29   68 1   
    69   30   69 1   
    70   30   70 1   
    71   30   71 1   
@<TRIPOS>SUBSTRUCTURE
     1 LYR         1 TEMP              0 ****  ****    0 ROOT
