@<TRIPOS>MOLECULE
LYS
   24    23     1     0     0
SMALL
bcc


@<TRIPOS>ATOM
      1 N           1.5300    1.8980    0.1730 n3        1 LYS     -0.898800
      2 CA          1.3070    0.4730    0.3680 c3        1 LYS      0.008500
      3 C           2.5140   -0.4540   -0.0250 c         1 LYS      0.894600
      4 O           3.5910    0.1020   -0.3620 o         1 LYS     -0.826300
      5 CB          0.0800   -0.0430   -0.3820 c3        1 LYS     -0.066400
      6 CG         -1.2060    0.4680    0.2320 c3        1 LYS     -0.072400
      7 CD         -2.3860   -0.2820   -0.3600 c3        1 LYS     -0.116400
      8 CE         -3.6530    0.1180    0.3790 c3        1 LYS      0.099800
      9 NZ         -4.8380   -0.6810   -0.0670 n4        1 LYS     -0.842600
     10 OXT         2.3090   -1.6980    0.0380 o         1 LYS     -0.826300
     11 H           2.3630    2.1420    0.6840 hn        1 LYS      0.339800
     12 H2          1.7460    2.0520   -0.7970 hn        1 LYS      0.339800
     13 HA          1.1410    0.3150    1.4740 h1        1 LYS      0.038700
     14 HB2         0.1270    0.2510   -1.4620 hc        1 LYS      0.057200
     15 HB3         0.1170   -1.1660   -0.3300 hc        1 LYS      0.057200
     16 HG2        -1.1770    0.3120    1.3430 hc        1 LYS      0.052700
     17 HG3        -1.3120    1.5670    0.0450 hc        1 LYS      0.052700
     18 HD2        -2.4720   -0.0420   -1.4510 hc        1 LYS      0.066700
     19 HD3        -2.2020   -1.3860   -0.2600 hc        1 LYS      0.066700
     20 HE2        -3.5260   -0.0520    1.4880 hx        1 LYS      0.108200
     21 HE3        -3.8840    1.2070    0.2000 hx        1 LYS      0.108200
     22 HZ1        -4.9910   -0.5410   -1.0700 hn        1 LYS      0.452800
     23 HZ2        -4.6610   -1.6770    0.0970 hn        1 LYS      0.452800
     24 HZ3        -5.6760   -0.3980    0.4450 hn        1 LYS      0.452800
@<TRIPOS>BOND
     1    1    2 1   
     2    1   11 1   
     3    1   12 1   
     4    2    3 1   
     5    2    5 1   
     6    2   13 1   
     7    3    4 1   
     8    3   10 1   
     9    5    6 1   
    10    5   14 1   
    11    5   15 1   
    12    6    7 1   
    13    6   16 1   
    14    6   17 1   
    15    7    8 1   
    16    7   18 1   
    17    7   19 1   
    18    8    9 1   
    19    8   20 1   
    20    8   21 1   
    21    9   22 1   
    22    9   23 1   
    23    9   24 1   
@<TRIPOS>SUBSTRUCTURE
     1 LYS         1 TEMP              0 ****  ****    0 ROOT
