@<TRIPOS>MOLECULE
LYT
   17    16     1     0     0
SMALL
bcc


@<TRIPOS>ATOM
      1 C1         -0.0000    0.0000    0.0370 c3        1 LYT      0.098800
      2 N           1.4920   -0.0000   -0.0420 n4        1 LYT     -0.839600
      3 C2         -0.5100   -0.0000    1.4720 c3        1 LYT     -0.112400
      4 C3         -2.0280    0.0000    1.4620 c3        1 LYT     -0.076400
      5 C4         -2.5690   -0.0000    2.8690 c3        1 LYT     -0.101100
      6 H11        -0.3720   -0.9170   -0.5070 hx        1 LYT      0.113700
      7 H12        -0.3710    0.9180   -0.5060 hx        1 LYT      0.113700
      8 HN1         1.8690    0.8320    0.4250 hn        1 LYT      0.461800
      9 HN2         1.8680   -0.8330    0.4240 hn        1 LYT      0.461800
     10 H21        -0.1430   -0.9080    2.0200 hc        1 LYT      0.070700
     11 H22        -0.1420    0.9070    2.0210 hc        1 LYT      0.070700
     12 H31        -2.4020    0.9060    0.9140 hc        1 LYT      0.056700
     13 H32        -2.4030   -0.9040    0.9130 hc        1 LYT      0.056700
     14 H41        -2.2300    0.9060    3.4270 hc        1 LYT      0.054367
     15 H42        -2.2310   -0.9070    3.4260 hc        1 LYT      0.054367
     16 H43        -3.6870    0.0000    2.8440 hc        1 LYT      0.054367
     17 HN3         1.7940    0.0000   -1.0220 hn        1 LYT      0.461800
@<TRIPOS>BOND
     1    1    2 1   
     2    1    3 1   
     3    1    6 1   
     4    1    7 1   
     5    2    8 1   
     6    2    9 1   
     7    2   17 1   
     8    3    4 1   
     9    3   10 1   
    10    3   11 1   
    11    4    5 1   
    12    4   12 1   
    13    4   13 1   
    14    5   14 1   
    15    5   15 1   
    16    5   16 1   
@<TRIPOS>SUBSTRUCTURE
     1 LYT         1 TEMP              0 ****  ****    0 ROOT
