@<TRIPOS>MOLECULE
LYT
   16    15     1     0     0
SMALL
bcc


@<TRIPOS>ATOM
      1 C1          0.4990   -0.0190   -1.2380 c3        1 LYT      0.158800
      2 N          -0.2690    0.0610   -2.4580 n3        1 LYT     -0.915800
      3 C2         -0.3620    0.0080    0.0240 c3        1 LYT     -0.083400
      4 C3          0.5140   -0.0210    1.2580 c3        1 LYT     -0.080400
      5 C4         -0.3110    0.0030    2.5180 c3        1 LYT     -0.092100
      6 H11         1.1930    0.8690   -1.2230 h1        1 LYT      0.023700
      7 H12         1.1480   -0.9450   -1.1960 h1        1 LYT      0.023700
      8 HN1         0.3210   -0.0970   -3.2510 hn        1 LYT      0.347800
      9 HN2        -1.0110   -0.6100   -2.4620 hn        1 LYT      0.347800
     10 H21        -1.0560   -0.8730    0.0350 hc        1 LYT      0.046200
     11 H22        -0.9970    0.9330    0.0330 hc        1 LYT      0.046200
     12 H31         1.2080    0.8620    1.2450 hc        1 LYT      0.038700
     13 H32         1.1540   -0.9430    1.2430 hc        1 LYT      0.038700
     14 H41         0.3530   -0.0170    3.4160 hc        1 LYT      0.033367
     15 H42        -0.9370    0.9260    2.5620 hc        1 LYT      0.033367
     16 H43        -0.9900   -0.8830    2.5620 hc        1 LYT      0.033367
@<TRIPOS>BOND
     1    1    2 1   
     2    1    3 1   
     3    1    6 1   
     4    1    7 1   
     5    2    8 1   
     6    2    9 1   
     7    3    4 1   
     8    3   10 1   
     9    3   11 1   
    10    4    5 1   
    11    4   12 1   
    12    4   13 1   
    13    5   14 1   
    14    5   15 1   
    15    5   16 1   
@<TRIPOS>SUBSTRUCTURE
     1 LYT         1 TEMP              0 ****  ****    0 ROOT
