@<TRIPOS>MOLECULE
LYT
   17    16     1     0     0
SMALL
bcc


@<TRIPOS>ATOM
      1 C1          0.0010   -0.0020    0.0370 c3        1 LYT      0.098800
      2 N           1.4940   -0.0010   -0.0400 nz        1 LYT     -0.839600
      3 C2         -0.5100    0.0010    1.4720 c3        1 LYT     -0.112400
      4 C3         -2.0290   -0.0010    1.4610 c3        1 LYT     -0.076400
      5 C4         -2.5710    0.0020    2.8670 c3        1 LYT     -0.101100
      6 H11        -0.3690   -0.9200   -0.5050 hx        1 LYT      0.113700
      7 H12        -0.3700    0.9150   -0.5080 hx        1 LYT      0.113700
      8 HN1         1.8690    0.8320    0.4260 hn        1 LYT      0.461800
      9 HN2         1.8700   -0.8320    0.4280 hn        1 LYT      0.461800
     10 H21        -0.1430   -0.9060    2.0230 hc        1 LYT      0.070700
     11 H22        -0.1440    0.9090    2.0190 hc        1 LYT      0.070700
     12 H31        -2.4030    0.9030    0.9100 hc        1 LYT      0.056700
     13 H32        -2.4010   -0.9070    0.9140 hc        1 LYT      0.056700
     14 H41        -2.2330    0.9110    3.4230 hc        1 LYT      0.054367
     15 H42        -2.2320   -0.9020    3.4270 hc        1 LYT      0.054367
     16 H43        -3.6880    0.0010    2.8410 hc        1 LYT      0.054367
     17 HN3         1.7960   -0.0020   -1.0190 hn        1 LYT      0.461800
@<TRIPOS>BOND
     1    1    2 1   
     2    1    3 1   
     3    1    6 1   
     4    1    7 1   
     5    2    8 1   
     6    2    9 1   
     7    2   17 1   
     8    3    4 1   
     9    3   10 1   
    10    3   11 1   
    11    4    5 1   
    12    4   12 1   
    13    4   13 1   
    14    5   14 1   
    15    5   15 1   
    16    5   16 1   
@<TRIPOS>SUBSTRUCTURE
     1 LYT         1 TEMP              0 ****  ****    0 ROOT
