@<TRIPOS>MOLECULE
LYU
   41    40     1     0     0
SMALL
bcc


@<TRIPOS>ATOM
      1 N           4.6590    2.0020    0.1950 n3        1 LYU     -0.892800
      2 CA          4.6300    0.5490    0.3180 c3        1 LYU      0.018500
      3 CB          3.3780   -0.0860   -0.2900 c3        1 LYU     -0.063400
      4 CG          2.1130    0.3220    0.4320 c3        1 LYU     -0.075400
      5 CD          0.9020   -0.3790   -0.1490 c3        1 LYU     -0.085400
      6 CE         -0.3690    0.0940    0.5520 c3        1 LYU      0.158800
      7 NZ         -1.5800   -0.5310    0.0500 n3        1 LYU     -0.826200
      8 C1'        -2.7810    0.2000    0.3990 c3        1 LYU      0.165800
      9 C2'        -4.0410   -0.3730   -0.2480 c3        1 LYU     -0.083400
     10 C3'        -5.2580    0.4010    0.2120 c3        1 LYU     -0.075400
     11 C4'        -6.5420   -0.1100   -0.4270 c3        1 LYU     -0.067700
     12 C5'        -6.9830   -1.4210    0.1900 c3        1 LYU     -0.089100
     13 C6'        -7.6400    0.9250   -0.2910 c3        1 LYU     -0.089100
     14 C           5.8820   -0.1740   -0.2820 c         1 LYU      0.887600
     15 O           6.7910    0.5380   -0.7970 o         1 LYU     -0.844800
     16 HN          5.6010    2.2960    0.3970 hn        1 LYU      0.329800
     17 H2          4.4940    2.2420   -0.7670 hn        1 LYU      0.329800
     18 HA          4.6350    0.3240    1.4240 h1        1 LYU      0.040700
     19 HB          3.2970    0.1870   -1.3750 hc        1 LYU      0.046200
     20 HBA         3.5130   -1.2000   -0.2330 hc        1 LYU      0.046200
     21 HG          2.2050    0.0690    1.5210 hc        1 LYU      0.037200
     22 HGA         1.9750    1.4330    0.3610 hc        1 LYU      0.037200
     23 HD          0.8370   -0.1630   -1.2480 hc        1 LYU      0.040700
     24 HDA         1.0150   -1.4880   -0.0330 hc        1 LYU      0.040700
     25 HE         -0.2990   -0.1580    1.6480 h1        1 LYU      0.027700
     26 HEA        -0.4160    1.2220    0.4750 h1        1 LYU      0.027700
     27 HNZ        -1.5250   -0.6610   -0.9430 hn        1 LYU      0.351800
     28 H1'        -2.8890    0.1470    1.5200 h1        1 LYU      0.023700
     29 H1'A       -2.7120    1.2960    0.1280 h1        1 LYU      0.023700
     30 H2'        -3.9580   -0.3160   -1.3650 hc        1 LYU      0.044700
     31 H2'A       -4.1500   -1.4550    0.0240 hc        1 LYU      0.044700
     32 H3'        -5.3460    0.3370    1.3280 hc        1 LYU      0.039200
     33 H3'A       -5.1250    1.4850   -0.0490 hc        1 LYU      0.039200
     34 H4'        -6.3500   -0.2810   -1.5250 hc        1 LYU      0.045700
     35 H5'        -7.9160   -1.7860   -0.3020 hc        1 LYU      0.031533
     36 H5'A       -6.1900   -2.1980    0.0670 hc        1 LYU      0.031533
     37 H5'B       -7.1850   -1.2930    1.2810 hc        1 LYU      0.031533
     38 H6'        -7.3500    1.8720   -0.8080 hc        1 LYU      0.031533
     39 H6'A       -8.5870    0.5480   -0.7470 hc        1 LYU      0.031533
     40 H6'B       -7.8310    1.1530    0.7850 hc        1 LYU      0.031533
     41 OXT         5.9230   -1.4330   -0.2010 o         1 LYU     -0.844800
@<TRIPOS>BOND
     1    1    2 1   
     2    1   16 1   
     3    1   17 1   
     4    2    3 1   
     5    2   14 1   
     6    2   18 1   
     7    3    4 1   
     8    3   19 1   
     9    3   20 1   
    10    4    5 1   
    11    4   21 1   
    12    4   22 1   
    13    5    6 1   
    14    5   23 1   
    15    5   24 1   
    16    6    7 1   
    17    6   25 1   
    18    6   26 1   
    19    7    8 1   
    20    7   27 1   
    21    8    9 1   
    22    8   28 1   
    23    8   29 1   
    24    9   10 1   
    25    9   30 1   
    26    9   31 1   
    27   10   11 1   
    28   10   32 1   
    29   10   33 1   
    30   11   12 1   
    31   11   13 1   
    32   11   34 1   
    33   12   35 1   
    34   12   36 1   
    35   12   37 1   
    36   13   38 1   
    37   13   39 1   
    38   13   40 1   
    39   14   15 1   
    40   14   41 1   
@<TRIPOS>SUBSTRUCTURE
     1 LYU         1 TEMP              0 ****  ****    0 ROOT
