@<TRIPOS>MOLECULE
LYW
   22    21     1     0     0
SMALL
bcc


@<TRIPOS>ATOM
      1 C1          1.4500    0.0490    0.0390 c3        1 LYW     -0.019500
      2 N          -0.0410   -0.1290    0.0180 nz        1 LYW     -0.830600
      3 C           1.9970    0.1010    1.4710 c         1 LYW      0.561900
      4 O           1.2640   -0.0590    2.4390 o         1 LYW     -0.473100
      5 C2          1.8850    1.3020   -0.7230 c3        1 LYW     -0.109400
      6 C3          1.4880    1.2580   -2.1830 c3        1 LYW     -0.095400
      7 C4          2.1570    2.3810   -2.9530 c3        1 LYW     -0.078400
      8 C5          1.7380    2.3720   -4.4010 c3        1 LYW     -0.100100
      9 H1          1.8950   -0.8660   -0.4630 hx        1 LYW      0.132700
     10 HN1        -0.3520   -0.3310   -0.9370 hn        1 LYW      0.468133
     11 HN2        -0.4940    0.7310    0.3450 hn        1 LYW      0.468133
     12 H           3.0910    0.2810    1.5230 h4        1 LYW      0.080200
     13 H21         3.0060    1.3630   -0.6450 hc        1 LYW      0.092700
     14 H22         1.4680    2.2230   -0.2360 hc        1 LYW      0.092700
     15 H31         1.7850    0.2730   -2.6340 hc        1 LYW      0.042700
     16 H32         0.3760    1.3610   -2.2920 hc        1 LYW      0.042700
     17 H41         1.8890    3.3660   -2.4870 hc        1 LYW      0.055200
     18 H42         3.2720    2.2700   -2.8820 hc        1 LYW      0.055200
     19 H51         2.2490    3.2010   -4.9500 hc        1 LYW      0.048700
     20 H52         2.0140    1.4070   -4.8890 hc        1 LYW      0.048700
     21 H53         0.6350    2.5150   -4.4970 hc        1 LYW      0.048700
     22 HN3        -0.3040   -0.8960    0.6480 hn        1 LYW      0.468133
@<TRIPOS>BOND
     1    1    2 1   
     2    1    3 1   
     3    1    5 1   
     4    1    9 1   
     5    2   10 1   
     6    2   11 1   
     7    2   22 1   
     8    3    4 2   
     9    3   12 1   
    10    5    6 1   
    11    5   13 1   
    12    5   14 1   
    13    6    7 1   
    14    6   15 1   
    15    6   16 1   
    16    7    8 1   
    17    7   17 1   
    18    7   18 1   
    19    8   19 1   
    20    8   20 1   
    21    8   21 1   
@<TRIPOS>SUBSTRUCTURE
     1 LYW         1 TEMP              0 ****  ****    0 ROOT
