@<TRIPOS>MOLECULE
LYW
   22    21     1     0     0
SMALL
bcc


@<TRIPOS>ATOM
      1 C1          1.4540    0.0500    0.0400 c3        1 LYW     -0.019500
      2 N          -0.0360   -0.1340    0.0180 n4        1 LYW     -0.830600
      3 C           2.0000    0.1050    1.4720 c         1 LYW      0.561900
      4 O           1.2680   -0.0570    2.4410 o         1 LYW     -0.473100
      5 C2          1.8840    1.3030   -0.7230 c3        1 LYW     -0.109400
      6 C3          1.4870    1.2560   -2.1830 c3        1 LYW     -0.095400
      7 C4          2.1530    2.3800   -2.9550 c3        1 LYW     -0.078400
      8 C5          1.7330    2.3690   -4.4020 c3        1 LYW     -0.100100
      9 H1          1.9030   -0.8650   -0.4600 hx        1 LYW      0.132700
     10 HN1        -0.4930    0.7240    0.3440 hn        1 LYW      0.468133
     11 HN2        -0.2960   -0.9010    0.6500 hn        1 LYW      0.468133
     12 H           3.0930    0.2900    1.5240 h4        1 LYW      0.080200
     13 H21         3.0050    1.3690   -0.6450 hc        1 LYW      0.092700
     14 H22         1.4640    2.2240   -0.2370 hc        1 LYW      0.092700
     15 H31         1.7870    0.2720   -2.6330 hc        1 LYW      0.042700
     16 H32         0.3740    1.3550   -2.2920 hc        1 LYW      0.042700
     17 H41         3.2680    2.2730   -2.8840 hc        1 LYW      0.055200
     18 H42         1.8820    3.3650   -2.4890 hc        1 LYW      0.055200
     19 H51         2.2410    3.2000   -4.9520 hc        1 LYW      0.048700
     20 H52         2.0110    1.4040   -4.8900 hc        1 LYW      0.048700
     21 H53         0.6290    2.5090   -4.4980 hc        1 LYW      0.048700
     22 HN3        -0.3460   -0.3400   -0.9360 hn        1 LYW      0.468133
@<TRIPOS>BOND
     1    1    2 1   
     2    1    3 1   
     3    1    5 1   
     4    1    9 1   
     5    2   10 1   
     6    2   11 1   
     7    2   22 1   
     8    3    4 2   
     9    3   12 1   
    10    5    6 1   
    11    5   13 1   
    12    5   14 1   
    13    6    7 1   
    14    6   15 1   
    15    6   16 1   
    16    7    8 1   
    17    7   17 1   
    18    7   18 1   
    19    8   19 1   
    20    8   20 1   
    21    8   21 1   
@<TRIPOS>SUBSTRUCTURE
     1 LYW         1 TEMP              0 ****  ****    0 ROOT
