@<TRIPOS>MOLECULE
LYW
   22    21     1     0     0
SMALL
bcc


@<TRIPOS>ATOM
      1 C1          1.4480    0.0460    0.0380 c3        1 LYW     -0.019500
      2 N          -0.0440   -0.1200    0.0220 n4        1 LYW     -0.830600
      3 C           2.0020    0.0910    1.4670 c         1 LYW      0.561900
      4 O           1.2720   -0.0650    2.4390 o         1 LYW     -0.473100
      5 C2          1.8890    1.2960   -0.7250 c3        1 LYW     -0.109400
      6 C3          1.4860    1.2570   -2.1830 c3        1 LYW     -0.095400
      7 C4          2.1600    2.3770   -2.9540 c3        1 LYW     -0.078400
      8 C5          1.7360    2.3740   -4.4000 c3        1 LYW     -0.100100
      9 H1          1.8840   -0.8720   -0.4680 hx        1 LYW      0.132700
     10 HN1        -0.4900    0.7430    0.3530 hn        1 LYW      0.468133
     11 HN2        -0.3100   -0.8860    0.6530 hn        1 LYW      0.468133
     12 H           3.0970    0.2630    1.5150 h4        1 LYW      0.080200
     13 H21         1.4810    2.2200   -0.2340 hc        1 LYW      0.092700
     14 H22         3.0110    1.3490   -0.6510 hc        1 LYW      0.092700
     15 H31         1.7740    0.2720   -2.6370 hc        1 LYW      0.042700
     16 H32         0.3740    1.3680   -2.2870 hc        1 LYW      0.042700
     17 H41         1.9010    3.3630   -2.4850 hc        1 LYW      0.055200
     18 H42         3.2740    2.2580   -2.8880 hc        1 LYW      0.055200
     19 H51         2.2490    3.2000   -4.9490 hc        1 LYW      0.048700
     20 H52         2.0030    1.4070   -4.8910 hc        1 LYW      0.048700
     21 H53         0.6330    2.5240   -4.4920 hc        1 LYW      0.048700
     22 HN3        -0.3610   -0.3190   -0.9310 hn        1 LYW      0.468133
@<TRIPOS>BOND
     1    1    2 1   
     2    1    3 1   
     3    1    5 1   
     4    1    9 1   
     5    2   10 1   
     6    2   11 1   
     7    2   22 1   
     8    3    4 2   
     9    3   12 1   
    10    5    6 1   
    11    5   13 1   
    12    5   14 1   
    13    6    7 1   
    14    6   15 1   
    15    6   16 1   
    16    7    8 1   
    17    7   17 1   
    18    7   18 1   
    19    8   19 1   
    20    8   20 1   
    21    8   21 1   
@<TRIPOS>SUBSTRUCTURE
     1 LYW         1 TEMP              0 ****  ****    0 ROOT
