@<TRIPOS>MOLECULE
LYW
   21    20     1     0     0
SMALL
bcc


@<TRIPOS>ATOM
      1 C1         -1.0990   -0.1900    0.4470 c3        1 LYW      0.052500
      2 N          -1.3980   -1.5340    0.0020 n3        1 LYW     -0.899800
      3 C          -2.2690    0.7690    0.2670 c         1 LYW      0.567900
      4 O          -3.1100    0.6660   -0.6240 o         1 LYW     -0.519100
      5 C2          0.1250    0.4870   -0.1970 c3        1 LYW     -0.113400
      6 C3          1.4190   -0.1820    0.2090 c3        1 LYW     -0.078400
      7 C4          2.6160    0.5800   -0.3220 c3        1 LYW     -0.080400
      8 C5          3.9100   -0.0910    0.0600 c3        1 LYW     -0.093100
      9 H1         -0.9010   -0.2700    1.5610 h1        1 LYW      0.074700
     10 HN1        -1.9420   -1.5180   -0.8400 hn        1 LYW      0.358800
     11 HN2        -0.5520   -2.0440   -0.1600 hn        1 LYW      0.358800
     12 H          -2.2900    1.6000    1.0060 h4        1 LYW      0.000200
     13 H21         0.1490    1.5620    0.1250 hc        1 LYW      0.050200
     14 H22         0.0220    0.4740   -1.3130 hc        1 LYW      0.050200
     15 H31         1.4510   -1.2340   -0.1810 hc        1 LYW      0.042700
     16 H32         1.4800   -0.2430    1.3280 hc        1 LYW      0.042700
     17 H41         2.6010    1.6270    0.0810 hc        1 LYW      0.040200
     18 H42         2.5450    0.6550   -1.4390 hc        1 LYW      0.040200
     19 H51         4.0070   -0.1560    1.1710 hc        1 LYW      0.034700
     20 H52         3.9570   -1.1260   -0.3570 hc        1 LYW      0.034700
     21 H53         4.7780    0.4890   -0.3360 hc        1 LYW      0.034700
@<TRIPOS>BOND
     1    1    2 1   
     2    1    3 1   
     3    1    5 1   
     4    1    9 1   
     5    2   10 1   
     6    2   11 1   
     7    3    4 2   
     8    3   12 1   
     9    5    6 1   
    10    5   13 1   
    11    5   14 1   
    12    6    7 1   
    13    6   15 1   
    14    6   16 1   
    15    7    8 1   
    16    7   17 1   
    17    7   18 1   
    18    8   19 1   
    19    8   20 1   
    20    8   21 1   
@<TRIPOS>SUBSTRUCTURE
     1 LYW         1 TEMP              0 ****  ****    0 ROOT
