@<TRIPOS>MOLECULE
LYZ
   24    23     1     0     0
SMALL
bcc


@<TRIPOS>ATOM
      1 N          -1.9550    0.4050   -1.7070 n3        1 LYZ     -0.891800
      2 CA         -0.5100    0.4000   -1.5210 c3        1 LYZ      0.017500
      3 C           0.2960   -0.2250   -2.7110 c         1 LYZ      0.887600
      4 O          -0.3470   -0.5880   -3.7360 o         1 LYZ     -0.842300
      5 CB         -0.0700   -0.2950   -0.2330 c3        1 LYZ     -0.068400
      6 CG         -0.5010    0.4600    1.0050 c3        1 LYZ     -0.109400
      7 CD          0.0840   -0.1530    2.2700 c3        1 LYZ      0.099100
      8 CE         -0.6530    0.3760    3.5180 c3        1 LYZ      0.146800
      9 NZ         -0.1520   -0.0710    4.7940 n3        1 LYZ     -0.898800
     10 OH          1.4600    0.1710    2.4440 oh        1 LYZ     -0.632800
     11 OXT         1.5490   -0.3100   -2.5820 o         1 LYZ     -0.842300
     12 H          -2.2870   -0.5410   -1.6370 hn        1 LYZ      0.330800
     13 H2         -2.1300    0.6930   -2.6570 hn        1 LYZ      0.330800
     14 HA         -0.1930    1.4830   -1.4640 h1        1 LYZ      0.041700
     15 HB2         1.0510   -0.3750   -0.2730 hc        1 LYZ      0.046700
     16 HB3        -0.4760   -1.3390   -0.1980 hc        1 LYZ      0.046700
     17 HG2        -1.6190    0.4570    1.0780 hc        1 LYZ      0.051200
     18 HG3        -0.1720    1.5300    0.9310 hc        1 LYZ      0.051200
     19 HD         -0.0020   -1.2770    2.2250 h1        1 LYZ      0.028700
     20 HE2        -1.7310    0.0630    3.4320 h1        1 LYZ      0.051700
     21 HE3        -0.6090    1.5010    3.5010 h1        1 LYZ      0.051700
     22 HZ1        -0.1350   -1.0730    4.8240 hn        1 LYZ      0.341300
     23 HZ2         0.7900    0.2530    4.9180 hn        1 LYZ      0.341300
     24 HH          1.8650    0.1710    1.5670 ho        1 LYZ      0.421000
@<TRIPOS>BOND
     1    1    2 1   
     2    1   12 1   
     3    1   13 1   
     4    2    3 1   
     5    2    5 1   
     6    2   14 1   
     7    3    4 1   
     8    3   11 1   
     9    5    6 1   
    10    5   15 1   
    11    5   16 1   
    12    6    7 1   
    13    6   17 1   
    14    6   18 1   
    15    7    8 1   
    16    7   10 1   
    17    7   19 1   
    18    8    9 1   
    19    8   20 1   
    20    8   21 1   
    21    9   22 1   
    22    9   23 1   
    23   10   24 1   
@<TRIPOS>SUBSTRUCTURE
     1 LYZ         1 TEMP              0 ****  ****    0 ROOT
