@<TRIPOS>MOLECULE
LZ0
   37    37     1     0     0
SMALL
bcc


@<TRIPOS>ATOM
      1 C1         -0.5270   -0.7620   -0.8040 c2        1 LZ0      0.064000
      2 C2          0.4970   -1.7640   -1.2430 c3        1 LZ0      0.026000
      3 C3          3.8740    0.1800    2.0460 c2        1 LZ0     -0.104000
      4 C4          3.0880   -0.5420    2.8680 c2        1 LZ0     -0.104000
      5 C5         -0.6030   -1.6920    1.3290 c1        1 LZ0     -0.017000
      6 C6         -1.4580   -1.9380    2.5090 c3        1 LZ0     -0.304000
      7 O1         -0.4640    2.5310    0.4210 oh        1 LZ0     -0.316000
      8 O2          1.6660   -1.7440   -0.4620 oh        1 LZ0     -0.326000
      9 O3          4.0420   -0.0510    0.7120 oh        1 LZ0     -0.274500
     10 O4          2.4390   -1.6660    2.3840 oh        1 LZ0     -0.274500
     11 O5         -1.2620   -1.0490    0.3690 os        1 LZ0     -0.159000
     12 O1'        -1.4490    4.5420   -1.5610 os        1 LZ0     -0.305000
     13 C5'        -1.7160    4.7170   -2.9610 cx        1 LZ0     -0.060000
     14 N1'        -1.9790    2.2210   -2.3270 n3        1 LZ0     -0.264000
     15 C1'        -2.0040    1.3560   -1.0980 c3        1 LZ0     -0.042000
     16 C3'        -1.7770    2.0590    0.2440 c3        1 LZ0     -0.020000
     17 C2'        -0.9040    0.3500   -1.4600 c2        1 LZ0     -0.138000
     18 N3'        -0.3450    0.8140   -2.7260 n2        1 LZ0     -0.049000
     19 N2'        -0.9110    1.8420   -3.1110 n2        1 LZ0      0.074000
     20 H1         -0.3380    3.2960   -0.1570 ho        1 LZ0      0.222000
     21 H2          0.8460   -1.5340   -2.2880 h1        1 LZ0      0.110000
     22 H3          0.0190   -2.7840   -1.2140 h1        1 LZ0      0.110000
     23 HA          1.4300   -2.0430    0.4320 ho        1 LZ0      0.236000
     24 H4          4.4940    1.0290    2.3730 h4        1 LZ0      0.149000
     25 HB          3.4370   -0.7620    0.4350 ho        1 LZ0      0.228000
     26 H5          2.9710   -0.3450    3.9400 h4        1 LZ0      0.149000
     27 HC          1.4860   -1.4890    2.4610 ho        1 LZ0      0.228000
     28 H6C1       -0.9510   -1.4730    3.3940 hc        1 LZ0      0.114333
     29 H6C2       -1.4930   -3.0460    2.6720 hc        1 LZ0      0.114333
     30 H6C3       -2.5020   -1.5460    2.4380 hc        1 LZ0      0.114333
     31 H3'1       -1.9190    1.2970    1.0600 h1        1 LZ0      0.098000
     32 H3'2       -2.5210    2.8920    0.3620 h1        1 LZ0      0.098000
     33 H4'1       -3.3990    3.6760   -1.8370 h2        1 LZ0      0.160000
     34 H4'2       -2.3170    5.6130   -3.2060 h1        1 LZ0      0.133000
     35 H2'        -3.0080    0.8480   -1.0760 h1        1 LZ0      0.139000
     36 H1A        -0.8460    4.5500   -3.6230 h1        1 LZ0      0.133000
     37 C4'        -2.3480    3.5980   -2.1990 cx        1 LZ0      0.056000
@<TRIPOS>BOND
     1    1    2 1   
     2    1   11 1   
     3    1   17 1   
     4    2    8 1   
     5    2   21 1   
     6    2   22 1   
     7    3    4 1   
     8    3    9 1   
     9    3   24 1   
    10    4   10 1   
    11    4   26 1   
    12    5    6 1   
    13    5   11 1   
    14    6   28 1   
    15    6   29 1   
    16    6   30 1   
    17    7   16 1   
    18    7   20 1   
    19    8   23 1   
    20    9   25 1   
    21   10   27 1   
    22   12   13 1   
    23   12   37 1   
    24   13   34 1   
    25   13   36 1   
    26   13   37 1   
    27   14   15 1   
    28   14   19 1   
    29   14   37 1   
    30   15   16 1   
    31   15   17 1   
    32   15   35 1   
    33   16   31 1   
    34   16   32 1   
    35   17   18 1   
    36   18   19 1   
    37   33   37 1   
@<TRIPOS>SUBSTRUCTURE
     1 LZ0         1 TEMP              0 ****  ****    0 ROOT
