@<TRIPOS>MOLECULE
LZ0
   37    38     1     0     0
SMALL
bcc


@<TRIPOS>ATOM
      1 C1         39.3640    4.4690   -3.2810 c3        1 LZ0      0.322900
      2 C2         37.9560    4.4530   -2.6560 c3        1 LZ0      0.098100
      3 C3         36.9760    3.6540   -3.5310 c3        1 LZ0      0.076100
      4 C4         37.5610    2.2660   -3.8400 c3        1 LZ0      0.083100
      5 C5         38.9440    2.4350   -4.4830 c3        1 LZ0      0.110100
      6 C6         39.6200    1.1030   -4.7370 c3        1 LZ0     -0.092100
      7 O1         39.3100    5.1890   -4.4970 os        1 LZ0     -0.436600
      8 O2         37.5360    5.7940   -2.4960 oh        1 LZ0     -0.596800
      9 O3         35.7260    3.5680   -2.8780 oh        1 LZ0     -0.597800
     10 O4         37.5920    1.4890   -2.6570 oh        1 LZ0     -0.596800
     11 O5         39.8100    3.1650   -3.6010 os        1 LZ0     -0.443600
     12 O1'        39.5170    8.4050   -6.4140 o         1 LZ0     -0.509100
     13 C5'        38.8590    8.6490   -5.4050 c         1 LZ0      0.555900
     14 N1'        40.6090    7.8560   -3.7920 na        1 LZ0      0.075400
     15 C1'        41.2200    6.6590   -4.2210 cc        1 LZ0     -0.218900
     16 C3'        40.5800    5.5820   -5.0100 c3        1 LZ0      0.198700
     17 C2'        42.5540    6.7940   -3.7910 cd        1 LZ0      0.261200
     18 N3'        42.6550    8.0440   -3.1520 nd        1 LZ0     -0.357000
     19 N2'        41.5280    8.6320   -3.1700 nc        1 LZ0     -0.163800
     20 H1         40.1340    4.8800   -2.5700 h2        1 LZ0      0.102700
     21 H2         38.0340    3.9690   -1.6400 h1        1 LZ0      0.053700
     22 H3         36.7750    4.2170   -4.4840 h1        1 LZ0      0.101700
     23 HA         36.5780    5.7650   -2.3570 ho        1 LZ0      0.427000
     24 H4         36.8710    1.7050   -4.5300 h1        1 LZ0      0.097700
     25 HB         35.7860    2.8520   -2.2290 ho        1 LZ0      0.422000
     26 H5         38.8310    3.0170   -5.4410 h1        1 LZ0      0.068700
     27 HC         38.3920    1.7340   -2.1710 ho        1 LZ0      0.414000
     28 H6C1       40.6670    1.2670   -5.0880 hc        1 LZ0      0.053700
     29 H6C2       39.6480    0.4960   -3.8000 hc        1 LZ0      0.053700
     30 H6C3       39.0500    0.5450   -5.5160 hc        1 LZ0      0.053700
     31 H3'1       41.2680    4.6960   -5.0570 h1        1 LZ0      0.086200
     32 H3'2       40.3360    5.9560   -6.0470 h1        1 LZ0      0.086200
     33 H4'1       38.9550    9.0530   -3.2920 h1        1 LZ0      0.114700
     34 H4'2       38.5880    7.3110   -3.7520 h1        1 LZ0      0.114700
     35 H2'        43.4010    6.1190   -3.8910 h4        1 LZ0      0.057100
     36 H1A        37.8900    9.1950   -5.4490 h4        1 LZ0      0.009200
     37 C4'        39.2260    8.2180   -4.0020 c3        1 LZ0     -0.083700
@<TRIPOS>BOND
     1    1    2 1   
     2    1    7 1   
     3    1   11 1   
     4    1   20 1   
     5    2    3 1   
     6    2    8 1   
     7    2   21 1   
     8    3    4 1   
     9    3    9 1   
    10    3   22 1   
    11    4    5 1   
    12    4   10 1   
    13    4   24 1   
    14    5    6 1   
    15    5   11 1   
    16    5   26 1   
    17    6   28 1   
    18    6   29 1   
    19    6   30 1   
    20    7   16 1   
    21    8   23 1   
    22    9   25 1   
    23   10   27 1   
    24   12   13 2   
    25   13   36 1   
    26   13   37 1   
    27   14   15 1   
    28   14   19 1   
    29   14   37 1   
    30   15   16 1   
    31   15   17 2   
    32   16   31 1   
    33   16   32 1   
    34   17   18 1   
    35   17   35 1   
    36   18   19 2   
    37   33   37 1   
    38   34   37 1   
@<TRIPOS>SUBSTRUCTURE
     1 LZ0         1 TEMP              0 ****  ****    0 ROOT
