@<TRIPOS>MOLECULE
LZ0
   37    35     1     0     0
SMALL
bcc


@<TRIPOS>ATOM
      1 C1          0.6740    0.1600    0.4630 c3        1 LZ0      0.117000
      2 C2          2.1780    0.2530    0.4760 c3        1 LZ0      0.022000
      3 C3          2.7290    0.2970    1.8660 c3        1 LZ0      0.009000
      4 C4          2.0740    1.3560    2.7050 c3        1 LZ0     -0.038000
      5 C5          0.5620    1.2630    2.6770 c3        1 LZ0      0.010000
      6 C6          0.1420    0.0370    3.4000 c3        1 LZ0     -0.248000
      7 O1          0.2290    0.2910   -0.8340 os        1 LZ0     -0.270000
      8 O2          2.5770    1.4430   -0.2240 oh        1 LZ0     -0.305000
      9 O3          2.5260   -0.9750    2.4870 oh        1 LZ0     -0.329000
     10 O4          2.5130    1.2070    4.0510 oh        1 LZ0     -0.326000
     11 O5          0.0260    1.2180    1.3120 os        1 LZ0     -0.303000
     12 O1'        -3.5260   -2.3680   -5.3620 o         1 LZ0     -0.275000
     13 C5'        -3.8290   -2.2850   -4.1890 c1        1 LZ0      0.175000
     14 C4'        -2.7590   -1.9700   -3.1450 c2        1 LZ0     -0.087000
     15 N1'        -2.4380   -0.5600   -3.1960 n3        1 LZ0     -0.145000
     16 C1'        -1.6400    0.1130   -2.3280 c1        1 LZ0     -0.086000
     17 C3'        -0.9430   -0.4700   -1.1200 c2        1 LZ0      0.047000
     18 C2'        -1.5880    1.4210   -2.7320 c1        1 LZ0     -0.205000
     19 N3'        -2.3530    1.5470   -3.8440 n2        1 LZ0     -0.089000
     20 N2'        -2.8790    0.3240   -4.1340 n2        1 LZ0     -0.003000
     21 H1          0.4010   -0.7470    0.8090 h2        1 LZ0      0.110000
     22 H2          2.5390   -0.5120    0.0230 h1        1 LZ0      0.145000
     23 H3          3.7160    0.4830    1.8180 h1        1 LZ0      0.111000
     24 HA          3.3130    1.2800   -0.6870 ho        1 LZ0      0.217000
     25 H4          2.3450    2.2410    2.3750 h1        1 LZ0      0.095000
     26 HB          3.3430   -1.4120    2.5750 ho        1 LZ0      0.228000
     27 H5          0.1780    2.0680    3.1520 h1        1 LZ0      0.113000
     28 HC          2.8870    1.8970    4.2940 ho        1 LZ0      0.212000
     29 H6C1       -0.8360    0.1230    3.6730 hc        1 LZ0      0.094000
     30 H6C2        0.7010   -0.0760    4.2080 hc        1 LZ0      0.094000
     31 H6C3        0.2520   -0.7520    2.8070 hc        1 LZ0      0.094000
     32 H3'1       -1.5630   -0.4370   -0.3270 h4        1 LZ0      0.102500
     33 H3'2       -0.6880   -1.4220   -1.3070 h4        1 LZ0      0.102500
     34 H4'1       -1.9660   -2.4870   -3.3310 h4        1 LZ0      0.147500
     35 H4'2       -3.1080   -2.2020   -2.2270 h4        1 LZ0      0.147500
     36 H2'        -1.0690    2.1660   -2.2770 DU        1 LZ0      0.195000
     37 H1A        -4.7190   -2.5140   -3.9070 ha        1 LZ0      0.121000
@<TRIPOS>BOND
     1    1    2 1   
     2    1    7 1   
     3    1   11 1   
     4    1   21 1   
     5    2    3 1   
     6    2    8 1   
     7    2   22 1   
     8    3    4 1   
     9    3    9 1   
    10    3   23 1   
    11    4    5 1   
    12    4   10 1   
    13    4   25 1   
    14    5    6 1   
    15    5   11 1   
    16    5   27 1   
    17    6   29 1   
    18    6   30 1   
    19    6   31 1   
    20    7   17 1   
    21    8   24 1   
    22    9   26 1   
    23   10   28 1   
    24   12   13 1   
    25   13   37 1   
    26   14   15 1   
    27   14   34 1   
    28   14   35 1   
    29   15   16 1   
    30   15   20 1   
    31   16   18 1   
    32   17   32 1   
    33   17   33 1   
    34   18   19 1   
    35   19   20 1   
@<TRIPOS>SUBSTRUCTURE
     1 LZ0         1 TEMP              0 ****  ****    0 ROOT
