@<TRIPOS>MOLECULE
LZ1
   15     9     1     0     0
SMALL
bcc


@<TRIPOS>ATOM
      1 C1         -0.6860    0.0000   -0.5540 c1        1 LZ1     -0.067000
      2 C2          0.6760    0.0000   -0.5540 c1        1 LZ1     -0.067000
      3 C3          1.3790    0.0000    0.6650 c1        1 LZ1     -0.102000
      4 C4          0.6870    0.0000    1.8650 c1        1 LZ1     -0.130000
      5 C5         -0.6970    0.0000    1.8650 c1        1 LZ1     -0.130000
      6 C6         -1.3900    0.0000    0.6660 c1        1 LZ1     -0.102000
      7 N          -1.1080    0.0000   -1.8560 n1        1 LZ1     -0.203000
      8 C9          1.1020   -0.0000   -1.8710 c1        1 LZ1     -0.158000
      9 N2          0.0050   -0.0000   -2.6650 n2        1 LZ1     -0.042000
     10 H6         -2.3660   -0.0000    0.6660 ha        1 LZ1      0.138000
     11 H          -1.9750    0.0000   -2.1380 DU        1 LZ1      0.229500
     12 H3          2.3550    0.0000    0.6650 ha        1 LZ1      0.138000
     13 H9          2.0290   -0.0000   -2.1740 DU        1 LZ1      0.229500
     14 H4          1.1750   -0.0000    2.7100 ha        1 LZ1      0.133000
     15 H5         -1.1850    0.0000    2.7100 ha        1 LZ1      0.133000
@<TRIPOS>BOND
     1    1    6 1   
     2    2    3 1   
     3    3   12 1   
     4    4    5 1   
     5    4   14 1   
     6    5   15 1   
     7    6   10 1   
     8    7    9 1   
     9    8    9 1   
@<TRIPOS>SUBSTRUCTURE
     1 LZ1         1 TEMP              0 ****  ****    0 ROOT
