@<TRIPOS>MOLECULE
LZ1
   15    16     1     0     0
SMALL
bcc


@<TRIPOS>ATOM
      1 C1         26.6400    4.4140   64.2330 ca        1 LZ1     -0.054200
      2 C2         27.3200    5.6840   64.3580 ca        1 LZ1     -0.213900
      3 C3         26.8670    6.7870   63.6380 ca        1 LZ1     -0.062000
      4 C4         25.7580    6.6300   62.8180 ca        1 LZ1     -0.161000
      5 C5         25.0990    5.3910   62.7030 ca        1 LZ1     -0.098000
      6 C6         25.5230    4.2680   63.3980 ca        1 LZ1     -0.141000
      7 N          27.3620    3.5070   65.0300 na        1 LZ1     -0.022100
      8 C9         28.4020    5.4090   65.2960 cc        1 LZ1      0.347800
      9 N2         28.3610    4.1210   65.6840 nd        1 LZ1     -0.512100
     10 H6         25.0080    3.3040   63.2970 ha        1 LZ1      0.139000
     11 H          27.0340    2.6270   65.3500 hn        1 LZ1      0.317700
     12 H3         27.3800    7.7550   63.7190 ha        1 LZ1      0.138000
     13 H9         29.1570    6.1080   65.6570 h4        1 LZ1      0.054800
     14 H4         25.3800    7.4870   62.2420 ha        1 LZ1      0.134000
     15 H5         24.2230    5.3150   62.0410 ha        1 LZ1      0.133000
@<TRIPOS>BOND
     1    1    2 ar  
     2    1    6 ar  
     3    1    7 1   
     4    2    3 ar  
     5    2    8 1   
     6    3    4 ar  
     7    3   12 1   
     8    4    5 ar  
     9    4   14 1   
    10    5    6 ar  
    11    5   15 1   
    12    6   10 1   
    13    7    9 1   
    14    7   11 1   
    15    8    9 2   
    16    8   13 1   
@<TRIPOS>SUBSTRUCTURE
     1 LZ1         1 TEMP              0 ****  ****    0 ROOT
