@<TRIPOS>MOLECULE
LZ2
   25    26     1     0     0
SMALL
bcc


@<TRIPOS>ATOM
      1 N1         -0.0600    0.2690    0.2090 n4        1 LZ2     -0.782500
      2 S2          1.8150   -0.0640   -0.1400 sy        1 LZ2      1.499200
      3 O3          2.2570   -0.2750    1.1520 o         1 LZ2     -0.575300
      4 O4          1.6890   -1.1290   -1.0040 o         1 LZ2     -0.575300
      5 C5          2.1680    1.3700   -0.7310 ca        1 LZ2     -0.588500
      6 C6          2.9380    2.2400    0.0690 ca        1 LZ2      0.067000
      7 C7          3.3490    3.4930   -0.3690 ca        1 LZ2     -0.196000
      8 C8          2.9940    3.9300   -1.6380 ca        1 LZ2      0.077000
      9 C9          2.2150    3.1080   -2.4800 ca        1 LZ2     -0.118000
     10 C10         1.8380    3.5520   -3.7920 ca        1 LZ2      0.206100
     11 O11         2.2720    4.7990   -4.1360 oh        1 LZ2     -0.481100
     12 C12         1.0800    2.7480   -4.6320 ca        1 LZ2     -0.240000
     13 C13         0.6840    1.4780   -4.1860 ca        1 LZ2      0.013000
     14 C14         1.0250    1.0220   -2.9250 ca        1 LZ2     -0.263000
     15 C15         1.7970    1.8160   -2.0470 ca        1 LZ2      0.121000
     16 H1N1       -0.6330   -0.4420   -0.2380 hn        1 LZ2      0.452467
     17 H1N2       -0.2440    0.2380    1.2090 hn        1 LZ2      0.452467
     18 H6          3.2390    1.9090    1.0850 ha        1 LZ2      0.174000
     19 H7          3.9600    4.1330    0.2890 ha        1 LZ2      0.179000
     20 H8          3.3160    4.9230   -2.0050 ha        1 LZ2      0.185000
     21 H11         1.9890    4.9940   -5.0460 ho        1 LZ2      0.455000
     22 H12         0.7980    3.0910   -5.6390 ha        1 LZ2      0.168000
     23 H13         0.0960    0.8330   -4.8620 ha        1 LZ2      0.164000
     24 H14         0.7250   -0.0010   -2.6460 ha        1 LZ2      0.152000
     25 H131       -0.3530    1.1750   -0.1410 hn        1 LZ2      0.452467
@<TRIPOS>BOND
     1    1    2 1   
     2    1   16 1   
     3    1   17 1   
     4    1   25 1   
     5    2    3 2   
     6    2    4 2   
     7    2    5 1   
     8    5    6 ar  
     9    5   15 ar  
    10    6    7 ar  
    11    6   18 1   
    12    7    8 ar  
    13    7   19 1   
    14    8    9 ar  
    15    8   20 1   
    16    9   10 ar  
    17    9   15 ar  
    18   10   11 1   
    19   10   12 ar  
    20   11   21 1   
    21   12   13 ar  
    22   12   22 1   
    23   13   14 ar  
    24   13   23 1   
    25   14   15 ar  
    26   14   24 1   
@<TRIPOS>SUBSTRUCTURE
     1 LZ2         1 TEMP              0 ****  ****    0 ROOT
