@<TRIPOS>MOLECULE
LZ2
   24    25     1     0     0
SMALL
bcc


@<TRIPOS>ATOM
      1 N1         26.7870    7.8820   60.2380 n3        1 LZ2     -1.025700
      2 S2         26.3210    8.5320   61.6240 sy        1 LZ2      1.523200
      3 O3         26.8210    9.8530   61.7030 o         1 LZ2     -0.657800
      4 O4         24.9310    8.3750   61.7810 o         1 LZ2     -0.657800
      5 C5         27.1490    7.5950   62.7800 ca        1 LZ2     -0.368500
      6 C6         28.1850    8.1990   63.4660 ca        1 LZ2      0.006000
      7 C7         28.9520    7.4970   64.4180 ca        1 LZ2     -0.165000
      8 C8         28.6760    6.1760   64.6770 ca        1 LZ2     -0.055000
      9 C9         27.6130    5.5120   64.0120 ca        1 LZ2     -0.114000
     10 C10        27.2910    4.1400   64.2610 ca        1 LZ2      0.144100
     11 O11        27.9970    3.3520   65.1420 oh        1 LZ2     -0.495100
     12 C12        26.2530    3.5090   63.5960 ca        1 LZ2     -0.174000
     13 C13        25.4850    4.2400   62.6700 ca        1 LZ2     -0.065000
     14 C14        25.7580    5.5630   62.4130 ca        1 LZ2     -0.192000
     15 C15        26.8330    6.2300   63.0610 ca        1 LZ2      0.088000
     16 H1N1       27.5220    8.2480   59.6870 hn        1 LZ2      0.448800
     17 H1N2       26.3780    7.0730   59.8420 hn        1 LZ2      0.448800
     18 H6         28.4300    9.2610   63.2710 ha        1 LZ2      0.168000
     19 H7         29.7700    8.0160   64.9400 ha        1 LZ2      0.145000
     20 H8         29.2970    5.6320   65.4060 ha        1 LZ2      0.127000
     21 H11        28.5120    3.9200   65.7300 ho        1 LZ2      0.421000
     22 H12        26.0310    2.4520   63.7980 ha        1 LZ2      0.156000
     23 H13        24.6480    3.7370   62.1610 ha        1 LZ2      0.142000
     24 H14        25.1030    6.1220   61.7250 ha        1 LZ2      0.153000
@<TRIPOS>BOND
     1    1    2 1   
     2    1   16 1   
     3    1   17 1   
     4    2    3 2   
     5    2    4 2   
     6    2    5 1   
     7    5    6 ar  
     8    5   15 ar  
     9    6    7 ar  
    10    6   18 1   
    11    7    8 ar  
    12    7   19 1   
    13    8    9 ar  
    14    8   20 1   
    15    9   10 ar  
    16    9   15 ar  
    17   10   11 1   
    18   10   12 ar  
    19   11   21 1   
    20   12   13 ar  
    21   12   22 1   
    22   13   14 ar  
    23   13   23 1   
    24   14   15 ar  
    25   14   24 1   
@<TRIPOS>SUBSTRUCTURE
     1 LZ2         1 TEMP              0 ****  ****    0 ROOT
