@<TRIPOS>MOLECULE
LZ2
   25    26     1     0     0
SMALL
bcc


@<TRIPOS>ATOM
      1 N1         -0.0630    0.2680    0.2050 n4        1 LZ2     -0.782500
      2 S2          1.8150   -0.0590   -0.1350 sy        1 LZ2      1.499200
      3 O3          2.2510   -0.2660    1.1600 o         1 LZ2     -0.575300
      4 O4          1.6970   -1.1270   -0.9960 o         1 LZ2     -0.575300
      5 C5          2.1650    1.3750   -0.7270 ca        1 LZ2     -0.588500
      6 C6          2.9280    2.2490    0.0740 ca        1 LZ2      0.067000
      7 C7          3.3360    3.5020   -0.3640 ca        1 LZ2     -0.196000
      8 C8          2.9860    3.9350   -1.6360 ca        1 LZ2      0.077000
      9 C9          2.2140    3.1090   -2.4800 ca        1 LZ2     -0.118000
     10 C10         1.8420    3.5470   -3.7950 ca        1 LZ2      0.206100
     11 O11         2.2730    4.7960   -4.1400 oh        1 LZ2     -0.481100
     12 C12         1.0910    2.7390   -4.6370 ca        1 LZ2     -0.240000
     13 C13         0.6980    1.4680   -4.1890 ca        1 LZ2      0.013000
     14 C14         1.0340    1.0170   -2.9260 ca        1 LZ2     -0.263000
     15 C15         1.7990    1.8160   -2.0460 ca        1 LZ2      0.121000
     16 H1N1       -0.3580    1.1720   -0.1480 hn        1 LZ2      0.452467
     17 H1N2       -0.6320   -0.4470   -0.2430 hn        1 LZ2      0.452467
     18 H6          3.2250    1.9220    1.0930 ha        1 LZ2      0.174000
     19 H7          3.9420    4.1460    0.2950 ha        1 LZ2      0.179000
     20 H8          3.3060    4.9290   -2.0040 ha        1 LZ2      0.185000
     21 H11         1.9940    4.9870   -5.0520 ho        1 LZ2      0.455000
     22 H12         0.8130    3.0790   -5.6460 ha        1 LZ2      0.168000
     23 H13         0.1150    0.8200   -4.8670 ha        1 LZ2      0.164000
     24 H14         0.7360   -0.0060   -2.6460 ha        1 LZ2      0.152000
     25 H131       -0.2530    0.2380    1.2040 hn        1 LZ2      0.452467
@<TRIPOS>BOND
     1    1    2 1   
     2    1   16 1   
     3    1   17 1   
     4    1   25 1   
     5    2    3 2   
     6    2    4 2   
     7    2    5 1   
     8    5    6 ar  
     9    5   15 ar  
    10    6    7 ar  
    11    6   18 1   
    12    7    8 ar  
    13    7   19 1   
    14    8    9 ar  
    15    8   20 1   
    16    9   10 ar  
    17    9   15 ar  
    18   10   11 1   
    19   10   12 ar  
    20   11   21 1   
    21   12   13 ar  
    22   12   22 1   
    23   13   14 ar  
    24   13   23 1   
    25   14   15 ar  
    26   14   24 1   
@<TRIPOS>SUBSTRUCTURE
     1 LZ2         1 TEMP              0 ****  ****    0 ROOT
