@<TRIPOS>MOLECULE
LZ3
   34    28     1     0     0
SMALL
bcc


@<TRIPOS>ATOM
      1 N1         -0.3070   -0.0310    0.3410 n         1 LZ3     -0.326000
      2 C2          0.7730    0.8000    0.7260 c2        1 LZ3      0.398000
      3 C3          1.7180    0.3480    1.7980 c2        1 LZ3     -0.175000
      4 C4          2.6900   -1.9090    2.3620 c1        1 LZ3     -0.104833
      5 C5          3.7040   -2.5280    3.0480 c1        1 LZ3     -0.104833
      6 C6          4.5970   -1.7510    3.8690 c1        1 LZ3     -0.104833
      7 C7          4.4250   -0.3480    3.9670 c1        1 LZ3     -0.104833
      8 C9          2.5170   -0.4850    2.4610 c1        1 LZ3     -0.107000
      9 O11         0.9190    1.9410    0.1920 o         1 LZ3     -0.307000
     10 N12         2.0430    1.6030    2.1440 n2        1 LZ3      0.033000
     11 N17         3.0890    1.5430    3.0630 n2        1 LZ3     -0.182000
     12 C20        -2.0310   -0.7470   -0.8420 c1        1 LZ3     -0.220000
     13 C21        -2.9950   -0.7640   -1.8330 c1        1 LZ3      0.013000
     14 C22        -3.1920    0.4190   -2.6830 c1        1 LZ3     -0.873000
     15 C23        -2.4350    1.5180   -2.4990 c1        1 LZ3     -0.104833
     16 C24        -1.4320    1.5400   -1.4690 c1        1 LZ3     -0.104833
     17 S27        -4.5060    0.4530   -3.8800 s4        1 LZ3      2.088800
     18 O28        -5.3530   -0.7290   -3.7810 o         1 LZ3     -0.549400
     19 O29        -5.3850    1.4260   -3.5960 o         1 LZ3     -0.549400
     20 N30        -3.8790    0.6330   -5.4180 n2        1 LZ3     -0.953000
     21 C8         -1.2350    0.4150   -0.6510 c1        1 LZ3      0.147000
     22 C16         3.3820    0.2830    3.2590 c1        1 LZ3     -0.010000
     23 H1         -0.4150   -0.7920    0.7170 hn        1 LZ3      0.241000
     24 H4          2.0700   -2.4490    1.7990 ha        1 LZ3      0.150333
     25 H5          3.8230   -3.5000    2.9780 ha        1 LZ3      0.150333
     26 H6          5.3450   -2.2080    4.3790 ha        1 LZ3      0.150333
     27 H7          5.0190    0.1700    4.5110 ha        1 LZ3      0.150333
     28 H17         3.5150    2.2880    3.4720 DU        1 LZ3      0.286000
     29 H20        -1.8940   -1.5370   -0.2770 ha        1 LZ3      0.137000
     30 H21        -3.5850   -1.6180   -1.9770 ha        1 LZ3      0.154000
     31 H23        -2.5730    2.3220   -3.0780 ha        1 LZ3      0.150333
     32 H24        -0.8950    2.3240   -1.3420 ha        1 LZ3      0.150333
     33 H301       -3.6400   -0.1320   -5.9270 hn        1 LZ3      0.240500
     34 H302       -3.8790    1.5020   -5.8320 hn        1 LZ3      0.240500
@<TRIPOS>BOND
     1    1    2 1   
     2    1   21 1   
     3    1   23 1   
     4    2    3 1   
     5    2    9 1   
     6    3    8 1   
     7    3   10 1   
     8    4    5 1   
     9    4   24 1   
    10    5   25 1   
    11    6    7 1   
    12    6   26 1   
    13    7   27 1   
    14    8   22 1   
    15   10   11 1   
    16   11   22 1   
    17   12   21 1   
    18   12   29 1   
    19   13   14 1   
    20   13   30 1   
    21   14   17 1   
    22   15   16 1   
    23   15   31 1   
    24   16   32 1   
    25   17   18 1   
    26   17   19 1   
    27   20   33 1   
    28   20   34 1   
@<TRIPOS>SUBSTRUCTURE
     1 LZ3         1 TEMP              0 ****  ****    0 ROOT
