@<TRIPOS>MOLECULE
LZ3
   35    37     1     0     0
SMALL
bcc


@<TRIPOS>ATOM
      1 N1          0.1650    0.3340   -0.2530 n         1 LZ3     -0.440100
      2 C2          1.5100    0.6880    0.0450 c         1 LZ3      0.647800
      3 C3          2.0600    0.1770    1.3070 cc        1 LZ3      0.242900
      4 C4          4.5140    1.1720    1.3100 ca        1 LZ3     -0.068000
      5 C5          5.6600    1.1870    2.0900 ca        1 LZ3     -0.129000
      6 C6          5.7260    0.5020    3.3210 ca        1 LZ3     -0.090000
      7 C7          4.6530   -0.2210    3.8180 ca        1 LZ3     -0.122000
      8 C9          3.4110    0.4540    1.7770 ca        1 LZ3     -0.154900
      9 O11         2.1710    1.3870   -0.7340 o         1 LZ3     -0.540100
     10 N12         1.4090   -0.6120    2.2160 nd        1 LZ3     -0.481100
     11 N17         2.2310   -0.8590    3.2160 na        1 LZ3      0.029900
     12 C20        -0.1190    1.6400   -2.3350 ca        1 LZ3     -0.219000
     13 C21        -0.9320    1.9980   -3.3790 ca        1 LZ3      0.049000
     14 C22        -2.2540    1.4960   -3.5310 ca        1 LZ3     -0.655500
     15 C23        -2.7070    0.6040   -2.5230 ca        1 LZ3      0.049000
     16 C24        -1.9200    0.2310   -1.4660 ca        1 LZ3     -0.219000
     17 S27        -3.1890    1.9760   -4.6930 sy        1 LZ3      1.517200
     18 O28        -2.7810    3.0940   -5.3900 o         1 LZ3     -0.580300
     19 O29        -4.5260    1.6590   -4.5710 o         1 LZ3     -0.580300
     20 N30        -2.6870    0.6140   -6.0170 n4        1 LZ3     -0.779500
     21 C8         -0.5810    0.7360   -1.3280 ca        1 LZ3      0.233600
     22 C16         3.4880   -0.2440    3.0380 ca        1 LZ3     -0.068200
     23 H1         -0.2960   -0.2720    0.4000 hn        1 LZ3      0.353500
     24 H4          4.4560    1.7040    0.3480 ha        1 LZ3      0.163000
     25 H5          6.5440    1.7460    1.7460 ha        1 LZ3      0.150000
     26 H6          6.6620    0.5470    3.9030 ha        1 LZ3      0.151000
     27 H7          4.7120   -0.7510    4.7780 ha        1 LZ3      0.153000
     28 H17         1.9390   -1.4170    3.9890 hn        1 LZ3      0.343700
     29 H20         0.8990    2.0700   -2.2720 ha        1 LZ3      0.187500
     30 H21        -0.5550    2.7230   -4.1270 ha        1 LZ3      0.164500
     31 H23        -3.7420    0.2120   -2.5910 ha        1 LZ3      0.164500
     32 H24        -2.3270   -0.4590   -0.7070 ha        1 LZ3      0.187500
     33 H301       -3.5030    0.0730   -6.2880 hn        1 LZ3      0.446133
     34 H302       -1.9880   -0.0240   -5.6560 hn        1 LZ3      0.446133
     35 H303       -2.3130    1.0590   -6.8500 hn        1 LZ3      0.446133
@<TRIPOS>BOND
     1    1    2 1   
     2    1   21 1   
     3    1   23 1   
     4    2    3 1   
     5    2    9 2   
     6    3    8 1   
     7    3   10 2   
     8    4    5 ar  
     9    4    8 ar  
    10    4   24 1   
    11    5    6 ar  
    12    5   25 1   
    13    6    7 ar  
    14    6   26 1   
    15    7   22 ar  
    16    7   27 1   
    17    8   22 ar  
    18   10   11 1   
    19   11   22 1   
    20   11   28 1   
    21   12   13 ar  
    22   12   21 ar  
    23   12   29 1   
    24   13   14 ar  
    25   13   30 1   
    26   14   15 ar  
    27   14   17 1   
    28   15   16 ar  
    29   15   31 1   
    30   16   21 ar  
    31   16   32 1   
    32   17   18 2   
    33   17   19 2   
    34   17   20 1   
    35   20   33 1   
    36   20   34 1   
    37   20   35 1   
@<TRIPOS>SUBSTRUCTURE
     1 LZ3         1 TEMP              0 ****  ****    0 ROOT
