@<TRIPOS>MOLECULE
LZ3
   35    37     1     0     0
SMALL
bcc


@<TRIPOS>ATOM
      1 N1          0.1690    0.3250   -0.2560 ns        1 LZ3     -0.440100
      2 C2          1.5120    0.6860    0.0440 c         1 LZ3      0.647800
      3 C3          2.0680    0.1680    1.2990 cc        1 LZ3      0.242900
      4 C4          4.5130    1.1850    1.3100 ca        1 LZ3     -0.068000
      5 C5          5.6590    1.2020    2.0880 ca        1 LZ3     -0.129000
      6 C6          5.7340    0.5060    3.3120 ca        1 LZ3     -0.090000
      7 C7          4.6680   -0.2320    3.8030 ca        1 LZ3     -0.122000
      8 C9          3.4170    0.4520    1.7700 ca        1 LZ3     -0.154900
      9 O11         2.1660    1.3980   -0.7300 o         1 LZ3     -0.540100
     10 N12         1.4250   -0.6370    2.2010 nd        1 LZ3     -0.481100
     11 N17         2.2510   -0.8860    3.1980 na        1 LZ3      0.029900
     12 C20        -0.1280    1.6470   -2.3250 ca        1 LZ3     -0.219000
     13 C21        -0.9460    2.0080   -3.3650 ca        1 LZ3      0.049000
     14 C22        -2.2640    1.4980   -3.5200 ca        1 LZ3     -0.655500
     15 C23        -2.7090    0.5930   -2.5180 ca        1 LZ3      0.049000
     16 C24        -1.9170    0.2170   -1.4660 ca        1 LZ3     -0.219000
     17 S27        -3.2050    1.9800   -4.6760 sy        1 LZ3      1.517200
     18 O28        -2.8060    3.1070   -5.3640 o         1 LZ3     -0.580300
     19 O29        -4.5400    1.6530   -4.5540 o         1 LZ3     -0.580300
     20 N30        -2.6950    0.6330   -6.0120 nz        1 LZ3     -0.779500
     21 C8         -0.5820    0.7300   -1.3260 ca        1 LZ3      0.233600
     22 C16         3.5020   -0.2580    3.0240 ca        1 LZ3     -0.068200
     23 H1         -0.2860   -0.2910    0.3920 hn        1 LZ3      0.353500
     24 H4          4.4490    1.7270    0.3530 ha        1 LZ3      0.163000
     25 H5          6.5380    1.7730    1.7490 ha        1 LZ3      0.150000
     26 H6          6.6700    0.5530    3.8930 ha        1 LZ3      0.151000
     27 H7          4.7330   -0.7720    4.7570 ha        1 LZ3      0.153000
     28 H17         1.9650   -1.4550    3.9640 hn        1 LZ3      0.343700
     29 H20         0.8860    2.0840   -2.2600 ha        1 LZ3      0.187500
     30 H21        -0.5750    2.7420   -4.1080 ha        1 LZ3      0.164500
     31 H23        -3.7410    0.1940   -2.5880 ha        1 LZ3      0.164500
     32 H24        -2.3170   -0.4830   -0.7120 ha        1 LZ3      0.187500
     33 H301       -2.3260    1.0890   -6.8420 hn        1 LZ3      0.446133
     34 H302       -1.9900   -0.0020   -5.6580 hn        1 LZ3      0.446133
     35 H303       -3.5070    0.0890   -6.2860 hn        1 LZ3      0.446133
@<TRIPOS>BOND
     1    1    2 1   
     2    1   21 1   
     3    1   23 1   
     4    2    3 1   
     5    2    9 2   
     6    3    8 1   
     7    3   10 2   
     8    4    5 ar  
     9    4    8 ar  
    10    4   24 1   
    11    5    6 ar  
    12    5   25 1   
    13    6    7 ar  
    14    6   26 1   
    15    7   22 ar  
    16    7   27 1   
    17    8   22 ar  
    18   10   11 1   
    19   11   22 1   
    20   11   28 1   
    21   12   13 ar  
    22   12   21 ar  
    23   12   29 1   
    24   13   14 ar  
    25   13   30 1   
    26   14   15 ar  
    27   14   17 1   
    28   15   16 ar  
    29   15   31 1   
    30   16   21 ar  
    31   16   32 1   
    32   17   18 2   
    33   17   19 2   
    34   17   20 1   
    35   20   33 1   
    36   20   34 1   
    37   20   35 1   
@<TRIPOS>SUBSTRUCTURE
     1 LZ3         1 TEMP              0 ****  ****    0 ROOT
