@<TRIPOS>MOLECULE
LZ3
   34    36     1     0     0
SMALL
bcc


@<TRIPOS>ATOM
      1 N1         29.4040    6.5400   64.5450 n         1 LZ3     -0.462100
      2 C2         28.3530    6.3110   63.6600 c         1 LZ3      0.636800
      3 C3         27.4760    5.1500   63.9460 cc        1 LZ3      0.275900
      4 C4         25.7660    5.2300   61.9270 ca        1 LZ3     -0.053000
      5 C5         24.6650    4.5510   61.4290 ca        1 LZ3     -0.152000
      6 C6         24.1390    3.4170   62.0800 ca        1 LZ3     -0.095000
      7 C7         24.6920    2.9210   63.2510 ca        1 LZ3     -0.138000
      8 C9         26.3510    4.7600   63.1040 ca        1 LZ3     -0.166900
      9 O11        28.1340    7.0300   62.6690 o         1 LZ3     -0.578100
     10 N12        27.5770    4.2950   65.0000 nd        1 LZ3     -0.488100
     11 N17        26.6100    3.3920   64.9030 na        1 LZ3      0.000900
     12 C20        30.4520    8.4770   63.4070 ca        1 LZ3     -0.204500
     13 C21        31.4360    9.4560   63.4170 ca        1 LZ3      0.012500
     14 C22        32.3570    9.5710   64.4640 ca        1 LZ3     -0.428500
     15 C23        32.2730    8.6480   65.5140 ca        1 LZ3      0.012500
     16 C24        31.3040    7.6590   65.5340 ca        1 LZ3     -0.204500
     17 S27        33.5520   10.7530   64.4460 sy        1 LZ3      1.533200
     18 O28        33.8490   11.0760   63.1030 o         1 LZ3     -0.662300
     19 O29        34.6190   10.3250   65.2670 o         1 LZ3     -0.662300
     20 N30        32.8390   12.0140   65.1360 n3        1 LZ3     -1.026700
     21 C8         30.3610    7.5550   64.4750 ca        1 LZ3      0.139600
     22 C16        25.8070    3.5980   63.7660 ca        1 LZ3     -0.062200
     23 H1         29.4950    5.9250   65.3260 hn        1 LZ3      0.335500
     24 H4         26.1840    6.1180   61.4260 ha        1 LZ3      0.169000
     25 H5         24.1840    4.9000   60.5020 ha        1 LZ3      0.140000
     26 H6         23.2630    2.9130   61.6430 ha        1 LZ3      0.138000
     27 H7         24.2780    2.0370   63.7530 ha        1 LZ3      0.142000
     28 H17        26.5220    2.6710   65.5790 hn        1 LZ3      0.332700
     29 H20        29.7510    8.4280   62.5580 ha        1 LZ3      0.159500
     30 H21        31.5050   10.1530   62.5620 ha        1 LZ3      0.153500
     31 H23        33.0100    8.7020   66.3370 ha        1 LZ3      0.153500
     32 H24        31.2770    6.9510   66.3770 ha        1 LZ3      0.159500
     33 H301       32.8640   12.1920   66.1080 hn        1 LZ3      0.445300
     34 H302       32.3450   12.7060   64.6330 hn        1 LZ3      0.445300
@<TRIPOS>BOND
     1    1    2 1   
     2    1   21 1   
     3    1   23 1   
     4    2    3 1   
     5    2    9 2   
     6    3    8 1   
     7    3   10 2   
     8    4    5 ar  
     9    4    8 ar  
    10    4   24 1   
    11    5    6 ar  
    12    5   25 1   
    13    6    7 ar  
    14    6   26 1   
    15    7   22 ar  
    16    7   27 1   
    17    8   22 ar  
    18   10   11 1   
    19   11   22 1   
    20   11   28 1   
    21   12   13 ar  
    22   12   21 ar  
    23   12   29 1   
    24   13   14 ar  
    25   13   30 1   
    26   14   15 ar  
    27   14   17 1   
    28   15   16 ar  
    29   15   31 1   
    30   16   21 ar  
    31   16   32 1   
    32   17   18 2   
    33   17   19 2   
    34   17   20 1   
    35   20   33 1   
    36   20   34 1   
@<TRIPOS>SUBSTRUCTURE
     1 LZ3         1 TEMP              0 ****  ****    0 ROOT
