@<TRIPOS>MOLECULE
LZ3
   36    38     1     0     0
SMALL
bcc


@<TRIPOS>ATOM
      1 N1         -0.3000    0.6610    0.2900 n4        1 LZ3     -0.583200
      2 C2          1.2540    0.5650    0.1760 c         1 LZ3      0.545800
      3 C3          1.9110    0.3880    1.4330 cc        1 LZ3      0.172900
      4 C4          4.4760    0.2780    0.7800 ca        1 LZ3     -0.096000
      5 C5          5.7230    0.1290    1.3740 ca        1 LZ3     -0.081000
      6 C6          5.8680   -0.0280    2.7680 ca        1 LZ3     -0.085000
      7 C7          4.7760   -0.0410    3.6230 ca        1 LZ3     -0.088000
      8 C9          3.3540    0.2690    1.6070 ca        1 LZ3     -0.121900
      9 O11         1.6980    0.6530   -0.9560 o         1 LZ3     -0.431100
     10 N12         1.2880    0.3010    2.6700 nd        1 LZ3     -0.473100
     11 N17         2.2050    0.1420    3.5790 na        1 LZ3      0.106900
     12 C20        -1.2310    2.1400   -1.4750 ca        1 LZ3     -0.119000
     13 C21        -1.8930    2.3010   -2.6890 ca        1 LZ3      0.027000
     14 C22        -2.3200    1.1940   -3.4460 ca        1 LZ3     -0.476500
     15 C23        -2.0600   -0.0930   -2.9400 ca        1 LZ3      0.027000
     16 C24        -1.4000   -0.2790   -1.7290 ca        1 LZ3     -0.119000
     17 S27        -3.2180    1.3990   -4.8010 sy        1 LZ3      1.467200
     18 O28        -3.7140    2.6740   -4.9300 o         1 LZ3     -0.534800
     19 O29        -3.8820    0.2580   -5.1830 o         1 LZ3     -0.534800
     20 N30        -1.8290    1.4360   -6.0810 n4        1 LZ3     -0.800500
     21 C8         -0.9840    0.8430   -0.9890 ca        1 LZ3      0.096600
     22 C16         3.5110    0.1080    3.0340 ca        1 LZ3     -0.090200
     23 H1         -0.5210    1.4510    0.9110 hn        1 LZ3      0.477800
     24 H4          4.3700    0.3990   -0.3080 ha        1 LZ3      0.162000
     25 H5          6.6290    0.1320    0.7430 ha        1 LZ3      0.170000
     26 H6          6.8830   -0.1420    3.1880 ha        1 LZ3      0.176000
     27 H7          4.8960   -0.1640    4.7100 ha        1 LZ3      0.174000
     28 H17         1.9580    0.0580    4.5480 hn        1 LZ3      0.367700
     29 H20        -0.9150    3.0390   -0.9140 ha        1 LZ3      0.191000
     30 H21        -2.1060    3.3300   -3.0470 ha        1 LZ3      0.196000
     31 H23        -2.4070   -0.9870   -3.4990 ha        1 LZ3      0.196000
     32 H24        -1.2180   -1.3100   -1.3690 ha        1 LZ3      0.191000
     33 H301       -0.8980    1.3290   -5.6860 hn        1 LZ3      0.470133
     34 H302       -1.9560    0.6870   -6.7680 hn        1 LZ3      0.470133
     35 H12        -0.6360   -0.2020    0.7380 hn        1 LZ3      0.477800
     36 H303       -1.8420    2.3200   -6.5970 hn        1 LZ3      0.470133
@<TRIPOS>BOND
     1    1    2 1   
     2    1   21 1   
     3    1   23 1   
     4    1   35 1   
     5    2    3 1   
     6    2    9 2   
     7    3    8 1   
     8    3   10 2   
     9    4    5 ar  
    10    4    8 ar  
    11    4   24 1   
    12    5    6 ar  
    13    5   25 1   
    14    6    7 ar  
    15    6   26 1   
    16    7   22 ar  
    17    7   27 1   
    18    8   22 ar  
    19   10   11 1   
    20   11   22 1   
    21   11   28 1   
    22   12   13 ar  
    23   12   21 ar  
    24   12   29 1   
    25   13   14 ar  
    26   13   30 1   
    27   14   15 ar  
    28   14   17 1   
    29   15   16 ar  
    30   15   31 1   
    31   16   21 ar  
    32   16   32 1   
    33   17   18 2   
    34   17   19 2   
    35   17   20 1   
    36   20   33 1   
    37   20   34 1   
    38   20   36 1   
@<TRIPOS>SUBSTRUCTURE
     1 LZ3         1 TEMP              0 ****  ****    0 ROOT
