@<TRIPOS>MOLECULE
LZ4
   28    29     1     0     0
SMALL
bcc


@<TRIPOS>ATOM
      1 N1          0.0770    0.0200   -0.1750 nz        1 LZ4     -0.780500
      2 S2          2.0390    0.0020   -0.1330 sy        1 LZ4      1.517200
      3 O3          2.2110   -0.1210    1.2300 o         1 LZ4     -0.579300
      4 O4          2.2510   -1.0630   -0.9830 o         1 LZ4     -0.579300
      5 C5          2.2820    1.4280   -0.7360 ca        1 LZ4     -0.661500
      6 C6          2.4240    2.5760    0.0930 ca        1 LZ4      0.059000
      7 C7          2.7180    3.8150   -0.4110 ca        1 LZ4     -0.229000
      8 C8          2.8980    4.0060   -1.8230 ca        1 LZ4      0.317600
      9 N9          3.1360    5.2580   -2.3070 nu        1 LZ4     -0.687300
     10 C10         3.4540    5.5190   -3.6720 ca        1 LZ4      0.468900
     11 C11         2.4900    5.2870   -4.7000 ca        1 LZ4      0.297900
     12 N12         2.7560    5.5740   -5.9910 nb        1 LZ4     -0.597000
     13 C13         3.9570    6.0950   -6.2750 ca        1 LZ4      0.320900
     14 C14         4.9300    6.3350   -5.2500 ca        1 LZ4      0.394000
     15 Cl1         6.4290    6.9980   -5.6840 cl        1 LZ4     -0.075000
     16 N16         4.6870    6.0460   -3.9550 nb        1 LZ4     -0.633000
     17 C17         2.7660    2.8550   -2.6650 ca        1 LZ4     -0.229000
     18 C18         2.4750    1.6290   -2.1310 ca        1 LZ4      0.059000
     19 H1N1       -0.2880    0.8880   -0.5490 hn        1 LZ4      0.446133
     20 H1N2       -0.2930   -0.1030    0.7630 hn        1 LZ4      0.446133
     21 H6          2.3130    2.4510    1.1880 ha        1 LZ4      0.166000
     22 H18         2.4060    0.7500   -2.8030 ha        1 LZ4      0.166000
     23 H7          2.8290    4.6710    0.2760 ha        1 LZ4      0.173000
     24 H9          3.3880    5.9770   -1.6530 hn        1 LZ4      0.476800
     25 H17         2.9220    2.9550   -3.7530 ha        1 LZ4      0.173000
     26 H11         1.4890    4.8750   -4.4850 h4        1 LZ4      0.049100
     27 H13         4.1680    6.3380   -7.3340 h4        1 LZ4      0.071100
     28 H131       -0.2660   -0.7440   -0.7500 hn        1 LZ4      0.446133
@<TRIPOS>BOND
     1    1    2 1   
     2    1   19 1   
     3    1   20 1   
     4    1   28 1   
     5    2    3 2   
     6    2    4 2   
     7    2    5 1   
     8    5    6 ar  
     9    5   18 ar  
    10    6    7 ar  
    11    6   21 1   
    12    7    8 ar  
    13    7   23 1   
    14    8    9 1   
    15    8   17 ar  
    16    9   10 1   
    17    9   24 1   
    18   10   11 ar  
    19   10   16 ar  
    20   11   12 ar  
    21   11   26 1   
    22   12   13 ar  
    23   13   14 ar  
    24   13   27 1   
    25   14   15 1   
    26   14   16 ar  
    27   17   18 ar  
    28   17   25 1   
    29   18   22 1   
@<TRIPOS>SUBSTRUCTURE
     1 LZ4         1 TEMP              0 ****  ****    0 ROOT
