@<TRIPOS>MOLECULE
LZ4
   28    29     1     0     0
SMALL
bcc


@<TRIPOS>ATOM
      1 N1          0.0530    0.0380   -0.1760 n4        1 LZ4     -0.780500
      2 S2          2.0160   -0.0010   -0.1430 sy        1 LZ4      1.517200
      3 O3          2.1930   -0.1320    1.2180 o         1 LZ4     -0.579300
      4 O4          2.2110   -1.0650   -0.9990 o         1 LZ4     -0.579300
      5 C5          2.2710    1.4250   -0.7420 ca        1 LZ4     -0.661500
      6 C6          2.4290    2.5680    0.0910 ca        1 LZ4      0.059000
      7 C7          2.7330    3.8050   -0.4090 ca        1 LZ4     -0.229000
      8 C8          2.9090    4.0010   -1.8220 ca        1 LZ4      0.317600
      9 N9          3.1580    5.2520   -2.3010 nh        1 LZ4     -0.687300
     10 C10         3.4720    5.5150   -3.6670 ca        1 LZ4      0.468900
     11 C11         2.5010    5.2970   -4.6910 ca        1 LZ4      0.297900
     12 N12         2.7630    5.5870   -5.9820 nb        1 LZ4     -0.597000
     13 C13         3.9670    6.0980   -6.2700 ca        1 LZ4      0.320900
     14 C14         4.9470    6.3240   -5.2480 ca        1 LZ4      0.394000
     15 CL1         6.4510    6.9740   -5.6870 cl        1 LZ4     -0.075000
     16 N16         4.7080    6.0320   -3.9540 nb        1 LZ4     -0.633000
     17 C17         2.7600    2.8550   -2.6680 ca        1 LZ4     -0.229000
     18 C18         2.4590    1.6290   -2.1370 ca        1 LZ4      0.059000
     19 H1N1       -0.3010   -0.7200   -0.7520 hn        1 LZ4      0.446133
     20 H1N2       -0.3030    0.9110   -0.5440 hn        1 LZ4      0.446133
     21 H6          2.3230    2.4390    1.1860 ha        1 LZ4      0.166000
     22 H18         2.3780    0.7540   -2.8120 ha        1 LZ4      0.166000
     23 H7          2.8580    4.6570    0.2810 ha        1 LZ4      0.173000
     24 H9          3.4200    5.9650   -1.6460 hn        1 LZ4      0.476800
     25 H17         2.9120    2.9580   -3.7560 ha        1 LZ4      0.173000
     26 H11         1.4960    4.8940   -4.4720 h4        1 LZ4      0.049100
     27 H13         4.1760    6.3430   -7.3290 h4        1 LZ4      0.071100
     28 H131       -0.3130   -0.0850    0.7640 hn        1 LZ4      0.446133
@<TRIPOS>BOND
     1    1    2 1   
     2    1   19 1   
     3    1   20 1   
     4    1   28 1   
     5    2    3 2   
     6    2    4 2   
     7    2    5 1   
     8    5    6 ar  
     9    5   18 ar  
    10    6    7 ar  
    11    6   21 1   
    12    7    8 ar  
    13    7   23 1   
    14    8    9 1   
    15    8   17 ar  
    16    9   10 1   
    17    9   24 1   
    18   10   11 ar  
    19   10   16 ar  
    20   11   12 ar  
    21   11   26 1   
    22   12   13 ar  
    23   13   14 ar  
    24   13   27 1   
    25   14   15 1   
    26   14   16 ar  
    27   17   18 ar  
    28   17   25 1   
    29   18   22 1   
@<TRIPOS>SUBSTRUCTURE
     1 LZ4         1 TEMP              0 ****  ****    0 ROOT
