@<TRIPOS>MOLECULE
LZ4
   27    28     1     0     0
SMALL
bcc


@<TRIPOS>ATOM
      1 N1         33.7000   10.5770   65.8490 n3        1 LZ4     -1.026700
      2 S2         33.3560   10.3690   64.2980 sy        1 LZ4      1.533200
      3 O3         33.1480   11.6310   63.7000 o         1 LZ4     -0.659800
      4 O4         34.3260    9.5190   63.7230 o         1 LZ4     -0.659800
      5 C5         31.8850    9.5490   64.3310 ca        1 LZ4     -0.423500
      6 C6         30.6710   10.2470   64.3060 ca        1 LZ4      0.018000
      7 C7         29.4530    9.5880   64.3140 ca        1 LZ4     -0.209500
      8 C8         29.4100    8.1690   64.3560 ca        1 LZ4      0.211600
      9 N9         28.1570    7.5480   64.4410 nh        1 LZ4     -0.718300
     10 C10        28.0210    6.1420   64.4460 ca        1 LZ4      0.521900
     11 C11        28.6880    5.3500   65.4460 ca        1 LZ4      0.274900
     12 N12        28.5110    4.0220   65.5350 nb        1 LZ4     -0.603000
     13 C13        27.6730    3.4470   64.6550 ca        1 LZ4      0.274900
     14 C14        27.0020    4.2190   63.6630 ca        1 LZ4      0.401000
     15 CL1        25.9520    3.4240   62.5820 cl        1 LZ4     -0.122000
     16 N16        27.1720    5.5530   63.5450 nb        1 LZ4     -0.669000
     17 C17        30.6330    7.4620   64.3500 ca        1 LZ4     -0.209500
     18 C18        31.8380    8.1510   64.3400 ca        1 LZ4      0.018000
     19 H1N1       34.2350    9.9380   66.3810 hn        1 LZ4      0.446800
     20 H1N2       33.4230   11.3710   66.3700 hn        1 LZ4      0.446800
     21 H6         30.6880   11.3520   64.2590 ha        1 LZ4      0.156000
     22 H18        32.7850    7.5810   64.3150 ha        1 LZ4      0.156000
     23 H7         28.5200   10.1720   64.2900 ha        1 LZ4      0.147000
     24 H9         27.4180    8.0440   63.9780 hn        1 LZ4      0.444800
     25 H17        30.6460    6.3610   64.3340 ha        1 LZ4      0.147000
     26 H11        29.3650    5.8130   66.1850 h4        1 LZ4      0.051100
     27 H13        27.5260    2.3560   64.7360 h4        1 LZ4      0.052100
@<TRIPOS>BOND
     1    1    2 1   
     2    1   19 1   
     3    1   20 1   
     4    2    3 2   
     5    2    4 2   
     6    2    5 1   
     7    5    6 ar  
     8    5   18 ar  
     9    6    7 ar  
    10    6   21 1   
    11    7    8 ar  
    12    7   23 1   
    13    8    9 1   
    14    8   17 ar  
    15    9   10 1   
    16    9   24 1   
    17   10   11 ar  
    18   10   16 ar  
    19   11   12 ar  
    20   11   26 1   
    21   12   13 ar  
    22   13   14 ar  
    23   13   27 1   
    24   14   15 1   
    25   14   16 ar  
    26   17   18 ar  
    27   17   25 1   
    28   18   22 1   
@<TRIPOS>SUBSTRUCTURE
     1 LZ4         1 TEMP              0 ****  ****    0 ROOT
