@<TRIPOS>MOLECULE
LZ4
   29    30     1     0     0
SMALL
bcc


@<TRIPOS>ATOM
      1 N1          0.9790   -0.2230    0.6220 n4        1 LZ4     -0.801500
      2 S2          2.2230   -0.1820   -0.7930 sy        1 LZ4      1.462200
      3 O3          3.3890   -0.4410   -0.1140 o         1 LZ4     -0.531300
      4 O4          1.6230   -1.0380   -1.6850 o         1 LZ4     -0.531300
      5 C5          2.0830    1.3950   -1.2370 ca        1 LZ4     -0.465500
      6 C6          2.9420    2.3720   -0.7030 ca        1 LZ4      0.023000
      7 C7          2.9380    3.6840   -1.1760 ca        1 LZ4     -0.110000
      8 C8          2.0580    4.0340   -2.2140 ca        1 LZ4      0.077600
      9 N9          2.0560    5.4090   -2.7380 n4        1 LZ4     -0.622100
     10 C10         3.1630    5.6650   -3.6940 ca        1 LZ4      0.312900
     11 C11         2.8820    6.1400   -5.0000 ca        1 LZ4      0.356900
     12 N12         3.8960    6.4080   -5.8580 nb        1 LZ4     -0.568000
     13 C13         5.1460    6.2130   -5.4350 ca        1 LZ4      0.382900
     14 C14         5.4290    5.7230   -4.1020 ca        1 LZ4      0.404000
     15 CL1         7.0330    5.4980   -3.6340 cl        1 LZ4     -0.014000
     16 N16         4.4350    5.4470   -3.2380 nb        1 LZ4     -0.640000
     17 C17         1.1810    3.0790   -2.7600 ca        1 LZ4     -0.110000
     18 C18         1.2030    1.7770   -2.2670 ca        1 LZ4      0.023000
     19 H1N1        1.4370   -0.5090    1.4930 hn        1 LZ4      0.471800
     20 H1N2        0.2450   -0.9130    0.4330 hn        1 LZ4      0.471800
     21 H6          3.6670    2.0990    0.0920 ha        1 LZ4      0.199500
     22 H18         0.5290    1.0230   -2.7270 ha        1 LZ4      0.199500
     23 H7          3.6490    4.4150   -0.7430 ha        1 LZ4      0.198500
     24 H9          1.1670    5.5950   -3.2260 hn        1 LZ4      0.482800
     25 H17         0.4820    3.3280   -3.5800 ha        1 LZ4      0.198500
     26 H11         1.8620    6.3240   -5.3890 h4        1 LZ4      0.071100
     27 H13         5.9700    6.4440   -6.1460 h4        1 LZ4      0.104100
     28 H131        0.5180    0.6650    0.8020 hn        1 LZ4      0.471800
     29 H92         2.1500    6.0690   -1.9460 hn        1 LZ4      0.482800
@<TRIPOS>BOND
     1    1    2 1   
     2    1   19 1   
     3    1   20 1   
     4    1   28 1   
     5    2    3 2   
     6    2    4 2   
     7    2    5 1   
     8    5    6 ar  
     9    5   18 ar  
    10    6    7 ar  
    11    6   21 1   
    12    7    8 ar  
    13    7   23 1   
    14    8    9 1   
    15    8   17 ar  
    16    9   10 1   
    17    9   24 1   
    18    9   29 1   
    19   10   11 ar  
    20   10   16 ar  
    21   11   12 ar  
    22   11   26 1   
    23   12   13 ar  
    24   13   14 ar  
    25   13   27 1   
    26   14   15 1   
    27   14   16 ar  
    28   17   18 ar  
    29   17   25 1   
    30   18   22 1   
@<TRIPOS>SUBSTRUCTURE
     1 LZ4         1 TEMP              0 ****  ****    0 ROOT
