@<TRIPOS>MOLECULE
LZ5
   23    24     1     0     0
SMALL
bcc


@<TRIPOS>ATOM
      1 O1          0.1310    0.9020   -0.1030 o         1 LZ5     -0.590100
      2 C2          1.2790    0.4240   -0.0360 c         1 LZ5      0.610600
      3 N3          1.9020    0.0880    1.1560 ns        1 LZ5     -0.459100
      4 C4          1.3790    0.2170    2.4540 ca        1 LZ5      0.070600
      5 C5          0.0970    0.7360    2.7300 ca        1 LZ5     -0.170500
      6 C6         -0.3480    0.8310    4.0460 ca        1 LZ5     -0.105500
      7 C7          0.4540    0.4210    5.1070 ca        1 LZ5     -0.159000
      8 C8          1.7240   -0.0930    4.8450 ca        1 LZ5     -0.105500
      9 C9          2.1900   -0.1980    3.5410 ca        1 LZ5     -0.170500
     10 C10         2.0460    0.1910   -1.2850 cc        1 LZ5      0.239800
     11 C11         1.5190    0.4940   -2.6010 cc        1 LZ5     -0.226300
     12 C12         2.5420    0.1310   -3.4840 cd        1 LZ5     -0.159300
     13 N13         3.5910   -0.3530   -2.6910 na        1 LZ5     -0.004600
     14 N15         3.3110   -0.3230   -1.3960 nd        1 LZ5     -0.497800
     15 H3          2.8230   -0.2900    1.1090 hn        1 LZ5      0.330500
     16 H5         -0.5650    1.0690    1.9140 ha        1 LZ5      0.151000
     17 H9          3.1960   -0.6070    3.3630 ha        1 LZ5      0.151000
     18 H6         -1.3520    1.2380    4.2420 ha        1 LZ5      0.131500
     19 H7          0.0920    0.5010    6.1420 ha        1 LZ5      0.132000
     20 H8          2.3660   -0.4200    5.6770 ha        1 LZ5      0.131500
     21 H11         0.5390    0.9110   -2.8120 ha        1 LZ5      0.189000
     22 H13         4.4710   -0.6950   -3.0030 hn        1 LZ5      0.326700
     23 H12         2.6100    0.1740   -4.5700 h4        1 LZ5      0.183000
@<TRIPOS>BOND
     1    1    2 2   
     2    2    3 1   
     3    2   10 1   
     4    3    4 1   
     5    3   15 1   
     6    4    5 ar  
     7    4    9 ar  
     8    5    6 ar  
     9    5   16 1   
    10    6    7 ar  
    11    6   18 1   
    12    7    8 ar  
    13    7   19 1   
    14    8    9 ar  
    15    8   20 1   
    16    9   17 1   
    17   10   11 1   
    18   10   14 2   
    19   11   12 2   
    20   11   21 1   
    21   12   13 1   
    22   12   23 1   
    23   13   14 1   
    24   13   22 1   
@<TRIPOS>SUBSTRUCTURE
     1 LZ5         1 TEMP              0 ****  ****    0 ROOT
