@<TRIPOS>MOLECULE
LZ5
   24    25     1     0     0
SMALL
bcc


@<TRIPOS>ATOM
      1 O1          0.2320   -0.4690    0.2870 o         1 LZ5     -0.390100
      2 C2          1.3530   -0.0600    0.0390 c         1 LZ5      0.493600
      3 N3          2.1930    0.4780    1.1950 n4        1 LZ5     -0.535200
      4 C4          1.5340    0.4370    2.5000 ca        1 LZ5     -0.052400
      5 C5          0.7720    1.5380    2.9300 ca        1 LZ5     -0.095000
      6 C6          0.1620    1.4940    4.1810 ca        1 LZ5     -0.103000
      7 C7          0.3000    0.3690    4.9970 ca        1 LZ5     -0.070000
      8 C8          1.0550   -0.7220    4.5630 ca        1 LZ5     -0.103000
      9 C9          1.6750   -0.7010    3.3150 ca        1 LZ5     -0.095000
     10 C10         2.0170   -0.0140   -1.2500 cc        1 LZ5      0.166800
     11 C11         1.4240   -0.4670   -2.4900 cc        1 LZ5     -0.182300
     12 C12         2.4160   -0.2330   -3.4540 cd        1 LZ5     -0.127300
     13 N13         3.5080    0.3250   -2.7720 na        1 LZ5      0.053400
     14 N15         3.2950    0.4610   -1.4840 nd        1 LZ5     -0.491800
     15 H3          2.4440    1.4510    0.9780 hn        1 LZ5      0.467800
     16 H5          0.6460    2.4320    2.2970 ha        1 LZ5      0.154000
     17 H9          2.2620   -1.5740    2.9870 ha        1 LZ5      0.154000
     18 H6         -0.4360    2.3550    4.5230 ha        1 LZ5      0.170000
     19 H7         -0.1900    0.3420    5.9850 ha        1 LZ5      0.170000
     20 H8          1.1630   -1.6110    5.2060 ha        1 LZ5      0.170000
     21 H11         0.4300   -0.8900   -2.6230 ha        1 LZ5      0.207000
     22 H13         4.3830    0.6090   -3.1680 hn        1 LZ5      0.356700
     23 H12         2.4320   -0.4120   -4.5320 h4        1 LZ5      0.217000
     24 H32         3.0590   -0.0750    1.2410 hn        1 LZ5      0.467800
@<TRIPOS>BOND
     1    1    2 2   
     2    2    3 1   
     3    2   10 1   
     4    3    4 1   
     5    3   15 1   
     6    3   24 1   
     7    4    5 ar  
     8    4    9 ar  
     9    5    6 ar  
    10    5   16 1   
    11    6    7 ar  
    12    6   18 1   
    13    7    8 ar  
    14    7   19 1   
    15    8    9 ar  
    16    8   20 1   
    17    9   17 1   
    18   10   11 1   
    19   10   14 2   
    20   11   12 2   
    21   11   21 1   
    22   12   13 1   
    23   12   23 1   
    24   13   14 1   
    25   13   22 1   
@<TRIPOS>SUBSTRUCTURE
     1 LZ5         1 TEMP              0 ****  ****    0 ROOT
