@<TRIPOS>MOLECULE
LZ5
   23    24     1     0     0
SMALL
bcc


@<TRIPOS>ATOM
      1 O1         28.4540    7.0220   63.4930 o         1 LZ5     -0.590100
      2 C2         28.6590    6.2700   64.4650 c         1 LZ5      0.610600
      3 N3         29.6230    6.5100   65.4310 n         1 LZ5     -0.459100
      4 C4         30.5110    7.5960   65.4940 ca        1 LZ5      0.070600
      5 C5         30.5410    8.6350   64.5400 ca        1 LZ5     -0.170500
      6 C6         31.4540    9.6790   64.6740 ca        1 LZ5     -0.105500
      7 C7         32.3460    9.7200   65.7420 ca        1 LZ5     -0.159000
      8 C8         32.3250    8.6980   66.6910 ca        1 LZ5     -0.105500
      9 C9         31.4240    7.6470   66.5780 ca        1 LZ5     -0.170500
     10 C10        27.8390    5.0430   64.6210 cc        1 LZ5      0.239800
     11 C11        26.7960    4.6680   63.6870 cc        1 LZ5     -0.226300
     12 C12        26.2820    3.4690   64.1950 cd        1 LZ5     -0.159300
     13 N13        27.0090    3.1920   65.3600 na        1 LZ5     -0.004600
     14 N15        27.9270    4.1110   65.6210 nd        1 LZ5     -0.497800
     15 H3         29.7120    5.8500   66.1730 hn        1 LZ5      0.330500
     16 H5         29.8490    8.6350   63.6820 ha        1 LZ5      0.151000
     17 H9         31.4290    6.8540   67.3420 ha        1 LZ5      0.151000
     18 H6         31.4630   10.4810   63.9200 ha        1 LZ5      0.131500
     19 H7         33.0620   10.5480   65.8370 ha        1 LZ5      0.132000
     20 H8         33.0260    8.7210   67.5380 ha        1 LZ5      0.131500
     21 H11        26.5080    5.2230   62.8000 ha        1 LZ5      0.189000
     22 H13        26.8970    2.4120   65.9660 hn        1 LZ5      0.326700
     23 H12        25.4880    2.8130   63.8380 h4        1 LZ5      0.183000
@<TRIPOS>BOND
     1    1    2 2   
     2    2    3 1   
     3    2   10 1   
     4    3    4 1   
     5    3   15 1   
     6    4    5 ar  
     7    4    9 ar  
     8    5    6 ar  
     9    5   16 1   
    10    6    7 ar  
    11    6   18 1   
    12    7    8 ar  
    13    7   19 1   
    14    8    9 ar  
    15    8   20 1   
    16    9   17 1   
    17   10   11 1   
    18   10   14 2   
    19   11   12 2   
    20   11   21 1   
    21   12   13 1   
    22   12   23 1   
    23   13   14 1   
    24   13   22 1   
@<TRIPOS>SUBSTRUCTURE
     1 LZ5         1 TEMP              0 ****  ****    0 ROOT
