@<TRIPOS>MOLECULE
LZ6
   70    67     1     0     0
SMALL
bcc


@<TRIPOS>ATOM
      1 O37        -9.7410   -0.0830   -3.0170 o         1 LZ6     -0.581500
      2 C35        -9.8350   -0.2080   -1.7730 c1        1 LZ6      0.307000
      3 O36       -10.6130    0.5370   -1.1240 o         1 LZ6     -0.581500
      4 C34        -9.0560   -1.2790   -1.0650 c2        1 LZ6     -0.126000
      5 N38        -9.5830   -2.5590   -1.4110 n3        1 LZ6     -0.327000
      6 C33        -7.5990   -1.2030   -1.4820 c3        1 LZ6     -0.143000
      7 C32        -6.7040   -1.3840   -0.2510 c3        1 LZ6     -0.176000
      8 C30        -5.2310   -1.3850   -0.6850 c2        1 LZ6      0.305000
      9 O31        -4.9330   -1.0860   -1.8220 o         1 LZ6     -0.397000
     10 N29        -4.1920   -1.7430    0.2690 n         1 LZ6     -0.375000
     11 C21        -2.8490   -1.9340   -0.1740 c3        1 LZ6      0.011000
     12 C22        -2.6560   -3.3780   -0.5950 c2        1 LZ6      0.275000
     13 O28        -2.9140   -4.2780    0.1830 o         1 LZ6     -0.443000
     14 N23        -2.1210   -3.6800   -1.8870 n         1 LZ6     -0.318000
     15 C24        -2.2880   -4.9950   -2.4450 c3        1 LZ6     -0.109000
     16 C25        -2.5260   -4.8830   -3.9370 c2        1 LZ6      0.329000
     17 O27        -3.7020   -4.7950   -4.3800 o         1 LZ6     -0.575500
     18 O26        -1.5590   -4.9840   -4.7360 o         1 LZ6     -0.575500
     19 C20        -1.8910   -1.6010    0.9550 c3        1 LZ6     -0.281000
     20 S13        -0.9590   -0.1070    0.5350 ss        1 LZ6      0.042000
     21 C12         0.6290   -0.1070    1.4280 c3        1 LZ6     -0.284000
     22 C11         1.7160    0.5330    0.5430 c3        1 LZ6     -0.045000
     23 N7          3.0240    0.1030    0.9980 n3        1 LZ6     -0.236000
     24 C8          3.2560   -1.2780    1.3100 c3        1 LZ6     -0.061000
     25 C9          3.4050   -2.0570    0.0400 c3        1 LZ6     -0.148000
     26 CL10        4.0750   -3.6280    0.3940 cl        1 LZ6     -0.138000
     27 C1          4.0970    1.0340    1.0570 c2        1 LZ6      0.026000
     28 C6          4.9320    1.0670    2.1740 c2        1 LZ6     -0.147000
     29 C5          5.9870    1.9830    2.2320 c1        1 LZ6     -0.112000
     30 C4          6.2050    2.8670    1.1720 c1        1 LZ6     -0.072000
     31 C3          5.3690    2.8340    0.0550 c1        1 LZ6     -0.128000
     32 C2          4.3140    1.9170   -0.0020 c1        1 LZ6     -0.174000
     33 C14         7.4240    3.8350    1.2030 c3        1 LZ6     -0.124000
     34 C15         6.9240    5.3020    1.1150 c3        1 LZ6     -0.145000
     35 C16         8.0510    6.2540    1.5330 c3        1 LZ6     -0.220000
     36 C17         7.5110    7.6840    1.6050 c2        1 LZ6      0.327000
     37 O18         7.4520    8.3900    0.5600 o         1 LZ6     -0.592500
     38 O19         7.0720    8.1380    2.6980 o         1 LZ6     -0.592500
     39 H34        -9.1250   -1.1490   -0.1020 h4        1 LZ6      0.082000
     40 HN38      -10.3040   -2.7500   -0.8720 hn        1 LZ6      0.126000
     41 HN3A       -9.8500   -2.5520   -2.2880 hn        1 LZ6      0.126000
     42 H33        -7.4210   -0.3280   -1.8900 hc        1 LZ6      0.092500
     43 H33A       -7.4080   -1.9100   -2.1310 hc        1 LZ6      0.092500
     44 H32        -6.9160   -2.2320    0.1830 hc        1 LZ6      0.108000
     45 H32A       -6.8580   -0.6470    0.3770 hc        1 LZ6      0.108000
     46 HN29       -4.3950   -1.8100    1.1650 hn        1 LZ6      0.231000
     47 H21        -2.6710   -1.3480   -0.9350 h1        1 LZ6      0.145000
     48 HN23       -1.6110   -3.0630   -2.3230 hn        1 LZ6      0.256000
     49 H24        -1.4800   -5.5240   -2.2820 h1        1 LZ6      0.075500
     50 H24A       -3.0550   -5.4340   -2.0230 h1        1 LZ6      0.075500
     51 H20        -2.3990   -1.4480    1.7800 h1        1 LZ6      0.125500
     52 H20A       -1.2750   -2.3420    1.0870 h1        1 LZ6      0.125500
     53 H12         0.8820   -1.0240    1.6410 h1        1 LZ6      0.123500
     54 H12A        0.5360    0.4100    2.2620 h1        1 LZ6      0.123500
     55 H11         1.5860    0.2560   -0.3830 h1        1 LZ6      0.088000
     56 H11A        1.6530    1.5140    0.6040 h1        1 LZ6      0.088000
     57 H8          2.5010   -1.6270    1.8190 h1        1 LZ6      0.105000
     58 H8A         4.0730   -1.3600    1.8410 h1        1 LZ6      0.105000
     59 H9          4.0000   -1.5790   -0.5660 h1        1 LZ6      0.115500
     60 H9A         2.5320   -2.1630   -0.3790 h1        1 LZ6      0.115500
     61 H6          4.7810    0.4480    2.9150 ha        1 LZ6      0.130000
     62 H5          6.5710    2.0050    3.0120 ha        1 LZ6      0.147000
     63 H3          5.5200    3.4490   -0.6830 ha        1 LZ6      0.121000
     64 H2          3.7260    1.8950   -0.7870 ha        1 LZ6      0.130000
     65 H14         7.9220    3.7070    2.0440 hc        1 LZ6      0.075500
     66 H14A        8.0120    3.6440    0.4430 hc        1 LZ6      0.075500
     67 H15         6.6540    5.5000    0.1970 hc        1 LZ6      0.087000
     68 H15A        6.1600    5.4210    1.7100 hc        1 LZ6      0.087000
     69 H16         8.3920    5.9890    2.4110 hc        1 LZ6      0.058000
     70 H16A        8.7740    6.2110    0.8770 hc        1 LZ6      0.058000
@<TRIPOS>BOND
     1    1    2 1   
     2    2    3 1   
     3    4    5 1   
     4    4    6 1   
     5    4   39 1   
     6    5   40 1   
     7    5   41 1   
     8    6    7 1   
     9    6   42 1   
    10    6   43 1   
    11    7    8 1   
    12    7   44 1   
    13    7   45 1   
    14    8    9 1   
    15    8   10 1   
    16   10   11 1   
    17   10   46 1   
    18   11   12 1   
    19   11   19 1   
    20   11   47 1   
    21   12   13 1   
    22   12   14 1   
    23   14   15 1   
    24   14   48 1   
    25   15   16 1   
    26   15   49 1   
    27   15   50 1   
    28   16   17 1   
    29   16   18 1   
    30   19   20 1   
    31   19   51 1   
    32   19   52 1   
    33   20   21 1   
    34   21   22 1   
    35   21   53 1   
    36   21   54 1   
    37   22   23 1   
    38   22   55 1   
    39   22   56 1   
    40   23   24 1   
    41   23   27 1   
    42   24   25 1   
    43   24   57 1   
    44   24   58 1   
    45   25   26 1   
    46   25   59 1   
    47   25   60 1   
    48   27   28 1   
    49   27   32 1   
    50   28   29 1   
    51   28   61 1   
    52   29   62 1   
    53   30   31 1   
    54   30   33 1   
    55   31   63 1   
    56   32   64 1   
    57   33   34 1   
    58   33   65 1   
    59   33   66 1   
    60   34   35 1   
    61   34   67 1   
    62   34   68 1   
    63   35   36 1   
    64   35   69 1   
    65   35   70 1   
    66   36   37 1   
    67   36   38 1   
@<TRIPOS>SUBSTRUCTURE
     1 LZ6         1 TEMP              0 ****  ****    0 ROOT
