@<TRIPOS>MOLECULE
LZ6
   70    70     1     0     0
SMALL
bcc


@<TRIPOS>ATOM
      1 O37         0.7400   -0.2360   -1.9410 o         1 LZ6     -0.849300
      2 C35         1.7300   -0.1090   -1.1600 c         1 LZ6      0.889600
      3 O36         2.8430    0.3730   -1.5070 o         1 LZ6     -0.849300
      4 C34         1.5500   -0.5270    0.3360 c3        1 LZ6      0.020500
      5 N38         0.1980   -0.9580    0.6750 n3        1 LZ6     -0.896800
      6 C33         2.6240   -1.5560    0.7000 c3        1 LZ6     -0.057400
      7 C32         2.7290   -1.7350    2.2000 c3        1 LZ6     -0.145400
      8 C30         3.7030   -2.8310    2.5940 c         1 LZ6      0.655100
      9 O31         4.3060   -3.5430    1.7700 o         1 LZ6     -0.607100
     10 N29         3.9300   -2.9750    3.9660 n         1 LZ6     -0.551900
     11 C21         4.6160   -4.1180    4.5110 c3        1 LZ6      0.038700
     12 C22         3.6340   -5.0900    5.2400 c         1 LZ6      0.613100
     13 O28         2.6160   -4.6280    5.8090 o         1 LZ6     -0.663100
     14 N23         3.9290   -6.4200    5.2040 n         1 LZ6     -0.511900
     15 C24         3.2160   -7.3990    5.9820 c3        1 LZ6     -0.049000
     16 C25         4.0630   -8.6550    6.3390 c         1 LZ6      0.906600
     17 O27         3.4650   -9.5600    6.9820 o         1 LZ6     -0.841800
     18 O26         5.2730   -8.7060    5.9790 o         1 LZ6     -0.841800
     19 C20         5.6560   -3.7450    5.5760 c3        1 LZ6     -0.020300
     20 S13         6.9210   -2.7120    4.8930 ss        1 LZ6     -0.273200
     21 C12         8.2060   -2.9100    6.0950 c3        1 LZ6     -0.063300
     22 C11         9.4330   -2.2050    5.5240 c3        1 LZ6      0.224800
     23 N7         10.6720   -2.3510    6.2460 nh        1 LZ6     -0.687000
     24 C8         11.2960   -3.6520    6.1940 c3        1 LZ6      0.202800
     25 C9         12.4110   -3.7120    5.1440 c3        1 LZ6      0.027000
     26 CL10       13.1660   -5.3000    5.1440 cl        1 LZ6     -0.215400
     27 C1         10.9790   -1.5050    7.3290 ca        1 LZ6      0.155600
     28 C6         10.0370   -0.6010    7.8720 ca        1 LZ6     -0.187500
     29 C5         10.4040    0.2780    8.8830 ca        1 LZ6     -0.104500
     30 C4         11.7030    0.2960    9.4090 ca        1 LZ6     -0.095300
     31 C3         12.6330   -0.6060    8.8860 ca        1 LZ6     -0.104500
     32 C2         12.2870   -1.4890    7.8690 ca        1 LZ6     -0.187500
     33 C14        12.0300    1.2720   10.4830 c3        1 LZ6     -0.036100
     34 C15        13.4350    1.1830   11.0430 c3        1 LZ6     -0.065400
     35 C16        13.6510    2.1960   12.1430 c3        1 LZ6     -0.191400
     36 C17        15.1170    2.2540   12.6030 c         1 LZ6      0.907600
     37 O18        16.0360    2.1390   11.7410 o         1 LZ6     -0.857800
     38 O19        15.3370    2.4440   13.8350 o         1 LZ6     -0.857800
     39 H34         1.7420    0.4060    0.9430 h1        1 LZ6      0.038700
     40 HN38        0.0820   -1.9130    0.3860 hn        1 LZ6      0.330300
     41 HN3A       -0.4390   -0.4140    0.1150 hn        1 LZ6      0.330300
     42 H33         3.6010   -1.1900    0.2860 hc        1 LZ6      0.061700
     43 H33A        2.4080   -2.5430    0.2160 hc        1 LZ6      0.061700
     44 H32         3.0560   -0.7680    2.6670 hc        1 LZ6      0.063700
     45 H32A        1.7230   -1.9960    2.6250 hc        1 LZ6      0.063700
     46 HN29        3.2580   -2.5680    4.5800 hn        1 LZ6      0.309500
     47 H21         5.1360   -4.6530    3.6590 h1        1 LZ6      0.110700
     48 HN23        4.8230   -6.7190    4.8730 hn        1 LZ6      0.330500
     49 H24         2.3170   -7.7380    5.3970 h1        1 LZ6      0.039700
     50 H24A        2.8460   -6.9360    6.9390 h1        1 LZ6      0.039700
     51 H20         5.1600   -3.2190    6.4290 h1        1 LZ6      0.072700
     52 H20A        6.1090   -4.6890    5.9700 h1        1 LZ6      0.072700
     53 H12         7.9070   -2.4600    7.0720 h1        1 LZ6      0.063700
     54 H12A        8.4080   -3.9940    6.2750 h1        1 LZ6      0.063700
     55 H11         9.2080   -1.1040    5.4270 h1        1 LZ6      0.065200
     56 H11A        9.6140   -2.6110    4.4840 h1        1 LZ6      0.065200
     57 H8         11.7310   -3.9230    7.1990 h1        1 LZ6      0.060700
     58 H8A        10.5270   -4.4380    5.9370 h1        1 LZ6      0.060700
     59 H9         13.2180   -2.9730    5.3590 h1        1 LZ6      0.069700
     60 H9A        12.0080   -3.5480    4.1160 h1        1 LZ6      0.069700
     61 H6          9.0010   -0.5800    7.5020 ha        1 LZ6      0.127500
     62 H5          9.6530    0.9760    9.2840 ha        1 LZ6      0.134500
     63 H3         13.6630   -0.6200    9.2780 ha        1 LZ6      0.134500
     64 H2         13.0570   -2.1720    7.4800 ha        1 LZ6      0.127500
     65 H14        11.8660    2.3090   10.0780 hc        1 LZ6      0.036200
     66 H14A       11.2950    1.1340   11.3240 hc        1 LZ6      0.036200
     67 H15        14.1930    1.3670   10.2350 hc        1 LZ6      0.046700
     68 H15A       13.6200    0.1530   11.4450 hc        1 LZ6      0.046700
     69 H16        13.3720    3.2180   11.7800 hc        1 LZ6      0.019200
     70 H16A       13.0010    1.9570   13.0220 hc        1 LZ6      0.019200
@<TRIPOS>BOND
     1    1    2 1   
     2    2    3 1   
     3    2    4 1   
     4    4    5 1   
     5    4    6 1   
     6    4   39 1   
     7    5   40 1   
     8    5   41 1   
     9    6    7 1   
    10    6   42 1   
    11    6   43 1   
    12    7    8 1   
    13    7   44 1   
    14    7   45 1   
    15    8    9 2   
    16    8   10 1   
    17   10   11 1   
    18   10   46 1   
    19   11   12 1   
    20   11   19 1   
    21   11   47 1   
    22   12   13 2   
    23   12   14 1   
    24   14   15 1   
    25   14   48 1   
    26   15   16 1   
    27   15   49 1   
    28   15   50 1   
    29   16   17 1   
    30   16   18 1   
    31   19   20 1   
    32   19   51 1   
    33   19   52 1   
    34   20   21 1   
    35   21   22 1   
    36   21   53 1   
    37   21   54 1   
    38   22   23 1   
    39   22   55 1   
    40   22   56 1   
    41   23   24 1   
    42   23   27 1   
    43   24   25 1   
    44   24   57 1   
    45   24   58 1   
    46   25   26 1   
    47   25   59 1   
    48   25   60 1   
    49   27   28 ar  
    50   27   32 ar  
    51   28   29 ar  
    52   28   61 1   
    53   29   30 ar  
    54   29   62 1   
    55   30   31 ar  
    56   30   33 1   
    57   31   32 ar  
    58   31   63 1   
    59   32   64 1   
    60   33   34 1   
    61   33   65 1   
    62   33   66 1   
    63   34   35 1   
    64   34   67 1   
    65   34   68 1   
    66   35   36 1   
    67   35   69 1   
    68   35   70 1   
    69   36   37 1   
    70   36   38 1   
@<TRIPOS>SUBSTRUCTURE
     1 LZ6         1 TEMP              0 ****  ****    0 ROOT
