@<TRIPOS>MOLECULE
LZ6
   70    70     1     0     0
SMALL
bcc


@<TRIPOS>ATOM
      1 O37        -9.1710   -3.9540    3.1070 o         1 LZ6     -0.849300
      2 C35        -7.9160   -3.8230    3.0020 c         1 LZ6      0.889600
      3 O36        -7.1050   -4.0280    3.9460 o         1 LZ6     -0.849300
      4 C34        -7.3270   -3.4340    1.6060 c3        1 LZ6      0.020500
      5 N38        -8.3240   -3.3380    0.5450 n3        1 LZ6     -0.896800
      6 C33        -6.4780   -2.1690    1.7570 c3        1 LZ6     -0.057400
      7 C32        -5.6060   -1.9420    0.5390 c3        1 LZ6     -0.145400
      8 C30        -4.8360   -0.6370    0.6030 c         1 LZ6      0.655100
      9 O31        -4.9520    0.1860    1.5310 o         1 LZ6     -0.607100
     10 N29        -3.9290   -0.4160   -0.4380 n         1 LZ6     -0.551900
     11 C21        -3.3170    0.8690   -0.6600 c3        1 LZ6      0.038700
     12 C22        -3.9170    1.5870   -1.9110 c         1 LZ6      0.613100
     13 O28        -4.3290    0.9030   -2.8780 o         1 LZ6     -0.663100
     14 N23        -3.9800    2.9480   -1.8800 n         1 LZ6     -0.511900
     15 C24        -4.3360    3.7400   -3.0280 c3        1 LZ6     -0.049000
     16 C25        -3.7220    5.1690   -3.0200 c         1 LZ6      0.906600
     17 O27        -4.0440    5.9150   -3.9850 o         1 LZ6     -0.841800
     18 O26        -2.9530    5.5060   -2.0750 o         1 LZ6     -0.841800
     19 C20        -1.8120    0.7790   -0.9470 c3        1 LZ6     -0.020300
     20 S13        -0.9460    0.0710    0.4250 ss        1 LZ6     -0.273200
     21 C12         0.7100    0.5960    0.0880 c3        1 LZ6     -0.063300
     22 C11         1.5370    0.1980    1.3070 c3        1 LZ6      0.224800
     23 N7          2.9040    0.6540    1.3520 nh        1 LZ6     -0.687000
     24 C8          3.1040    2.0660    1.5770 c3        1 LZ6      0.202800
     25 C9          3.4150    2.3730    3.0460 c3        1 LZ6      0.027000
     26 CL10        3.6880    4.0970    3.2650 cl        1 LZ6     -0.215400
     27 C1          3.9270   -0.0720    0.7120 ca        1 LZ6      0.155600
     28 C6          3.6570   -1.1670   -0.1410 ca        1 LZ6     -0.187500
     29 C5          4.6960   -1.9120   -0.6850 ca        1 LZ6     -0.104500
     30 C4          6.0380   -1.6050   -0.4240 ca        1 LZ6     -0.095300
     31 C3          6.3110   -0.5140    0.4060 ca        1 LZ6     -0.104500
     32 C2          5.2850    0.2390    0.9650 ca        1 LZ6     -0.187500
     33 C14         7.1000   -2.4520   -1.0310 c3        1 LZ6     -0.036100
     34 C15         8.5240   -2.0160   -0.7540 c3        1 LZ6     -0.065400
     35 C16         9.5180   -2.9250   -1.4380 c3        1 LZ6     -0.191400
     36 C17        10.9670   -2.6180   -1.0270 c         1 LZ6      0.907600
     37 O18        11.2120   -2.3010    0.1730 o         1 LZ6     -0.857800
     38 O19        11.8630   -2.7250   -1.9150 o         1 LZ6     -0.857800
     39 H34        -6.6400   -4.2820    1.3120 h1        1 LZ6      0.038700
     40 HN38       -9.0320   -4.0300    0.7360 hn        1 LZ6      0.330300
     41 HN3A       -8.7790   -2.4450    0.6110 hn        1 LZ6      0.330300
     42 H33        -7.1280   -1.2730    1.9280 hc        1 LZ6      0.061700
     43 H33A       -5.8380   -2.2950    2.6710 hc        1 LZ6      0.061700
     44 H32        -4.8800   -2.7930    0.4390 hc        1 LZ6      0.063700
     45 H32A       -6.2410   -1.9250   -0.3870 hc        1 LZ6      0.063700
     46 HN29       -4.0480   -0.9620   -1.2630 hn        1 LZ6      0.309500
     47 H21        -3.4790    1.4980    0.2680 h1        1 LZ6      0.110700
     48 HN23       -3.5030    3.4490   -1.1590 hn        1 LZ6      0.330500
     49 H24        -4.0120    3.2190   -3.9710 h1        1 LZ6      0.039700
     50 H24A       -5.4570    3.8400   -3.0620 h1        1 LZ6      0.039700
     51 H20        -1.6330    0.1650   -1.8630 h1        1 LZ6      0.072700
     52 H20A       -1.4300    1.8120   -1.1430 h1        1 LZ6      0.072700
     53 H12         1.1010    0.1050   -0.8360 h1        1 LZ6      0.063700
     54 H12A        0.7420    1.7000   -0.0820 h1        1 LZ6      0.063700
     55 H11         1.0270    0.6160    2.2250 h1        1 LZ6      0.065200
     56 H11A        1.5370   -0.9260    1.3960 h1        1 LZ6      0.065200
     57 H8          3.9500    2.4530    0.9390 h1        1 LZ6      0.060700
     58 H8A         2.1750    2.6370    1.2870 h1        1 LZ6      0.060700
     59 H9          2.5600    2.0980    3.7080 h1        1 LZ6      0.069700
     60 H9A         4.3430    1.8570    3.3870 h1        1 LZ6      0.069700
     61 H6          2.6210   -1.4450   -0.3860 ha        1 LZ6      0.127500
     62 H5          4.4570   -2.7630   -1.3420 ha        1 LZ6      0.134500
     63 H3          7.3560   -0.2450    0.6300 ha        1 LZ6      0.134500
     64 H2          5.5480    1.0800    1.6240 ha        1 LZ6      0.127500
     65 H14         6.9650   -3.5050   -0.6580 hc        1 LZ6      0.036200
     66 H14A        6.9390   -2.4800   -2.1440 hc        1 LZ6      0.036200
     67 H15         8.6760   -0.9640   -1.1110 hc        1 LZ6      0.046700
     68 H15A        8.7310   -2.0260    0.3500 hc        1 LZ6      0.046700
     69 H16         9.3100   -3.9910   -1.1640 hc        1 LZ6      0.019200
     70 H16A        9.4250   -2.8340   -2.5490 hc        1 LZ6      0.019200
@<TRIPOS>BOND
     1    1    2 1   
     2    2    3 1   
     3    2    4 1   
     4    4    5 1   
     5    4    6 1   
     6    4   39 1   
     7    5   40 1   
     8    5   41 1   
     9    6    7 1   
    10    6   42 1   
    11    6   43 1   
    12    7    8 1   
    13    7   44 1   
    14    7   45 1   
    15    8    9 2   
    16    8   10 1   
    17   10   11 1   
    18   10   46 1   
    19   11   12 1   
    20   11   19 1   
    21   11   47 1   
    22   12   13 2   
    23   12   14 1   
    24   14   15 1   
    25   14   48 1   
    26   15   16 1   
    27   15   49 1   
    28   15   50 1   
    29   16   17 1   
    30   16   18 1   
    31   19   20 1   
    32   19   51 1   
    33   19   52 1   
    34   20   21 1   
    35   21   22 1   
    36   21   53 1   
    37   21   54 1   
    38   22   23 1   
    39   22   55 1   
    40   22   56 1   
    41   23   24 1   
    42   23   27 1   
    43   24   25 1   
    44   24   57 1   
    45   24   58 1   
    46   25   26 1   
    47   25   59 1   
    48   25   60 1   
    49   27   28 ar  
    50   27   32 ar  
    51   28   29 ar  
    52   28   61 1   
    53   29   30 ar  
    54   29   62 1   
    55   30   31 ar  
    56   30   33 1   
    57   31   32 ar  
    58   31   63 1   
    59   32   64 1   
    60   33   34 1   
    61   33   65 1   
    62   33   66 1   
    63   34   35 1   
    64   34   67 1   
    65   34   68 1   
    66   35   36 1   
    67   35   69 1   
    68   35   70 1   
    69   36   37 1   
    70   36   38 1   
@<TRIPOS>SUBSTRUCTURE
     1 LZ6         1 TEMP              0 ****  ****    0 ROOT
