@<TRIPOS>MOLECULE
LZ6
   73    73     1     0     0
SMALL
bcc


@<TRIPOS>ATOM
      1 O37         0.0000    0.0000    0.0000 o         1 LZ6     -0.790300
      2 C35         1.2080    0.0000    0.0000 c         1 LZ6      0.947600
      3 O36         1.8800    0.0040   -1.1620 o         1 LZ6     -0.790300
      4 C34         1.9610    0.0000    1.3050 c3        1 LZ6     -0.203500
      5 N38         1.0780    0.4750    2.3790 nz        1 LZ6      0.070400
      6 C33         2.4320   -1.4200    1.6230 c3        1 LZ6     -0.008400
      7 C32         3.3020   -1.4010    2.8820 c3        1 LZ6     -0.107400
      8 C30         3.7650   -2.8000    3.1950 c         1 LZ6      0.342100
      9 O31         3.4320   -3.7230    2.4810 o         1 LZ6     -0.408100
     10 N29         4.5490   -3.0270    4.2680 ny        1 LZ6      0.125200
     11 C21         5.0000   -4.3870    4.5720 c3        1 LZ6     -0.079500
     12 C22         3.9420   -5.0980    5.3750 c         1 LZ6      0.264100
     13 O28         2.9120   -4.5260    5.6650 o         1 LZ6     -0.505100
     14 N23         4.1400   -6.3710    5.7710 ny        1 LZ6      0.197200
     15 C24         3.1110   -7.0640    6.5520 c3        1 LZ6     -0.148200
     16 C25         3.5750   -8.4630    6.8640 c         1 LZ6      0.955600
     17 O27         2.7890   -9.2880    7.5760 o         1 LZ6     -0.799300
     18 O26         4.6530   -8.8430    6.4750 o         1 LZ6     -0.799300
     19 C20         6.2980   -4.3260    5.3790 c3        1 LZ6      0.003700
     20 S13         7.5710   -3.4680    4.4110 ss        1 LZ6     -0.388200
     21 C12         9.0090   -3.4950    5.5170 c3        1 LZ6      0.090700
     22 C11        10.1880   -2.7980    4.8350 c3        1 LZ6      0.180800
     23 N7         11.3500   -2.8210    5.7270 nh        1 LZ6     -0.381000
     24 C8         12.2960   -3.9380    5.6710 c3        1 LZ6      0.162800
     25 C9         13.4000   -3.6240    4.6600 c3        1 LZ6      0.047000
     26 Cl10       14.5630   -5.0000    4.5920 cl        1 LZ6     -0.118400
     27 C1         11.5570   -1.7760    6.6310 ca        1 LZ6      0.001600
     28 C6         12.6590   -1.7950    7.4770 ca        1 LZ6     -0.228500
     29 C5         10.8660    0.3140    7.5840 ca        1 LZ6     -0.080000
     30 C4         11.9660    0.2940    8.4210 ca        1 LZ6     -0.128300
     31 C3         12.8630   -0.7580    8.3660 ca        1 LZ6     -0.080000
     32 C2         10.6590   -0.7180    6.6890 ca        1 LZ6     -0.228500
     33 C14        12.1890    1.4220    9.3950 c3        1 LZ6      0.019900
     34 C15        11.4960    1.0960   10.7190 c3        1 LZ6     -0.013400
     35 C16        11.7220    2.2410   11.7090 c3        1 LZ6     -0.128400
     36 C17        11.0390    1.9200   13.0140 c         1 LZ6      0.960600
     37 O18        11.1040    2.7870   14.0360 o         1 LZ6     -0.783800
     38 O19        10.4330    0.8830   13.1390 o         1 LZ6     -0.783800
     39 H34         2.8200    0.6560    1.2270 hx        1 LZ6      0.090700
     40 HN38        0.4040    1.1100    2.0000 hn        1 LZ6      0.216133
     41 HN3A        1.6230    0.9440    3.0760 hn        1 LZ6      0.216133
     42 H33         3.0100   -1.8040    0.7910 hc        1 LZ6      0.075200
     43 H33A        1.5710   -2.0570    1.7890 hc        1 LZ6      0.075200
     44 H32         4.1620   -0.7640    2.7160 hc        1 LZ6      0.043700
     45 H32A        2.7240   -1.0170    3.7140 hc        1 LZ6      0.043700
     46 HN29        5.3700   -2.4670    4.1510 hn        1 LZ6      0.286300
     47 H21         5.1740   -4.9250    3.6480 hx        1 LZ6      0.129700
     48 HN23        4.9760   -6.3790    6.3200 hn        1 LZ6      0.261300
     49 H24         2.9370   -6.5260    7.4770 hx        1 LZ6      0.081700
     50 H24A        2.1920   -7.1070    5.9810 hx        1 LZ6      0.081700
     51 H20         6.1240   -3.7880    6.3030 h1        1 LZ6      0.076700
     52 H20A        6.6320   -5.3320    5.6030 h1        1 LZ6      0.076700
     53 H12         9.2750   -4.5220    5.7380 h1        1 LZ6      0.061200
     54 H12A        8.7670   -2.9780    6.4380 h1        1 LZ6      0.061200
     55 H11         9.9220   -1.7720    4.6140 h1        1 LZ6      0.046700
     56 H11A       10.4300   -3.3150    3.9140 h1        1 LZ6      0.046700
     57 H8         11.7740   -4.8380    5.3680 h1        1 LZ6      0.037700
     58 H8A        12.7350   -4.0890    6.6500 h1        1 LZ6      0.037700
     59 H9         13.9220   -2.7240    4.9630 h1        1 LZ6      0.032200
     60 H9A        12.9610   -3.4740    3.6810 h1        1 LZ6      0.032200
     61 H6         12.7050   -2.5090    8.2900 ha        1 LZ6      0.150000
     62 H5         10.5530    1.2570    8.0140 ha        1 LZ6      0.161500
     63 H3         13.8550   -0.6030    7.9600 ha        1 LZ6      0.161500
     64 H2         10.0680   -1.1770    5.9060 ha        1 LZ6      0.150000
     65 H14        13.2520    1.5470    9.5650 hc        1 LZ6      0.018200
     66 H14A       11.7790    2.3380    8.9880 hc        1 LZ6      0.018200
     67 H15        10.4330    0.9710   10.5490 hc        1 LZ6      0.023700
     68 H15A       11.9070    0.1800   11.1270 hc        1 LZ6      0.023700
     69 H16        11.3110    3.1570   11.3020 hc        1 LZ6      0.016700
     70 H16A       12.7850    2.3670   11.8790 hc        1 LZ6      0.016700
     71 H383        0.6070   -0.3050    2.7930 hn        1 LZ6      0.216133
     72 H292        4.0470   -2.6990    5.0690 hn        1 LZ6      0.286300
     73 H232        4.2820   -6.9150    4.9430 hn        1 LZ6      0.261300
@<TRIPOS>BOND
     1    1    2 1   
     2    2    3 1   
     3    2    4 1   
     4    4    5 1   
     5    4    6 1   
     6    4   39 1   
     7    5   40 1   
     8    5   41 1   
     9    5   71 1   
    10    6    7 1   
    11    6   42 1   
    12    6   43 1   
    13    7    8 1   
    14    7   44 1   
    15    7   45 1   
    16    8    9 2   
    17    8   10 1   
    18   10   11 1   
    19   10   46 1   
    20   10   72 1   
    21   11   12 1   
    22   11   19 1   
    23   11   47 1   
    24   12   13 2   
    25   12   14 1   
    26   14   15 1   
    27   14   48 1   
    28   14   73 1   
    29   15   16 1   
    30   15   49 1   
    31   15   50 1   
    32   16   17 1   
    33   16   18 1   
    34   19   20 1   
    35   19   51 1   
    36   19   52 1   
    37   20   21 1   
    38   21   22 1   
    39   21   53 1   
    40   21   54 1   
    41   22   23 1   
    42   22   55 1   
    43   22   56 1   
    44   23   24 1   
    45   23   27 1   
    46   24   25 1   
    47   24   57 1   
    48   24   58 1   
    49   25   26 1   
    50   25   59 1   
    51   25   60 1   
    52   27   28 ar  
    53   27   32 ar  
    54   28   31 ar  
    55   28   61 1   
    56   29   30 ar  
    57   29   32 ar  
    58   29   62 1   
    59   30   31 ar  
    60   30   33 1   
    61   31   63 1   
    62   32   64 1   
    63   33   34 1   
    64   33   65 1   
    65   33   66 1   
    66   34   35 1   
    67   34   67 1   
    68   34   68 1   
    69   35   36 1   
    70   35   69 1   
    71   35   70 1   
    72   36   37 1   
    73   36   38 1   
@<TRIPOS>SUBSTRUCTURE
     1 LZ6         1 TEMP              0 ****  ****    0 ROOT
