@<TRIPOS>MOLECULE
LZ7
   30    31     1     0     0
SMALL
bcc


@<TRIPOS>ATOM
      1 C1         -0.0230   -0.3120    0.1050 c3        1 LZ7     -0.172100
      2 C2          1.4690   -0.1000    0.0570 c         1 LZ7      0.664100
      3 O3          2.1430    0.0880    1.0870 o         1 LZ7     -0.604100
      4 N4          2.0580   -0.1270   -1.2030 ns        1 LZ7     -0.444100
      5 C5          3.4060    0.0500   -1.4290 cc        1 LZ7     -0.041700
      6 C6          4.4450    0.2830   -0.4960 cd        1 LZ7     -0.183300
      7 N7          5.6180    0.3880   -1.2500 na        1 LZ7      0.015400
      8 N9          5.4210    0.2450   -2.5460 nd        1 LZ7     -0.491800
      9 C10         4.0780    0.0330   -2.7300 cc        1 LZ7      0.202800
     10 C11         3.3950   -0.1810   -4.0240 c         1 LZ7      0.622600
     11 O12         2.1590   -0.3660   -4.0550 o         1 LZ7     -0.626100
     12 N13         4.1810   -0.1680   -5.1640 ns        1 LZ7     -0.452100
     13 C14         3.7530   -0.3280   -6.4920 ca        1 LZ7      0.057600
     14 C15         4.7010   -0.1230   -7.5260 ca        1 LZ7     -0.145000
     15 C16         4.3480   -0.2750   -8.8580 ca        1 LZ7     -0.140000
     16 C17         3.0310   -0.6350   -9.1980 ca        1 LZ7      0.095900
     17 F18         2.6830   -0.7830  -10.4990 f         1 LZ7     -0.141900
     18 C19         2.0820   -0.8410   -8.1840 ca        1 LZ7     -0.140000
     19 C20         2.4370   -0.6910   -6.8490 ca        1 LZ7     -0.145000
     20 H1C1       -0.2910   -1.3110   -0.3170 hc        1 LZ7      0.071700
     21 H1C2       -0.5510    0.4820   -0.4760 hc        1 LZ7      0.071700
     22 H1C3       -0.3550   -0.2660    1.1710 hc        1 LZ7      0.071700
     23 H4          1.4900   -0.2810   -2.0130 hn        1 LZ7      0.357500
     24 H6          4.4080    0.3730    0.5910 h4        1 LZ7      0.218000
     25 H7          6.5340    0.5520   -0.8960 hn        1 LZ7      0.331700
     26 H13         5.1570    0.0080   -5.0550 hn        1 LZ7      0.334500
     27 H15         5.7380    0.1600   -7.2850 ha        1 LZ7      0.157000
     28 H20         1.6690   -0.8600   -6.0750 ha        1 LZ7      0.157000
     29 H16         5.0900   -0.1150   -9.6530 ha        1 LZ7      0.150000
     30 H19         1.0520   -1.1240   -8.4520 ha        1 LZ7      0.150000
@<TRIPOS>BOND
     1    1    2 1   
     2    1   20 1   
     3    1   21 1   
     4    1   22 1   
     5    2    3 2   
     6    2    4 1   
     7    4    5 1   
     8    4   23 1   
     9    5    6 2   
    10    5    9 1   
    11    6    7 1   
    12    6   24 1   
    13    7    8 1   
    14    7   25 1   
    15    8    9 2   
    16    9   10 1   
    17   10   11 2   
    18   10   12 1   
    19   12   13 1   
    20   12   26 1   
    21   13   14 ar  
    22   13   19 ar  
    23   14   15 ar  
    24   14   27 1   
    25   15   16 ar  
    26   15   29 1   
    27   16   17 1   
    28   16   18 ar  
    29   18   19 ar  
    30   18   30 1   
    31   19   28 1   
@<TRIPOS>SUBSTRUCTURE
     1 LZ7         1 TEMP              0 ****  ****    0 ROOT
