@<TRIPOS>MOLECULE
LZ7
   32    33     1     0     0
SMALL
bcc


@<TRIPOS>ATOM
      1 C1         -0.0870    0.0730   -0.3470 c3        1 LZ7     -0.191100
      2 C2          1.3820    0.1260   -0.1260 c         1 LZ7      0.577100
      3 O3          2.0520   -0.2300    0.8220 o         1 LZ7     -0.382100
      4 N4          2.1730    0.7600   -1.3040 n4        1 LZ7     -0.539200
      5 C5          3.5190    0.2920   -1.4370 cc        1 LZ7     -0.179700
      6 C6          4.5000    0.1410   -0.4240 cd        1 LZ7     -0.017300
      7 N7          5.6380   -0.3360   -1.0690 na        1 LZ7      0.068400
      8 N9          5.4740   -0.4960   -2.3670 nd        1 LZ7     -0.417800
      9 C10         4.1870   -0.1280   -2.6650 cc        1 LZ7      0.208800
     10 C11         3.5790   -0.1560   -3.9940 c         1 LZ7      0.483600
     11 O12         2.4110    0.1500   -4.2100 o         1 LZ7     -0.426100
     12 N13         4.4700   -0.5910   -5.1230 n4        1 LZ7     -0.500200
     13 C14         3.8300   -0.5850   -6.4410 ca        1 LZ7     -0.112400
     14 C15         3.8870    0.5760   -7.2380 ca        1 LZ7     -0.060000
     15 C16         3.3200    0.5660   -8.5030 ca        1 LZ7     -0.147000
     16 C17         2.6850   -0.6010   -8.9840 ca        1 LZ7      0.227900
     17 F18         2.1340   -0.6090  -10.2070 f         1 LZ7     -0.072900
     18 C19         2.6300   -1.7610   -8.1770 ca        1 LZ7     -0.147000
     19 C20         3.1970   -1.7530   -6.9120 ca        1 LZ7     -0.060000
     20 H1C1       -0.5750   -0.2440    0.6180 hc        1 LZ7      0.131033
     21 H1C2       -0.3390   -0.6830   -1.1360 hc        1 LZ7      0.131033
     22 H1C3       -0.5010    1.0710   -0.6430 hc        1 LZ7      0.131033
     23 H4          1.6630    0.5760   -2.1830 hn        1 LZ7      0.477800
     24 H6          4.4520    0.3140    0.6620 h4        1 LZ7      0.256000
     25 H7          6.5260   -0.5590   -0.6400 hn        1 LZ7      0.395700
     26 H13         5.2880    0.0390   -5.1510 hn        1 LZ7      0.484800
     27 H15         4.3820    1.4960   -6.8830 ha        1 LZ7      0.160000
     28 H20         3.1480   -2.6700   -6.3010 ha        1 LZ7      0.160000
     29 H16         3.3630    1.4650   -9.1430 ha        1 LZ7      0.198500
     30 H19         2.1380   -2.6710   -8.5650 ha        1 LZ7      0.198500
     31 H42         2.1930    1.7810   -1.1510 hn        1 LZ7      0.477800
     32 H132        4.8050   -1.5470   -4.9220 hn        1 LZ7      0.484800
@<TRIPOS>BOND
     1    1    2 1   
     2    1   20 1   
     3    1   21 1   
     4    1   22 1   
     5    2    3 2   
     6    2    4 1   
     7    4    5 1   
     8    4   23 1   
     9    4   31 1   
    10    5    6 2   
    11    5    9 1   
    12    6    7 1   
    13    6   24 1   
    14    7    8 1   
    15    7   25 1   
    16    8    9 2   
    17    9   10 1   
    18   10   11 2   
    19   10   12 1   
    20   12   13 1   
    21   12   26 1   
    22   12   32 1   
    23   13   14 ar  
    24   13   19 ar  
    25   14   15 ar  
    26   14   27 1   
    27   15   16 ar  
    28   15   29 1   
    29   16   17 1   
    30   16   18 ar  
    31   18   19 ar  
    32   18   30 1   
    33   19   28 1   
@<TRIPOS>SUBSTRUCTURE
     1 LZ7         1 TEMP              0 ****  ****    0 ROOT
