@<TRIPOS>MOLECULE
LZ7
   30    31     1     0     0
SMALL
bcc


@<TRIPOS>ATOM
      1 C1         24.3630    5.9170   60.7800 c3        1 LZ7     -0.172100
      2 C2         24.8570    4.8970   61.7750 c         1 LZ7      0.664100
      3 O3         24.2810    3.8040   61.9410 o         1 LZ7     -0.604100
      4 N4         25.9930    5.2380   62.5000 n         1 LZ7     -0.444100
      5 C5         26.5770    4.4260   63.4480 cc        1 LZ7     -0.041700
      6 C6         26.1870    3.1360   63.8820 cd        1 LZ7     -0.183300
      7 N7         27.1170    2.7640   64.8570 na        1 LZ7      0.015400
      8 N9         28.0400    3.6800   65.0760 nd        1 LZ7     -0.491800
      9 C10        27.7690    4.7340   64.2410 cc        1 LZ7      0.202800
     10 C11        28.5420    5.9920   64.1380 c         1 LZ7      0.622600
     11 O12        28.1880    6.8790   63.3320 o         1 LZ7     -0.626100
     12 N13        29.6480    6.1220   64.9610 n         1 LZ7     -0.452100
     13 C14        30.5150    7.2240   65.0500 ca        1 LZ7      0.057600
     14 C15        31.5070    7.2090   66.0630 ca        1 LZ7     -0.145000
     15 C16        32.4010    8.2600   66.2000 ca        1 LZ7     -0.140000
     16 C17        32.3290    9.3610   65.3290 ca        1 LZ7      0.095900
     17 F18        33.2000   10.3900   65.4620 f         1 LZ7     -0.141900
     18 C19        31.3510    9.3890   64.3210 ca        1 LZ7     -0.140000
     19 C20        30.4560    8.3350   64.1820 ca        1 LZ7     -0.145000
     20 H1C1       24.0990    6.8720   61.2960 hc        1 LZ7      0.071700
     21 H1C2       25.1450    6.1230   60.0090 hc        1 LZ7      0.071700
     22 H1C3       23.4520    5.5110   60.2750 hc        1 LZ7      0.071700
     23 H4         26.4330    6.1240   62.3440 hn        1 LZ7      0.357500
     24 H6         25.3510    2.5100   63.5650 h4        1 LZ7      0.218000
     25 H7         27.1300    1.9080   65.3640 hn        1 LZ7      0.331700
     26 H13        29.8520    5.3750   65.5910 hn        1 LZ7      0.334500
     27 H15        31.5830    6.3570   66.7580 ha        1 LZ7      0.157000
     28 H20        29.7000    8.3850   63.3810 ha        1 LZ7      0.157000
     29 H16        33.1670    8.2390   66.9890 ha        1 LZ7      0.150000
     30 H19        31.2960   10.2510   63.6400 ha        1 LZ7      0.150000
@<TRIPOS>BOND
     1    1    2 1   
     2    1   20 1   
     3    1   21 1   
     4    1   22 1   
     5    2    3 2   
     6    2    4 1   
     7    4    5 1   
     8    4   23 1   
     9    5    6 2   
    10    5    9 1   
    11    6    7 1   
    12    6   24 1   
    13    7    8 1   
    14    7   25 1   
    15    8    9 2   
    16    9   10 1   
    17   10   11 2   
    18   10   12 1   
    19   12   13 1   
    20   12   26 1   
    21   13   14 ar  
    22   13   19 ar  
    23   14   15 ar  
    24   14   27 1   
    25   15   16 ar  
    26   15   29 1   
    27   16   17 1   
    28   16   18 ar  
    29   18   19 ar  
    30   18   30 1   
    31   19   28 1   
@<TRIPOS>SUBSTRUCTURE
     1 LZ7         1 TEMP              0 ****  ****    0 ROOT
