@<TRIPOS>MOLECULE
LZ7
   30    31     1     0     0
SMALL
bcc


@<TRIPOS>ATOM
      1 C1         -0.0250   -0.3390    0.1030 c3        1 LZ7     -0.172100
      2 C2          1.4670   -0.1240    0.0560 c         1 LZ7      0.664100
      3 O3          2.1400    0.0600    1.0890 o         1 LZ7     -0.604100
      4 N4          2.0560   -0.1430   -1.2030 n         1 LZ7     -0.444100
      5 C5          3.4050    0.0370   -1.4270 cc        1 LZ7     -0.041700
      6 C6          4.4430    0.2670   -0.4920 cd        1 LZ7     -0.183300
      7 N7          5.6150    0.3780   -1.2450 na        1 LZ7      0.015400
      8 N9          5.4200    0.2420   -2.5420 nd        1 LZ7     -0.491800
      9 C10         4.0770    0.0280   -2.7280 cc        1 LZ7      0.202800
     10 C11         3.3950   -0.1800   -4.0240 c         1 LZ7      0.622600
     11 O12         2.1590   -0.3670   -4.0560 o         1 LZ7     -0.626100
     12 N13         4.1820   -0.1600   -5.1630 n         1 LZ7     -0.452100
     13 C14         3.7540   -0.3130   -6.4920 ca        1 LZ7      0.057600
     14 C15         4.7030   -0.1010   -7.5250 ca        1 LZ7     -0.145000
     15 C16         4.3500   -0.2460   -8.8580 ca        1 LZ7     -0.140000
     16 C17         3.0350   -0.6070   -9.2000 ca        1 LZ7      0.095900
     17 F18         2.6870   -0.7480  -10.5020 f         1 LZ7     -0.141900
     18 C19         2.0850   -0.8200   -8.1880 ca        1 LZ7     -0.140000
     19 C20         2.4390   -0.6770   -6.8520 ca        1 LZ7     -0.145000
     20 H1C1       -0.3580   -0.2990    1.1690 hc        1 LZ7      0.071700
     21 H1C2       -0.2910   -1.3360   -0.3240 hc        1 LZ7      0.071700
     22 H1C3       -0.5540    0.4580   -0.4750 hc        1 LZ7      0.071700
     23 H4          1.4890   -0.2930   -2.0140 hn        1 LZ7      0.357500
     24 H6          4.4050    0.3520    0.5950 h4        1 LZ7      0.218000
     25 H7          6.5310    0.5420   -0.8910 hn        1 LZ7      0.331700
     26 H13         5.1570    0.0180   -5.0530 hn        1 LZ7      0.334500
     27 H15         5.7390    0.1830   -7.2810 ha        1 LZ7      0.157000
     28 H20         1.6710   -0.8510   -6.0790 ha        1 LZ7      0.157000
     29 H16         5.0930   -0.0800   -9.6520 ha        1 LZ7      0.150000
     30 H19         1.0560   -1.1030   -8.4580 ha        1 LZ7      0.150000
@<TRIPOS>BOND
     1    1    2 1   
     2    1   20 1   
     3    1   21 1   
     4    1   22 1   
     5    2    3 2   
     6    2    4 1   
     7    4    5 1   
     8    4   23 1   
     9    5    6 2   
    10    5    9 1   
    11    6    7 1   
    12    6   24 1   
    13    7    8 1   
    14    7   25 1   
    15    8    9 2   
    16    9   10 1   
    17   10   11 2   
    18   10   12 1   
    19   12   13 1   
    20   12   26 1   
    21   13   14 ar  
    22   13   19 ar  
    23   14   15 ar  
    24   14   27 1   
    25   15   16 ar  
    26   15   29 1   
    27   16   17 1   
    28   16   18 ar  
    29   18   19 ar  
    30   18   30 1   
    31   19   28 1   
@<TRIPOS>SUBSTRUCTURE
     1 LZ7         1 TEMP              0 ****  ****    0 ROOT
