@<TRIPOS>MOLECULE
LZ8
   37    39     1     0     0
SMALL
bcc


@<TRIPOS>ATOM
      1 F1         -0.1000   -0.4570   -0.1490 f         1 LZ8     -0.141900
      2 C2          1.2420   -0.2860   -0.0700 ca        1 LZ8      0.096900
      3 C3          1.8180    0.2620    1.0880 ca        1 LZ8     -0.140000
      4 C4          3.1940    0.4380    1.1710 ca        1 LZ8     -0.144500
      5 C5          4.0310    0.0720    0.0950 ca        1 LZ8      0.056600
      6 N6          5.4290    0.2100    0.1190 n         1 LZ8     -0.452100
      7 C7          6.1830    0.8950    1.0580 c         1 LZ8      0.622600
      8 O8          5.6760    1.4660    2.0470 o         1 LZ8     -0.625100
      9 C9          7.6470    0.9270    0.8540 cc        1 LZ8      0.202800
     10 N10         8.3320    0.3860   -0.2050 nd        1 LZ8     -0.491800
     11 N11         9.6120    0.6370   -0.0090 na        1 LZ8      0.015400
     12 C12         9.8640    1.3470    1.1690 cd        1 LZ8     -0.182300
     13 C13         8.5990    1.5600    1.7690 cc        1 LZ8     -0.041700
     14 N14         8.2920    2.2100    2.9460 n         1 LZ8     -0.437100
     15 C15         9.2360    2.8230    3.7620 c         1 LZ8      0.679700
     16 O16        10.4520    2.7880    3.4850 o         1 LZ8     -0.602100
     17 C17         8.7270    3.4970    4.9880 ca        1 LZ8     -0.144600
     18 C18         9.5300    3.4540    6.1360 ca        1 LZ8     -0.086500
     19 C20         9.1020    4.0790    7.3060 ca        1 LZ8     -0.138500
     20 C21         7.8820    4.7540    7.3330 ca        1 LZ8     -0.104000
     21 C22         7.0890    4.8070    6.1860 ca        1 LZ8     -0.138500
     22 C23         7.5070    4.1800    5.0130 ca        1 LZ8     -0.086500
     23 C25         3.4360   -0.4810   -1.0670 ca        1 LZ8     -0.144500
     24 C26         2.0630   -0.6580   -1.1490 ca        1 LZ8     -0.140000
     25 H3          1.1730    0.5520    1.9310 ha        1 LZ8      0.150000
     26 H26         1.6100   -1.0880   -2.0550 ha        1 LZ8      0.150000
     27 H4          3.6180    0.8700    2.0930 ha        1 LZ8      0.157000
     28 H6          5.9050   -0.1920   -0.6600 hn        1 LZ8      0.334500
     29 H25         4.0590   -0.7790   -1.9250 ha        1 LZ8      0.157000
     30 H12        10.8600    1.6470    1.4980 h4        1 LZ8      0.218000
     31 H18        10.4990    2.9330    6.0980 ha        1 LZ8      0.148500
     32 H23         6.8740    4.2440    4.1140 ha        1 LZ8      0.148500
     33 H20         9.7320    4.0420    8.2070 ha        1 LZ8      0.139000
     34 H21         7.5460    5.2470    8.2570 ha        1 LZ8      0.136000
     35 H22         6.1290    5.3450    6.2050 ha        1 LZ8      0.139000
     36 H11        10.2900    0.3280   -0.6680 hn        1 LZ8      0.331700
     37 H14         7.3240    2.2300    3.2010 hn        1 LZ8      0.359500
@<TRIPOS>BOND
     1    1    2 1   
     2    2    3 ar  
     3    2   24 ar  
     4    3    4 ar  
     5    3   25 1   
     6    4    5 ar  
     7    4   27 1   
     8    5    6 1   
     9    5   23 ar  
    10    6    7 1   
    11    6   28 1   
    12    7    8 2   
    13    7    9 1   
    14    9   10 2   
    15    9   13 1   
    16   10   11 1   
    17   11   12 1   
    18   11   36 1   
    19   12   13 2   
    20   12   30 1   
    21   13   14 1   
    22   14   15 1   
    23   14   37 1   
    24   15   16 2   
    25   15   17 1   
    26   17   18 ar  
    27   17   22 ar  
    28   18   19 ar  
    29   18   31 1   
    30   19   20 ar  
    31   19   33 1   
    32   20   21 ar  
    33   20   34 1   
    34   21   22 ar  
    35   21   35 1   
    36   22   32 1   
    37   23   24 ar  
    38   23   29 1   
    39   24   26 1   
@<TRIPOS>SUBSTRUCTURE
     1 LZ8         1 TEMP              0 ****  ****    0 ROOT
