@<TRIPOS>MOLECULE
LZ8
   37    39     1     0     0
SMALL
bcc


@<TRIPOS>ATOM
      1 F1         -0.0800   -0.5660   -0.1060 f         1 LZ8     -0.141900
      2 C2          1.2600   -0.3690   -0.0380 ca        1 LZ8      0.096900
      3 C3          1.8360    0.1790    1.1190 ca        1 LZ8     -0.140000
      4 C4          3.2090    0.3810    1.1910 ca        1 LZ8     -0.144500
      5 C5          4.0420    0.0430    0.1040 ca        1 LZ8      0.056600
      6 N6          5.4370    0.2080    0.1160 ns        1 LZ8     -0.452100
      7 C7          6.1860    0.9000    1.0540 c         1 LZ8      0.622600
      8 O8          5.6780    1.4520    2.0540 o         1 LZ8     -0.625100
      9 C9          7.6480    0.9640    0.8360 cc        1 LZ8      0.202800
     10 N10         8.3330    0.4460   -0.2340 nd        1 LZ8     -0.491800
     11 N11         9.6090    0.7220   -0.0480 na        1 LZ8      0.015400
     12 C12         9.8580    1.4260    1.1330 cd        1 LZ8     -0.182300
     13 C13         8.5960    1.6090    1.7470 cc        1 LZ8     -0.041700
     14 N14         8.2870    2.2410    2.9330 ns        1 LZ8     -0.437100
     15 C15         9.2270    2.8670    3.7450 c         1 LZ8      0.679700
     16 O16        10.4400    2.8600    3.4560 o         1 LZ8     -0.602100
     17 C17         8.7160    3.5190    4.9830 ca        1 LZ8     -0.144600
     18 C18         9.5310    3.4830    6.1220 ca        1 LZ8     -0.086500
     19 C20         9.1020    4.0890    7.3010 ca        1 LZ8     -0.138500
     20 C21         7.8680    4.7380    7.3460 ca        1 LZ8     -0.104000
     21 C22         7.0620    4.7840    6.2080 ca        1 LZ8     -0.138500
     22 C23         7.4820    4.1760    5.0250 ca        1 LZ8     -0.086500
     23 C25         3.4470   -0.5100   -1.0580 ca        1 LZ8     -0.144500
     24 C26         2.0770   -0.7140   -1.1290 ca        1 LZ8     -0.140000
     25 H3          1.1940    0.4480    1.9720 ha        1 LZ8      0.150000
     26 H26         1.6240   -1.1440   -2.0340 ha        1 LZ8      0.150000
     27 H4          3.6330    0.8130    2.1130 ha        1 LZ8      0.157000
     28 H6          5.9140   -0.1760   -0.6710 hn        1 LZ8      0.334500
     29 H25         4.0670   -0.7880   -1.9250 ha        1 LZ8      0.157000
     30 H12        10.8520    1.7440    1.4560 h4        1 LZ8      0.218000
     31 H18        10.5110    2.9820    6.0700 ha        1 LZ8      0.148500
     32 H23         6.8390    4.2340    4.1330 ha        1 LZ8      0.148500
     33 H20         9.7420    4.0570    8.1960 ha        1 LZ8      0.139000
     34 H21         7.5310    5.2160    8.2780 ha        1 LZ8      0.136000
     35 H22         6.0930    5.3020    6.2410 ha        1 LZ8      0.139000
     36 H11        10.2870    0.4330   -0.7170 hn        1 LZ8      0.331700
     37 H14         7.3220    2.2390    3.1980 hn        1 LZ8      0.359500
@<TRIPOS>BOND
     1    1    2 1   
     2    2    3 ar  
     3    2   24 ar  
     4    3    4 ar  
     5    3   25 1   
     6    4    5 ar  
     7    4   27 1   
     8    5    6 1   
     9    5   23 ar  
    10    6    7 1   
    11    6   28 1   
    12    7    8 2   
    13    7    9 1   
    14    9   10 2   
    15    9   13 1   
    16   10   11 1   
    17   11   12 1   
    18   11   36 1   
    19   12   13 2   
    20   12   30 1   
    21   13   14 1   
    22   14   15 1   
    23   14   37 1   
    24   15   16 2   
    25   15   17 1   
    26   17   18 ar  
    27   17   22 ar  
    28   18   19 ar  
    29   18   31 1   
    30   19   20 ar  
    31   19   33 1   
    32   20   21 ar  
    33   20   34 1   
    34   21   22 ar  
    35   21   35 1   
    36   22   32 1   
    37   23   24 ar  
    38   23   29 1   
    39   24   26 1   
@<TRIPOS>SUBSTRUCTURE
     1 LZ8         1 TEMP              0 ****  ****    0 ROOT
