@<TRIPOS>MOLECULE
LZ8
   37    39     1     0     0
SMALL
bcc


@<TRIPOS>ATOM
      1 F1          6.7830   -2.3520    0.3050 f         1 LZ8     -0.141900
      2 C2          5.7120   -1.5250    0.2360 ca        1 LZ8      0.096900
      3 C3          4.4140   -2.0350    0.4030 ca        1 LZ8     -0.140000
      4 C4          3.3140   -1.1890    0.3330 ca        1 LZ8     -0.144500
      5 C5          3.4840    0.1910    0.0900 ca        1 LZ8      0.056600
      6 N6          2.4170    1.1030    0.0200 n         1 LZ8     -0.452100
      7 C7          1.0660    0.8020   -0.0370 c         1 LZ8      0.622600
      8 O8          0.6300   -0.3690   -0.0030 o         1 LZ8     -0.625100
      9 C9          0.1250    1.9390   -0.1380 cc        1 LZ8      0.202800
     10 N10         0.4620    3.2660   -0.2310 nd        1 LZ8     -0.491800
     11 N11        -0.6640    3.9480   -0.3070 na        1 LZ8      0.015400
     12 C12        -1.8050    3.1410   -0.2700 cd        1 LZ8     -0.182300
     13 C13        -1.3340    1.8110   -0.1600 cc        1 LZ8     -0.041700
     14 N14        -2.0510    0.6360   -0.0850 n         1 LZ8     -0.437100
     15 C15        -3.4390    0.5700   -0.1430 c         1 LZ8      0.679700
     16 O16        -4.1330    1.6020   -0.2320 o         1 LZ8     -0.602100
     17 C17        -4.0500   -0.7860   -0.0670 ca        1 LZ8     -0.144600
     18 C18        -5.2740   -0.9120    0.6030 ca        1 LZ8     -0.086500
     19 C20        -5.8930   -2.1580    0.6920 ca        1 LZ8     -0.138500
     20 C21        -5.2980   -3.2760    0.1070 ca        1 LZ8     -0.104000
     21 C22        -4.0860   -3.1490   -0.5710 ca        1 LZ8     -0.138500
     22 C23        -3.4580   -1.9060   -0.6590 ca        1 LZ8     -0.086500
     23 C25         4.7990    0.6920   -0.0770 ca        1 LZ8     -0.144500
     24 C26         5.8970   -0.1520   -0.0040 ca        1 LZ8     -0.140000
     25 H3          4.2710   -3.1100    0.5910 ha        1 LZ8      0.150000
     26 H26         6.9150    0.2450   -0.1340 ha        1 LZ8      0.150000
     27 H4          2.3060   -1.6170    0.4690 ha        1 LZ8      0.157000
     28 H6          2.6850    2.0610   -0.0450 hn        1 LZ8      0.334500
     29 H25         4.9690    1.7630   -0.2660 ha        1 LZ8      0.157000
     30 H12        -2.8260    3.5250   -0.3230 h4        1 LZ8      0.218000
     31 H18        -5.7420   -0.0180    1.0460 ha        1 LZ8      0.148500
     32 H23        -2.5080   -1.8210   -1.2100 ha        1 LZ8      0.148500
     33 H20        -6.8520   -2.2560    1.2210 ha        1 LZ8      0.139000
     34 H21        -5.7880   -4.2600    0.1780 ha        1 LZ8      0.136000
     35 H22        -3.6200   -4.0290   -1.0380 ha        1 LZ8      0.139000
     36 H11        -0.6450    4.9400   -0.3840 hn        1 LZ8      0.331700
     37 H14        -1.5160   -0.2050    0.0120 hn        1 LZ8      0.359500
@<TRIPOS>BOND
     1    1    2 1   
     2    2    3 ar  
     3    2   24 ar  
     4    3    4 ar  
     5    3   25 1   
     6    4    5 ar  
     7    4   27 1   
     8    5    6 1   
     9    5   23 ar  
    10    6    7 1   
    11    6   28 1   
    12    7    8 2   
    13    7    9 1   
    14    9   10 2   
    15    9   13 1   
    16   10   11 1   
    17   11   12 1   
    18   11   36 1   
    19   12   13 2   
    20   12   30 1   
    21   13   14 1   
    22   14   15 1   
    23   14   37 1   
    24   15   16 2   
    25   15   17 1   
    26   17   18 ar  
    27   17   22 ar  
    28   18   19 ar  
    29   18   31 1   
    30   19   20 ar  
    31   19   33 1   
    32   20   21 ar  
    33   20   34 1   
    34   21   22 ar  
    35   21   35 1   
    36   22   32 1   
    37   23   24 ar  
    38   23   29 1   
    39   24   26 1   
@<TRIPOS>SUBSTRUCTURE
     1 LZ8         1 TEMP              0 ****  ****    0 ROOT
