@<TRIPOS>MOLECULE
LZ8
   39    41     1     0     0
SMALL
bcc


@<TRIPOS>ATOM
      1 F1          0.0000   -0.2350    0.4740 f         1 LZ8     -0.074900
      2 C2          1.3400   -0.2240    0.3890 ca        1 LZ8      0.224900
      3 C3          2.1100   -1.0230    1.2640 ca        1 LZ8     -0.147000
      4 C4          3.4930   -1.0100    1.1790 ca        1 LZ8     -0.060500
      5 C5          4.1230   -0.2020    0.2110 ca        1 LZ8     -0.109400
      6 N6          5.5820   -0.2220    0.0890 n4        1 LZ8     -0.503200
      7 C7          6.2950    0.8010    0.9320 c         1 LZ8      0.483600
      8 O8          5.6550    1.5550    1.6580 o         1 LZ8     -0.424100
      9 C9          7.7510    0.8210    0.8220 cc        1 LZ8      0.204800
     10 N10         8.5030   -0.0080    0.0270 nd        1 LZ8     -0.424800
     11 N11         9.7670    0.3160    0.2110 na        1 LZ8      0.066400
     12 C12         9.9450    1.3570    1.1180 cd        1 LZ8     -0.015300
     13 C13         8.6430    1.7220    1.5440 cc        1 LZ8     -0.165700
     14 N14         8.2670    2.7390    2.4770 n4        1 LZ8     -0.532200
     15 C15         9.1380    2.7990    3.7650 c         1 LZ8      0.598700
     16 O16        10.2030    2.2090    3.6860 o         1 LZ8     -0.429100
     17 C17         8.5590    3.5450    4.8680 ca        1 LZ8     -0.223600
     18 C18         9.1750    3.3680    6.1250 ca        1 LZ8     -0.058500
     19 C20         8.7000    4.0620    7.2350 ca        1 LZ8     -0.119500
     20 C21         7.6220    4.9390    7.1050 ca        1 LZ8     -0.026000
     21 C22         7.0150    5.1230    5.8560 ca        1 LZ8     -0.119500
     22 C23         7.4750    4.4340    4.7420 ca        1 LZ8     -0.058500
     23 C25         3.3630    0.5990   -0.6640 ca        1 LZ8     -0.060500
     24 C26         1.9790    0.5850   -0.5770 ca        1 LZ8     -0.147000
     25 H3          1.6000   -1.6570    2.0110 ha        1 LZ8      0.197000
     26 H26         1.3680    1.2010   -1.2620 ha        1 LZ8      0.197000
     27 H4          4.0760   -1.6440    1.8690 ha        1 LZ8      0.160000
     28 H6          5.9240   -1.1580    0.3600 hn        1 LZ8      0.483800
     29 H25         3.8420    1.2350   -1.4280 ha        1 LZ8      0.160000
     30 H12        10.9340    1.7380    1.4110 h4        1 LZ8      0.255000
     31 H18        10.0360    2.6830    6.2260 ha        1 LZ8      0.148500
     32 H23         6.9870    4.6260    3.7750 ha        1 LZ8      0.148500
     33 H20         9.1850    3.9200    8.2170 ha        1 LZ8      0.180500
     34 H21         7.2490    5.4930    7.9850 ha        1 LZ8      0.182000
     35 H22         6.1700    5.8270    5.7580 ha        1 LZ8      0.180500
     36 H11        10.4930   -0.1840   -0.2820 hn        1 LZ8      0.392700
     37 H14         8.3370    3.6580    2.0140 hn        1 LZ8      0.475800
     38 H62         5.8340   -0.0600   -0.8980 hn        1 LZ8      0.483800
     39 H142        7.2850    2.5940    2.7610 hn        1 LZ8      0.475800
@<TRIPOS>BOND
     1    1    2 1   
     2    2    3 ar  
     3    2   24 ar  
     4    3    4 ar  
     5    3   25 1   
     6    4    5 ar  
     7    4   27 1   
     8    5    6 1   
     9    5   23 ar  
    10    6    7 1   
    11    6   28 1   
    12    6   38 1   
    13    7    8 2   
    14    7    9 1   
    15    9   10 2   
    16    9   13 1   
    17   10   11 1   
    18   11   12 1   
    19   11   36 1   
    20   12   13 2   
    21   12   30 1   
    22   13   14 1   
    23   14   15 1   
    24   14   37 1   
    25   14   39 1   
    26   15   16 2   
    27   15   17 1   
    28   17   18 ar  
    29   17   22 ar  
    30   18   19 ar  
    31   18   31 1   
    32   19   20 ar  
    33   19   33 1   
    34   20   21 ar  
    35   20   34 1   
    36   21   22 ar  
    37   21   35 1   
    38   22   32 1   
    39   23   24 ar  
    40   23   29 1   
    41   24   26 1   
@<TRIPOS>SUBSTRUCTURE
     1 LZ8         1 TEMP              0 ****  ****    0 ROOT
