@<TRIPOS>MOLECULE
LZ9
   37    39     1     0     0
SMALL
bcc


@<TRIPOS>ATOM
      1 F1         -0.1800    0.4700    0.4930 f         1 LZ9     -0.142900
      2 C2          1.1640    0.3290    0.3830 ca        1 LZ9      0.095900
      3 C3          2.0130    0.9180    1.3370 ca        1 LZ9     -0.140000
      4 C4          3.3870    0.7710    1.2240 ca        1 LZ9     -0.144500
      5 C5          3.9550    0.0340    0.1540 ca        1 LZ9      0.057600
      6 N6          5.3550   -0.0640    0.0910 ns        1 LZ9     -0.453100
      7 C7          6.0980   -0.8640   -0.7620 c         1 LZ9      0.621600
      8 O8          5.5780   -1.6010   -1.6260 o         1 LZ9     -0.620100
      9 C9          7.5710   -0.8150   -0.6210 cc        1 LZ9      0.207800
     10 N10         8.2740   -0.0690    0.2900 nd        1 LZ9     -0.491800
     11 N11         9.5550   -0.3090    0.0840 na        1 LZ9      0.014400
     12 C12         9.7880   -1.2130   -0.9570 cd        1 LZ9     -0.179300
     13 C13         8.5100   -1.5730   -1.4490 cc        1 LZ9     -0.044700
     14 N14         8.1830   -2.4440   -2.4680 ns        1 LZ9     -0.428100
     15 C15         9.1250   -3.1130   -3.2370 c         1 LZ9      0.687700
     16 O16        10.3480   -2.9860   -3.0470 o         1 LZ9     -0.579100
     17 C17         8.5820   -4.0180   -4.2920 ca        1 LZ9     -0.220600
     18 C18         9.0350   -5.3530   -4.3630 ca        1 LZ9      0.193900
     19 F19         9.9120   -5.8250   -3.4510 f         1 LZ9     -0.118900
     20 C20         8.5720   -6.2130   -5.3770 ca        1 LZ9     -0.189000
     21 C21         7.6620   -5.7430   -6.3180 ca        1 LZ9     -0.060000
     22 C22         7.1990   -4.4320   -6.2700 ca        1 LZ9     -0.189000
     23 C23         7.6550   -3.5690   -5.2560 ca        1 LZ9      0.193900
     24 F24         7.1970   -2.2960   -5.2220 f         1 LZ9     -0.118900
     25 C25         3.0900   -0.5480   -0.7970 ca        1 LZ9     -0.144500
     26 C26         1.7130   -0.4030   -0.6820 ca        1 LZ9     -0.140000
     27 H3          1.5810    1.4910    2.1700 ha        1 LZ9      0.149500
     28 H26         1.0460   -0.8620   -1.4270 ha        1 LZ9      0.149500
     29 H4          4.0320    1.2400    1.9830 ha        1 LZ9      0.156500
     30 H6          5.8460    0.4750    0.7720 hn        1 LZ9      0.334500
     31 H25         3.4920   -1.1290   -1.6450 ha        1 LZ9      0.156500
     32 H12        10.7820   -1.5340   -1.2740 h4        1 LZ9      0.218000
     33 H20         8.9380   -7.2500   -5.4120 ha        1 LZ9      0.160000
     34 H21         7.3040   -6.4170   -7.1120 ha        1 LZ9      0.149000
     35 H22         6.4800   -4.0570   -7.0130 ha        1 LZ9      0.160000
     36 H11        10.2460    0.1360    0.6440 hn        1 LZ9      0.331700
     37 H14         7.2090   -2.5290   -2.6860 hn        1 LZ9      0.363500
@<TRIPOS>BOND
     1    1    2 1   
     2    2    3 ar  
     3    2   26 ar  
     4    3    4 ar  
     5    3   27 1   
     6    4    5 ar  
     7    4   29 1   
     8    5    6 1   
     9    5   25 ar  
    10    6    7 1   
    11    6   30 1   
    12    7    8 2   
    13    7    9 1   
    14    9   10 2   
    15    9   13 1   
    16   10   11 1   
    17   11   12 1   
    18   11   36 1   
    19   12   13 2   
    20   12   32 1   
    21   13   14 1   
    22   14   15 1   
    23   14   37 1   
    24   15   16 2   
    25   15   17 1   
    26   17   18 ar  
    27   17   23 ar  
    28   18   19 1   
    29   18   20 ar  
    30   20   21 ar  
    31   20   33 1   
    32   21   22 ar  
    33   21   34 1   
    34   22   23 ar  
    35   22   35 1   
    36   23   24 1   
    37   25   26 ar  
    38   25   31 1   
    39   26   28 1   
@<TRIPOS>SUBSTRUCTURE
     1 LZ9         1 TEMP              0 ****  ****    0 ROOT
