@<TRIPOS>MOLECULE
LZ9
   37    39     1     0     0
SMALL
bcc


@<TRIPOS>ATOM
      1 F1         -0.1790    0.4770    0.4870 f         1 LZ9     -0.142900
      2 C2          1.1640    0.3340    0.3800 ca        1 LZ9      0.095900
      3 C3          2.0130    0.9160    1.3380 ca        1 LZ9     -0.140000
      4 C4          3.3870    0.7660    1.2270 ca        1 LZ9     -0.144500
      5 C5          3.9550    0.0320    0.1560 ca        1 LZ9      0.057600
      6 N6          5.3560   -0.0700    0.0960 n         1 LZ9     -0.453100
      7 C7          6.0990   -0.8670   -0.7600 c         1 LZ9      0.621600
      8 O8          5.5780   -1.5980   -1.6290 o         1 LZ9     -0.620100
      9 C9          7.5710   -0.8230   -0.6140 cc        1 LZ9      0.207800
     10 N10         8.2740   -0.0820    0.3020 nd        1 LZ9     -0.491800
     11 N11         9.5540   -0.3260    0.0980 na        1 LZ9      0.014400
     12 C12         9.7880   -1.2270   -0.9460 cd        1 LZ9     -0.179300
     13 C13         8.5100   -1.5800   -1.4430 cc        1 LZ9     -0.044700
     14 N14         8.1830   -2.4460   -2.4660 n         1 LZ9     -0.428100
     15 C15         9.1250   -3.1170   -3.2340 c         1 LZ9      0.687700
     16 O16        10.3480   -2.9960   -3.0400 o         1 LZ9     -0.579100
     17 C17         8.5820   -4.0150   -4.2940 ca        1 LZ9     -0.220600
     18 C18         9.0280   -5.3530   -4.3670 ca        1 LZ9      0.193900
     19 F19         9.8980   -5.8320   -3.4530 f         1 LZ9     -0.118900
     20 C20         8.5640   -6.2070   -5.3870 ca        1 LZ9     -0.189000
     21 C21         7.6620   -5.7280   -6.3300 ca        1 LZ9     -0.060000
     22 C22         7.2060   -4.4150   -6.2800 ca        1 LZ9     -0.189000
     23 C23         7.6620   -3.5580   -5.2610 ca        1 LZ9      0.193900
     24 F24         7.2110   -2.2830   -5.2260 f         1 LZ9     -0.118900
     25 C25         3.0910   -0.5440   -0.7990 ca        1 LZ9     -0.144500
     26 C26         1.7140   -0.3960   -0.6860 ca        1 LZ9     -0.140000
     27 H3          1.5810    1.4880    2.1720 ha        1 LZ9      0.149500
     28 H26         1.0480   -0.8500   -1.4350 ha        1 LZ9      0.149500
     29 H4          4.0320    1.2310    1.9900 ha        1 LZ9      0.156500
     30 H6          5.8460    0.4650    0.7800 hn        1 LZ9      0.334500
     31 H25         3.4930   -1.1230   -1.6480 ha        1 LZ9      0.156500
     32 H12        10.7820   -1.5500   -1.2610 h4        1 LZ9      0.218000
     33 H20         8.9250   -7.2450   -5.4240 ha        1 LZ9      0.160000
     34 H21         7.3030   -6.3980   -7.1280 ha        1 LZ9      0.149000
     35 H22         6.4920   -4.0340   -7.0250 ha        1 LZ9      0.160000
     36 H11        10.2450    0.1150    0.6620 hn        1 LZ9      0.331700
     37 H14         7.2090   -2.5260   -2.6890 hn        1 LZ9      0.363500
@<TRIPOS>BOND
     1    1    2 1   
     2    2    3 ar  
     3    2   26 ar  
     4    3    4 ar  
     5    3   27 1   
     6    4    5 ar  
     7    4   29 1   
     8    5    6 1   
     9    5   25 ar  
    10    6    7 1   
    11    6   30 1   
    12    7    8 2   
    13    7    9 1   
    14    9   10 2   
    15    9   13 1   
    16   10   11 1   
    17   11   12 1   
    18   11   36 1   
    19   12   13 2   
    20   12   32 1   
    21   13   14 1   
    22   14   15 1   
    23   14   37 1   
    24   15   16 2   
    25   15   17 1   
    26   17   18 ar  
    27   17   23 ar  
    28   18   19 1   
    29   18   20 ar  
    30   20   21 ar  
    31   20   33 1   
    32   21   22 ar  
    33   21   34 1   
    34   22   23 ar  
    35   22   35 1   
    36   23   24 1   
    37   25   26 ar  
    38   25   31 1   
    39   26   28 1   
@<TRIPOS>SUBSTRUCTURE
     1 LZ9         1 TEMP              0 ****  ****    0 ROOT
