@<TRIPOS>MOLECULE
LZ9
   39    41     1     0     0
SMALL
bcc


@<TRIPOS>ATOM
      1 F1         -0.0900    0.3750   -0.1390 f         1 LZ9     -0.075900
      2 C2          1.2520    0.3780   -0.0990 ca        1 LZ9      0.224900
      3 C3          1.9280   -0.2750    0.9560 ca        1 LZ9     -0.147000
      4 C4          3.3140   -0.2750    0.9960 ca        1 LZ9     -0.060000
      5 C5          4.0390    0.3850   -0.0160 ca        1 LZ9     -0.108400
      6 N6          5.5020    0.4220    0.0490 n4        1 LZ9     -0.503200
      7 C7          6.1890   -0.7180   -0.6520 c         1 LZ9      0.480600
      8 O8          5.5280   -1.5770   -1.2230 o         1 LZ9     -0.415100
      9 C9          7.6500   -0.7150   -0.5990 cc        1 LZ9      0.209800
     10 N10         8.4240    0.2220    0.0370 nd        1 LZ9     -0.424800
     11 N11         9.6830   -0.1200   -0.1470 na        1 LZ9      0.066400
     12 C12         9.8350   -1.2810   -0.9000 cd        1 LZ9     -0.016300
     13 C13         8.5210   -1.7100   -1.2170 cc        1 LZ9     -0.168700
     14 N14         8.1170   -2.8530   -1.9770 n4        1 LZ9     -0.532200
     15 C15         8.9610   -3.1240   -3.2470 c         1 LZ9      0.602700
     16 O16         9.9990   -2.4930   -3.3280 o         1 LZ9     -0.396100
     17 C17         8.4220   -4.1430   -4.1370 ca        1 LZ9     -0.307600
     18 C18         9.3480   -5.0190   -4.7720 ca        1 LZ9      0.216400
     19 F19        10.6550   -4.9410   -4.4600 f         1 LZ9     -0.113400
     20 C20         8.9050   -5.9720   -5.7080 ca        1 LZ9     -0.158500
     21 C21         7.5550   -6.0540   -6.0270 ca        1 LZ9      0.006000
     22 C22         6.6220   -5.2050   -5.4220 ca        1 LZ9     -0.158500
     23 C23         7.0490   -4.2600   -4.4830 ca        1 LZ9      0.216400
     24 F24         6.1410   -3.4330   -3.9090 f         1 LZ9     -0.113400
     25 C25         3.3730    1.0360   -1.0730 ca        1 LZ9     -0.060000
     26 C26         1.9870    1.0340   -1.1120 ca        1 LZ9     -0.147000
     27 H3          1.3450   -0.7800    1.7460 ha        1 LZ9      0.197000
     28 H26         1.4490    1.5480   -1.9290 ha        1 LZ9      0.197000
     29 H4          3.8230   -0.7870    1.8300 ha        1 LZ9      0.160000
     30 H6          5.7890    0.4130    1.0410 hn        1 LZ9      0.482800
     31 H25         3.9280    1.5570   -1.8720 ha        1 LZ9      0.160000
     32 H12        10.8170   -1.6960   -1.1710 h4        1 LZ9      0.254000
     33 H20         9.6450   -6.6410   -6.1850 ha        1 LZ9      0.200000
     34 H21         7.2100   -6.7980   -6.7700 ha        1 LZ9      0.195000
     35 H22         5.5520   -5.2690   -5.6840 ha        1 LZ9      0.200000
     36 H11        10.4230    0.4490    0.2380 hn        1 LZ9      0.392700
     37 H14         8.1860   -3.6920   -1.3810 hn        1 LZ9      0.483300
     38 H62         5.8290    1.3060   -0.3730 hn        1 LZ9      0.482800
     39 H142        7.1240   -2.7390   -2.2590 hn        1 LZ9      0.483300
@<TRIPOS>BOND
     1    1    2 1   
     2    2    3 ar  
     3    2   26 ar  
     4    3    4 ar  
     5    3   27 1   
     6    4    5 ar  
     7    4   29 1   
     8    5    6 1   
     9    5   25 ar  
    10    6    7 1   
    11    6   30 1   
    12    6   38 1   
    13    7    8 2   
    14    7    9 1   
    15    9   10 2   
    16    9   13 1   
    17   10   11 1   
    18   11   12 1   
    19   11   36 1   
    20   12   13 2   
    21   12   32 1   
    22   13   14 1   
    23   14   15 1   
    24   14   37 1   
    25   14   39 1   
    26   15   16 2   
    27   15   17 1   
    28   17   18 ar  
    29   17   23 ar  
    30   18   19 1   
    31   18   20 ar  
    32   20   21 ar  
    33   20   33 1   
    34   21   22 ar  
    35   21   34 1   
    36   22   23 ar  
    37   22   35 1   
    38   23   24 1   
    39   25   26 ar  
    40   25   31 1   
    41   26   28 1   
@<TRIPOS>SUBSTRUCTURE
     1 LZ9         1 TEMP              0 ****  ****    0 ROOT
