@<TRIPOS>MOLECULE
LZ9
   37    32     1     0     0
SMALL
bcc


@<TRIPOS>ATOM
      1 F1         -6.4050    2.2940    2.3230 f         1 LZ9     -0.108000
      2 C2         -5.1170    2.3470    2.1280 c2        1 LZ9      0.061000
      3 C3         -4.4320    3.5020    2.4320 c1        1 LZ9     -0.139000
      4 C4         -3.0420    3.5360    2.3570 c1        1 LZ9     -0.158000
      5 C5         -2.3350    2.4030    1.9740 c1        1 LZ9      0.065000
      6 N6         -0.8910    2.4290    1.9250 n2        1 LZ9     -0.307000
      7 C7         -0.1980    1.4140    1.2230 c2        1 LZ9      0.405000
      8 O8         -0.8490    0.4910    0.6420 o         1 LZ9     -0.381000
      9 C9          1.3130    1.4630    1.1060 c2        1 LZ9     -0.210000
     10 N10         2.1130    2.3530    1.6870 n2        1 LZ9     -0.059000
     11 N11         3.4170    2.0940    1.2730 n2        1 LZ9     -0.130000
     12 C12         3.3860    1.0270    0.4290 c1        1 LZ9     -0.155000
     13 C13         2.1020    0.6230    0.3120 c1        1 LZ9      0.028000
     14 N14         1.6160   -0.3910   -0.5880 n2        1 LZ9     -0.282000
     15 C15         2.5380   -1.4350   -1.0970 c2        1 LZ9      0.361000
     16 O16         3.7500   -1.4380   -0.7350 o         1 LZ9     -0.340000
     17 C17         2.0190   -2.5120   -2.0020 c2        1 LZ9     -0.200000
     18 C18         0.8940   -3.2610   -1.6240 c2        1 LZ9      0.148000
     19 F19         0.2930   -3.0120   -0.4960 f         1 LZ9     -0.089000
     20 C20         0.4470   -4.2810   -2.4210 c1        1 LZ9     -0.187000
     21 C21         1.1140   -4.5780   -3.6190 c1        1 LZ9     -0.125500
     22 C22         2.2210   -3.8450   -3.9980 c1        1 LZ9     -0.125500
     23 C23         2.6790   -2.8080   -3.1910 c1        1 LZ9      0.170000
     24 F24         3.7930   -2.0860   -3.5610 f         1 LZ9     -0.079000
     25 C25        -3.0220    1.2330    1.6660 c2        1 LZ9     -0.131000
     26 C26        -4.4250    1.2070    1.7440 c2        1 LZ9     -0.141000
     27 H3         -4.9160    4.2890    2.6980 ha        1 LZ9      0.149000
     28 H26        -4.9340    0.3590    1.5210 ha        1 LZ9      0.150000
     29 H4         -2.5270    4.4280    2.5920 ha        1 LZ9      0.136000
     30 H6         -0.4160    3.1420    2.3240 hn        1 LZ9      0.248000
     31 H25        -2.5140    0.4080    1.3880 ha        1 LZ9      0.177000
     32 H12         4.2000    0.6030   -0.0370 DU        1 LZ9      0.250000
     33 H20        -0.3540   -4.8120   -2.1480 ha        1 LZ9      0.160000
     34 H21         0.8120   -5.2660   -4.1580 ha        1 LZ9      0.154500
     35 H22         2.6740   -4.0530   -4.8200 ha        1 LZ9      0.154500
     36 H11         4.1520    2.5530    1.5210 DU        1 LZ9      0.250000
     37 H14         0.8450   -0.4210   -0.7680 hn        1 LZ9      0.277000
@<TRIPOS>BOND
     1    1    2 1   
     2    2    3 1   
     3    2   26 1   
     4    3   27 1   
     5    4    5 1   
     6    4   29 1   
     7    5   25 1   
     8    6    7 1   
     9    6   30 1   
    10    7    8 1   
    11    7    9 1   
    12    9   10 1   
    13    9   13 1   
    14   10   11 1   
    15   11   12 1   
    16   12   13 1   
    17   14   15 1   
    18   14   37 1   
    19   15   16 1   
    20   15   17 1   
    21   17   18 1   
    22   17   23 1   
    23   18   19 1   
    24   18   20 1   
    25   20   33 1   
    26   21   22 1   
    27   21   34 1   
    28   22   35 1   
    29   23   24 1   
    30   25   26 1   
    31   25   31 1   
    32   26   28 1   
@<TRIPOS>SUBSTRUCTURE
     1 LZ9         1 TEMP              0 ****  ****    0 ROOT
