@<TRIPOS>MOLECULE
LZ9
   37    39     1     0     0
SMALL
bcc


@<TRIPOS>ATOM
      1 F1         33.7340   10.3940   66.2010 f         1 LZ9     -0.142900
      2 C2         32.8090    9.4230   66.0060 ca        1 LZ9      0.095900
      3 C3         32.7880    8.2930   66.8440 ca        1 LZ9     -0.140000
      4 C4         31.8400    7.3010   66.6430 ca        1 LZ9     -0.144500
      5 C5         30.8860    7.4060   65.6000 ca        1 LZ9      0.057600
      6 N6         29.9620    6.3590   65.4440 n         1 LZ9     -0.453100
      7 C7         28.8580    6.3380   64.6070 c         1 LZ9      0.621600
      8 O8         28.5650    7.2840   63.8460 o         1 LZ9     -0.620100
      9 C9         28.0120    5.1230   64.6370 cc        1 LZ9      0.207800
     10 N10        28.2030    4.0210   65.4310 nd        1 LZ9     -0.491800
     11 N11        27.2340    3.1690   65.1530 na        1 LZ9      0.014400
     12 C12        26.3510    3.6350   64.1750 cd        1 LZ9     -0.179300
     13 C13        26.8240    4.9180   63.8070 cc        1 LZ9     -0.044700
     14 N14        26.3040    5.8080   62.8890 n         1 LZ9     -0.428100
     15 C15        25.1870    5.5420   62.1110 c         1 LZ9      0.687700
     16 O16        24.5540    4.4740   62.2000 o         1 LZ9     -0.579100
     17 C17        24.7700    6.6260   61.1750 ca        1 LZ9     -0.220600
     18 C18        23.4300    7.0720   61.1810 ca        1 LZ9      0.193900
     19 F19        22.5450    6.5610   62.0620 f         1 LZ9     -0.118900
     20 C20        23.0030    8.0630   60.2760 ca        1 LZ9     -0.189000
     21 C21        23.9060    8.6040   59.3680 ca        1 LZ9     -0.060000
     22 C22        25.2320    8.1830   59.3430 ca        1 LZ9     -0.189000
     23 C23        25.6660    7.1970   60.2470 ca        1 LZ9      0.193900
     24 F24        26.9580    6.7960   60.2100 f         1 LZ9     -0.118900
     25 C25        30.9220    8.5440   64.7660 ca        1 LZ9     -0.144500
     26 C26        31.8700    9.5390   64.9680 ca        1 LZ9     -0.140000
     27 H3         33.5250    8.2030   67.6550 ha        1 LZ9      0.149500
     28 H26        31.8890   10.4230   64.3140 ha        1 LZ9      0.149500
     29 H4         31.8420    6.4260   67.3120 ha        1 LZ9      0.156500
     30 H6         30.1110    5.5740   66.0410 hn        1 LZ9      0.334500
     31 H25        30.1970    8.6630   63.9430 ha        1 LZ9      0.156500
     32 H12        25.4890    3.0710   63.8140 h4        1 LZ9      0.218000
     33 H20        21.9540    8.3960   60.2980 ha        1 LZ9      0.160000
     34 H21        23.5680    9.3770   58.6590 ha        1 LZ9      0.149000
     35 H22        25.9480    8.6100   58.6250 ha        1 LZ9      0.160000
     36 H11        27.1850    2.2940   65.6230 hn        1 LZ9      0.331700
     37 H14        26.8190    6.6560   62.7490 hn        1 LZ9      0.363500
@<TRIPOS>BOND
     1    1    2 1   
     2    2    3 ar  
     3    2   26 ar  
     4    3    4 ar  
     5    3   27 1   
     6    4    5 ar  
     7    4   29 1   
     8    5    6 1   
     9    5   25 ar  
    10    6    7 1   
    11    6   30 1   
    12    7    8 2   
    13    7    9 1   
    14    9   10 2   
    15    9   13 1   
    16   10   11 1   
    17   11   12 1   
    18   11   36 1   
    19   12   13 2   
    20   12   32 1   
    21   13   14 1   
    22   14   15 1   
    23   14   37 1   
    24   15   16 2   
    25   15   17 1   
    26   17   18 ar  
    27   17   23 ar  
    28   18   19 1   
    29   18   20 ar  
    30   20   21 ar  
    31   20   33 1   
    32   21   22 ar  
    33   21   34 1   
    34   22   23 ar  
    35   22   35 1   
    36   23   24 1   
    37   25   26 ar  
    38   25   31 1   
    39   26   28 1   
@<TRIPOS>SUBSTRUCTURE
     1 LZ9         1 TEMP              0 ****  ****    0 ROOT
