@<TRIPOS>MOLECULE
LZA
   43    45     1     0     0
SMALL
bcc


@<TRIPOS>ATOM
      1 C26        -0.1060   -0.3180   -0.1720 c3        1 LZA      0.169800
      2 C25         1.4220   -0.2190   -0.2420 c3        1 LZA     -0.102900
      3 C5          1.9820   -0.0310    1.1730 c3        1 LZA      0.124500
      4 N6          3.4870    0.0530    1.1370 n4        1 LZA     -0.665800
      5 C7          4.1110    0.7170    2.3470 c         1 LZA      0.506600
      6 O8          3.3540    1.1740    3.1990 o         1 LZA     -0.463100
      7 C9          5.5480    0.7390    2.3540 cc        1 LZA      0.114800
      8 N10         6.3710    0.2310    1.3530 nd        1 LZA     -0.501800
      9 N11         7.6010    0.4470    1.7350 na        1 LZA      0.093400
     10 C12         7.7080    1.0900    2.9690 cd        1 LZA     -0.180300
     11 C13         6.3740    1.3060    3.4190 cc        1 LZA      0.028300
     12 N14         5.9290    1.9100    4.5640 n         1 LZA     -0.443100
     13 C15         6.7930    2.3800    5.5710 c         1 LZA      0.701700
     14 O16         8.0210    2.2870    5.4340 o         1 LZA     -0.539100
     15 C17         6.1520    3.0030    6.7550 ca        1 LZA     -0.241600
     16 C18         5.0680    2.4100    7.4390 ca        1 LZA      0.196900
     17 F19         4.5260    1.2530    6.9870 f         1 LZA     -0.120900
     18 C20         4.5420    3.0010    8.6010 ca        1 LZA     -0.179500
     19 C21         5.0870    4.1900    9.0780 ca        1 LZA     -0.043000
     20 C22         6.1470    4.8030    8.4200 ca        1 LZA     -0.179500
     21 C23         6.6850    4.2130    7.2600 ca        1 LZA      0.196900
     22 F24         7.7090    4.8190    6.6230 f         1 LZA     -0.120900
     23 C4          1.5070   -1.1620    2.0910 c3        1 LZA     -0.102900
     24 N24        -0.5410   -1.3680    0.7230 n3        1 LZA     -0.833200
     25 C3         -0.0230   -1.2290    2.0670 c3        1 LZA      0.169800
     26 H261       -0.5100    0.6970    0.1190 h1        1 LZA      0.054950
     27 H262       -0.4920   -0.5620   -1.2020 h1        1 LZA      0.054950
     28 H251        1.6880    0.6530   -0.8940 hc        1 LZA      0.071450
     29 H252        1.8360   -1.1520   -0.7080 hc        1 LZA      0.071450
     30 H24        -1.5400   -1.4510    0.7260 hn        1 LZA      0.399800
     31 H5          1.6140    0.9560    1.5900 hx        1 LZA      0.117700
     32 H6          3.8720   -0.8960    1.0570 hn        1 LZA      0.463300
     33 H4C1        1.8390   -0.9680    3.1450 hc        1 LZA      0.071450
     34 H4C2        1.9300   -2.1450    1.7560 hc        1 LZA      0.071450
     35 H11         8.3660    0.1570    1.1550 hn        1 LZA      0.357700
     36 H12         8.6610    1.3490    3.4440 h4        1 LZA      0.246000
     37 H14         4.9420    1.9330    4.7230 hn        1 LZA      0.352500
     38 H20         3.7050    2.5130    9.1240 ha        1 LZA      0.171500
     39 H21         4.6740    4.6490    9.9920 ha        1 LZA      0.164000
     40 H22         6.5800    5.7440    8.7940 ha        1 LZA      0.171500
     41 H3C1       -0.4220   -0.3120    2.5940 h1        1 LZA      0.054950
     42 H3C2       -0.3460   -2.1340    2.6550 h1        1 LZA      0.054950
     43 H62         3.7720    0.5820    0.3040 hn        1 LZA      0.463300
@<TRIPOS>BOND
     1    1    2 1   
     2    1   24 1   
     3    1   26 1   
     4    1   27 1   
     5    2    3 1   
     6    2   28 1   
     7    2   29 1   
     8    3    4 1   
     9    3   23 1   
    10    3   31 1   
    11    4    5 1   
    12    4   32 1   
    13    4   43 1   
    14    5    6 2   
    15    5    7 1   
    16    7    8 2   
    17    7   11 1   
    18    8    9 1   
    19    9   10 1   
    20    9   35 1   
    21   10   11 2   
    22   10   36 1   
    23   11   12 1   
    24   12   13 1   
    25   12   37 1   
    26   13   14 2   
    27   13   15 1   
    28   15   16 ar  
    29   15   21 ar  
    30   16   17 1   
    31   16   18 ar  
    32   18   19 ar  
    33   18   38 1   
    34   19   20 ar  
    35   19   39 1   
    36   20   21 ar  
    37   20   40 1   
    38   21   22 1   
    39   23   25 1   
    40   23   33 1   
    41   23   34 1   
    42   24   25 1   
    43   24   30 1   
    44   25   41 1   
    45   25   42 1   
@<TRIPOS>SUBSTRUCTURE
     1 LZA         1 TEMP              0 ****  ****    0 ROOT
