@<TRIPOS>MOLECULE
LZA
   44    46     1     0     0
SMALL
bcc


@<TRIPOS>ATOM
      1 C26        -0.0860   -0.6450   -0.0900 c3        1 LZA      0.175800
      2 C25         1.4380   -0.4820   -0.1920 c3        1 LZA     -0.108900
      3 C5          1.9900   -0.0870    1.1830 c3        1 LZA      0.133500
      4 N6          3.5080    0.0320    1.1090 n4        1 LZA     -0.659800
      5 C7          4.1200    0.8640    2.1860 c         1 LZA      0.494600
      6 O8          3.4010    1.4520    2.9890 o         1 LZA     -0.439100
      7 C9          5.5800    0.9310    2.2100 cc        1 LZA      0.207800
      8 N10         6.4190    0.3020    1.3240 nd        1 LZA     -0.421800
      9 N11         7.6530    0.6000    1.6750 na        1 LZA      0.067400
     10 C12         7.7250    1.4280    2.7930 cd        1 LZA     -0.017300
     11 C13         6.3820    1.6740    3.1770 cc        1 LZA     -0.166700
     12 N14         5.8980    2.4640    4.2670 n4        1 LZA     -0.532200
     13 C15         6.6840    2.2990    5.5910 c         1 LZA      0.601700
     14 O16         7.7450    1.7090    5.4980 o         1 LZA     -0.396100
     15 C17         6.0720    2.9290    6.7520 ca        1 LZA     -0.306600
     16 C18         4.6830    2.8830    7.0510 ca        1 LZA      0.215900
     17 F19         3.8320    2.2860    6.1810 f         1 LZA     -0.113900
     18 C20         4.1840    3.4290    8.2370 ca        1 LZA     -0.158500
     19 C21         5.0590    4.0370    9.1440 ca        1 LZA      0.006000
     20 C22         6.4220    4.1060    8.8830 ca        1 LZA     -0.158500
     21 C23         6.9380    3.5510    7.6970 ca        1 LZA      0.215900
     22 F24         8.2570    3.6210    7.4410 f         1 LZA     -0.113900
     23 C4          1.5710   -1.0960    2.2550 c3        1 LZA     -0.108900
     24 N24        -0.4530   -1.5900    0.9380 n3        1 LZA     -0.840200
     25 C3          0.0420   -1.2330    2.2470 c3        1 LZA      0.175800
     26 H261       -0.5370    0.3790    0.0720 h1        1 LZA      0.063700
     27 H262       -0.4630   -1.0380   -1.0780 h1        1 LZA      0.063700
     28 H251        1.6570    0.3110   -0.9530 hc        1 LZA      0.074450
     29 H252        1.8900   -1.4490   -0.5370 hc        1 LZA      0.074450
     30 H24        -1.4380   -1.7750    0.9450 hn        1 LZA      0.417800
     31 H5          1.6020    0.9390    1.4630 hx        1 LZA      0.117700
     32 H6          3.9100   -0.9160    1.1530 hn        1 LZA      0.478300
     33 H4C1        1.8900   -0.7410    3.2690 hc        1 LZA      0.074450
     34 H4C2        2.0320   -2.1000    2.0590 hc        1 LZA      0.074450
     35 H11         8.4320    0.2280    1.1520 hn        1 LZA      0.392700
     36 H12         8.6760    1.7540    3.2390 h4        1 LZA      0.254000
     37 H14         5.9490    3.4610    4.0050 hn        1 LZA      0.482800
     38 H20         3.1030    3.3710    8.4530 ha        1 LZA      0.199500
     39 H21         4.6570    4.4650   10.0820 ha        1 LZA      0.195000
     40 H22         7.1160    4.5840    9.5980 ha        1 LZA      0.199500
     41 H3C1       -0.3990   -0.2670    2.6350 h1        1 LZA      0.063700
     42 H3C2       -0.2420   -2.0570    2.9630 h1        1 LZA      0.063700
     43 H62         3.7600    0.4430    0.1980 hn        1 LZA      0.478300
     44 H142        4.9020    2.2270    4.4420 hn        1 LZA      0.482800
@<TRIPOS>BOND
     1    1    2 1   
     2    1   24 1   
     3    1   26 1   
     4    1   27 1   
     5    2    3 1   
     6    2   28 1   
     7    2   29 1   
     8    3    4 1   
     9    3   23 1   
    10    3   31 1   
    11    4    5 1   
    12    4   32 1   
    13    4   43 1   
    14    5    6 2   
    15    5    7 1   
    16    7    8 2   
    17    7   11 1   
    18    8    9 1   
    19    9   10 1   
    20    9   35 1   
    21   10   11 2   
    22   10   36 1   
    23   11   12 1   
    24   12   13 1   
    25   12   37 1   
    26   12   44 1   
    27   13   14 2   
    28   13   15 1   
    29   15   16 ar  
    30   15   21 ar  
    31   16   17 1   
    32   16   18 ar  
    33   18   19 ar  
    34   18   38 1   
    35   19   20 ar  
    36   19   39 1   
    37   20   21 ar  
    38   20   40 1   
    39   21   22 1   
    40   23   25 1   
    41   23   33 1   
    42   23   34 1   
    43   24   25 1   
    44   24   30 1   
    45   25   41 1   
    46   25   42 1   
@<TRIPOS>SUBSTRUCTURE
     1 LZA         1 TEMP              0 ****  ****    0 ROOT
