@<TRIPOS>MOLECULE
LZA
   42    44     1     0     0
SMALL
bcc


@<TRIPOS>ATOM
      1 C26        31.6160    9.6700   67.0280 c3        1 LZA      0.164800
      2 C25        30.7950    8.3850   66.9560 c3        1 LZA     -0.092400
      3 C5         30.7640    7.8600   65.5100 c3        1 LZA      0.097700
      4 N6         29.9690    6.6590   65.3810 n         1 LZA     -0.551900
      5 C7         28.8520    6.5910   64.5820 c         1 LZA      0.613600
      6 O8         28.4620    7.5790   63.9170 o         1 LZA     -0.644100
      7 C9         28.1130    5.3110   64.5230 cc        1 LZA      0.215800
      8 N10        28.4210    4.1660   65.2100 nd        1 LZA     -0.489800
      9 N11        27.5180    3.2600   64.8800 na        1 LZA      0.008400
     10 C12        26.5670    3.7320   63.9700 cd        1 LZA     -0.180300
     11 C13        26.9200    5.0770   63.7070 cc        1 LZA     -0.050700
     12 N14        26.3030    5.9990   62.8860 n         1 LZA     -0.426100
     13 C15        25.1870    5.7140   62.1150 c         1 LZA      0.686700
     14 O16        24.6410    4.5950   62.1210 o         1 LZA     -0.583100
     15 C17        24.6570    6.8400   61.2910 ca        1 LZA     -0.218600
     16 C18        25.4760    7.5510   60.3890 ca        1 LZA      0.193400
     17 F19        26.7900    7.2510   60.2760 f         1 LZA     -0.118400
     18 C20        24.9380    8.5760   59.5880 ca        1 LZA     -0.190000
     19 C21        23.5880    8.8950   59.6920 ca        1 LZA     -0.061000
     20 C22        22.7600    8.2140   60.5770 ca        1 LZA     -0.190000
     21 C23        23.2910    7.1840   61.3780 ca        1 LZA      0.193400
     22 F24        22.4780    6.5350   62.2390 f         1 LZA     -0.118400
     23 C4         32.2130    7.6520   65.0380 c3        1 LZA     -0.092400
     24 N24        32.9560    9.5220   66.4970 n3        1 LZA     -0.822200
     25 C3         32.9950    8.9580   65.1630 c3        1 LZA      0.164800
     26 H261       31.0370   10.4850   66.4980 h1        1 LZA      0.030700
     27 H262       31.7160    9.9740   68.1080 h1        1 LZA      0.030700
     28 H251       31.2360    7.6110   67.6360 hc        1 LZA      0.053700
     29 H252       29.7560    8.6070   67.3110 hc        1 LZA      0.053700
     30 H24        33.4280   10.4080   66.5080 hn        1 LZA      0.363800
     31 H5         30.2910    8.6570   64.8570 h1        1 LZA      0.088700
     32 H6         30.2640    5.8670   65.9010 hn        1 LZA      0.325500
     33 H4C1       32.7060    6.8530   65.6490 hc        1 LZA      0.053700
     34 H4C2       32.2290    7.3300   63.9660 hc        1 LZA      0.053700
     35 H11        27.5570    2.3480   65.2720 hn        1 LZA      0.329700
     36 H12        25.7440    3.1300   63.5810 h4        1 LZA      0.216000
     37 H14        26.7460    6.8960   62.8140 hn        1 LZA      0.365500
     38 H20        25.5950    9.1140   58.8890 ha        1 LZA      0.159000
     39 H21        23.1700    9.6980   59.0640 ha        1 LZA      0.148000
     40 H22        21.6930    8.4650   60.6620 ha        1 LZA      0.159000
     41 H3C1       34.0760    8.7560   64.9170 h1        1 LZA      0.030700
     42 H3C2       32.5990    9.6790   64.3860 h1        1 LZA      0.030700
@<TRIPOS>BOND
     1    1    2 1   
     2    1   24 1   
     3    1   26 1   
     4    1   27 1   
     5    2    3 1   
     6    2   28 1   
     7    2   29 1   
     8    3    4 1   
     9    3   23 1   
    10    3   31 1   
    11    4    5 1   
    12    4   32 1   
    13    5    6 2   
    14    5    7 1   
    15    7    8 2   
    16    7   11 1   
    17    8    9 1   
    18    9   10 1   
    19    9   35 1   
    20   10   11 2   
    21   10   36 1   
    22   11   12 1   
    23   12   13 1   
    24   12   37 1   
    25   13   14 2   
    26   13   15 1   
    27   15   16 ar  
    28   15   21 ar  
    29   16   17 1   
    30   16   18 ar  
    31   18   19 ar  
    32   18   38 1   
    33   19   20 ar  
    34   19   39 1   
    35   20   21 ar  
    36   20   40 1   
    37   21   22 1   
    38   23   25 1   
    39   23   33 1   
    40   23   34 1   
    41   24   25 1   
    42   24   30 1   
    43   25   41 1   
    44   25   42 1   
@<TRIPOS>SUBSTRUCTURE
     1 LZA         1 TEMP              0 ****  ****    0 ROOT
