@<TRIPOS>MOLECULE
LZA
   43    45     1     0     0
SMALL
bcc


@<TRIPOS>ATOM
      1 C26        -0.1030   -0.3220   -0.1740 c3        1 LZA      0.169800
      2 C25         1.4250   -0.2220   -0.2440 c3        1 LZA     -0.102900
      3 C5          1.9840   -0.0320    1.1710 c3        1 LZA      0.124500
      4 N6          3.4890    0.0520    1.1370 ny        1 LZA     -0.665800
      5 C7          4.1120    0.7170    2.3470 c         1 LZA      0.506600
      6 O8          3.3540    1.1760    3.1970 o         1 LZA     -0.463100
      7 C9          5.5490    0.7380    2.3550 cc        1 LZA      0.114800
      8 N10         6.3730    0.2280    1.3560 nd        1 LZA     -0.501800
      9 N11         7.6020    0.4440    1.7390 na        1 LZA      0.093400
     10 C12         7.7090    1.0880    2.9730 cd        1 LZA     -0.180300
     11 C13         6.3740    1.3050    3.4210 cc        1 LZA      0.028300
     12 N14         5.9280    1.9100    4.5660 ns        1 LZA     -0.443100
     13 C15         6.7910    2.3800    5.5730 c         1 LZA      0.701700
     14 O16         8.0190    2.2860    5.4380 o         1 LZA     -0.539100
     15 C17         6.1490    3.0060    6.7560 ca        1 LZA     -0.241600
     16 C18         5.0630    2.4140    7.4390 ca        1 LZA      0.196900
     17 F19         4.5210    1.2580    6.9870 f         1 LZA     -0.120900
     18 C20         4.5360    3.0060    8.5990 ca        1 LZA     -0.179500
     19 C21         5.0830    4.1950    9.0760 ca        1 LZA     -0.043000
     20 C22         6.1440    4.8060    8.4190 ca        1 LZA     -0.179500
     21 C23         6.6830    4.2150    7.2600 ca        1 LZA      0.196900
     22 F24         7.7090    4.8190    6.6250 f         1 LZA     -0.120900
     23 C4          1.5090   -1.1620    2.0910 c3        1 LZA     -0.102900
     24 N24        -0.5390   -1.3700    0.7220 n7        1 LZA     -0.833200
     25 C3         -0.0210   -1.2290    2.0660 c3        1 LZA      0.169800
     26 H261       -0.4880   -0.5670   -1.2050 h1        1 LZA      0.054950
     27 H262       -0.5070    0.6940    0.1150 h1        1 LZA      0.054950
     28 H251        1.6920    0.6490   -0.8960 hc        1 LZA      0.071450
     29 H252        1.8390   -1.1550   -0.7070 hc        1 LZA      0.071450
     30 H24        -1.5380   -1.4530    0.7240 hn        1 LZA      0.399800
     31 H5          1.6150    0.9550    1.5870 hx        1 LZA      0.117700
     32 H6          3.8740   -0.8970    1.0580 hn        1 LZA      0.463300
     33 H4C1        1.8390   -0.9670    3.1450 hc        1 LZA      0.071450
     34 H4C2        1.9320   -2.1460    1.7570 hc        1 LZA      0.071450
     35 H11         8.3680    0.1530    1.1610 hn        1 LZA      0.357700
     36 H12         8.6610    1.3470    3.4490 h4        1 LZA      0.246000
     37 H14         4.9410    1.9350    4.7220 hn        1 LZA      0.352500
     38 H20         3.6970    2.5200    9.1210 ha        1 LZA      0.171500
     39 H21         4.6680    4.6560    9.9890 ha        1 LZA      0.164000
     40 H22         6.5780    5.7470    8.7940 ha        1 LZA      0.171500
     41 H3C1       -0.4210   -0.3120    2.5910 h1        1 LZA      0.054950
     42 H3C2       -0.3450   -2.1340    2.6550 h1        1 LZA      0.054950
     43 H62         3.7740    0.5800    0.3030 hn        1 LZA      0.463300
@<TRIPOS>BOND
     1    1    2 1   
     2    1   24 1   
     3    1   26 1   
     4    1   27 1   
     5    2    3 1   
     6    2   28 1   
     7    2   29 1   
     8    3    4 1   
     9    3   23 1   
    10    3   31 1   
    11    4    5 1   
    12    4   32 1   
    13    4   43 1   
    14    5    6 2   
    15    5    7 1   
    16    7    8 2   
    17    7   11 1   
    18    8    9 1   
    19    9   10 1   
    20    9   35 1   
    21   10   11 2   
    22   10   36 1   
    23   11   12 1   
    24   12   13 1   
    25   12   37 1   
    26   13   14 2   
    27   13   15 1   
    28   15   16 ar  
    29   15   21 ar  
    30   16   17 1   
    31   16   18 ar  
    32   18   19 ar  
    33   18   38 1   
    34   19   20 ar  
    35   19   39 1   
    36   20   21 ar  
    37   20   40 1   
    38   21   22 1   
    39   23   25 1   
    40   23   33 1   
    41   23   34 1   
    42   24   25 1   
    43   24   30 1   
    44   25   41 1   
    45   25   42 1   
@<TRIPOS>SUBSTRUCTURE
     1 LZA         1 TEMP              0 ****  ****    0 ROOT
