@<TRIPOS>MOLECULE
LZA
   42    39     1     0     0
SMALL
bcc


@<TRIPOS>ATOM
      1 C26         2.4610    1.0680   -2.9660 c3        1 LZA     -0.075000
      2 C25         1.1770    1.7760   -2.5220 c3        1 LZA     -0.172000
      3 C5         -0.0520    1.1320   -3.0840 c3        1 LZA      0.022000
      4 N6         -0.2300   -0.1630   -2.4670 n         1 LZA     -0.362000
      5 C7         -1.2520   -0.3490   -1.4570 c2        1 LZA      0.396000
      6 O8         -1.9490    0.5720   -1.1340 o         1 LZA     -0.404000
      7 C9         -1.3800   -1.6520   -0.7670 c2        1 LZA     -0.201000
      8 N10        -1.8260   -2.8040   -1.3230 n2        1 LZA     -0.059000
      9 N11        -1.9040   -3.7530   -0.3330 n2        1 LZA     -0.137000
     10 C12        -1.5040   -3.1820    0.8300 c1        1 LZA     -0.156000
     11 C13        -1.1770   -1.8780    0.5710 c1        1 LZA      0.022000
     12 N14        -0.8750   -0.8190    1.6170 n2        1 LZA     -0.280000
     13 C15        -0.6720   -1.2160    3.0370 c2        1 LZA      0.360000
     14 O16        -0.7480   -2.4010    3.3560 o         1 LZA     -0.344000
     15 C17        -0.5340   -0.0940    4.1710 c2        1 LZA     -0.198000
     16 C18        -0.7500   -0.4320    5.5050 c2        1 LZA      0.169000
     17 F19        -1.2180   -1.6570    5.8230 f         1 LZA     -0.079000
     18 C20        -0.4580    0.4960    6.5220 c1        1 LZA     -0.192000
     19 C21         0.0460    1.7490    6.1960 c1        1 LZA     -0.124500
     20 C22         0.2630    2.0900    4.8560 c1        1 LZA     -0.124500
     21 C23        -0.0260    1.1710    3.8440 c1        1 LZA      0.148000
     22 F24         0.2820    1.4610    2.5680 f         1 LZA     -0.088000
     23 C4          0.0270    0.9580   -4.5700 c3        1 LZA     -0.172000
     24 N24         2.5320    0.8940   -4.4420 n3        1 LZA     -0.303000
     25 C3          1.3150    0.2550   -5.0080 c3        1 LZA     -0.075000
     26 H261        3.2500    1.6050   -2.6650 h1        1 LZA      0.067000
     27 H262        2.4990    0.1850   -2.5420 h1        1 LZA      0.067000
     28 H251        1.2110    2.7090   -2.8230 hc        1 LZA      0.098000
     29 H252        1.1260    1.7590   -1.5230 hc        1 LZA      0.098000
     30 H24         3.2710    0.3930   -4.6570 hn        1 LZA      0.159000
     31 H5         -0.8370    1.6990   -2.8710 h1        1 LZA      0.130000
     32 H6          0.2370   -0.8820   -2.7790 hn        1 LZA      0.237000
     33 H4C1       -0.7540    0.4160   -4.8720 hc        1 LZA      0.098000
     34 H4C2       -0.0140    1.8330   -4.9920 hc        1 LZA      0.098000
     35 H11        -2.1750   -4.6130   -0.4390 DU        1 LZA      0.248000
     36 H12        -1.4570   -3.6230    1.6980 DU        1 LZA      0.248000
     37 H14        -0.8260    0.0560    1.3770 hn        1 LZA      0.279000
     38 H20        -0.6080    0.2590    7.4550 ha        1 LZA      0.159000
     39 H21         0.2480    2.3960    6.9060 ha        1 LZA      0.154000
     40 H22         0.6250    2.9900    4.6220 ha        1 LZA      0.154000
     41 H3C1        1.3720    0.2790   -6.0030 h1        1 LZA      0.067000
     42 H3C2        1.2820   -0.6810   -4.7150 h1        1 LZA      0.067000
@<TRIPOS>BOND
     1    1    2 1   
     2    1   24 1   
     3    1   26 1   
     4    1   27 1   
     5    2    3 1   
     6    2   28 1   
     7    2   29 1   
     8    3    4 1   
     9    3   23 1   
    10    3   31 1   
    11    4    5 1   
    12    4   32 1   
    13    5    6 1   
    14    5    7 1   
    15    7    8 1   
    16    7   11 1   
    17    8    9 1   
    18    9   10 1   
    19   10   11 1   
    20   12   13 1   
    21   12   37 1   
    22   13   14 1   
    23   13   15 1   
    24   15   16 1   
    25   15   21 1   
    26   16   17 1   
    27   16   18 1   
    28   18   38 1   
    29   19   20 1   
    30   19   39 1   
    31   20   40 1   
    32   21   22 1   
    33   23   25 1   
    34   23   33 1   
    35   23   34 1   
    36   24   25 1   
    37   24   30 1   
    38   25   41 1   
    39   25   42 1   
@<TRIPOS>SUBSTRUCTURE
     1 LZA         1 TEMP              0 ****  ****    0 ROOT
