@<TRIPOS>MOLECULE
LZB
   26    29     1     0     0
SMALL
bcc


@<TRIPOS>ATOM
      1 C1          0.0000    0.0000    0.0000 c3        1 LZB     -0.058500
      2 C2          1.5200    0.0000    0.0000 c3        1 LZB     -0.754000
      3 C3          2.0910    0.0000    1.4160 c3        1 LZB     -0.058500
      4 N4          2.0260   -1.1540   -0.7400 ny        1 LZB      0.555000
      5 C5          3.3570   -1.2140   -1.1880 c3        1 LZB     -0.275000
      6 C6          4.2180   -0.1260   -1.0720 c2        1 LZB     -0.167000
      7 C7          5.5250   -0.2860   -1.5210 c2        1 LZB     -0.081000
      8 Cl8         6.6410    1.0290   -1.4140 cl        1 LZB      0.131000
      9 N9          6.0210   -1.4110   -2.0420 n2        1 LZB     -0.000000
     10 C10         5.1840   -2.4510   -2.1690 c2        1 LZB     -0.125000
     11 C11         5.3680   -3.7180   -2.6750 c2        1 LZB     -0.094000
     12 C12         6.5890   -4.2120   -3.2100 c1        1 LZB     -0.055000
     13 N13         7.5750   -4.5910   -3.6440 n1        1 LZB     -0.050000
     14 C14         4.1620   -4.3830   -2.5120 c2        1 LZB      0.011000
     15 N15         3.2250   -3.5670   -1.9360 n2        1 LZB     -0.316000
     16 N16         3.8680   -2.3750   -1.7600 na        1 LZB      0.429000
     17 H1C1       -0.3840   -0.7280    0.7040 hc        1 LZB      0.050500
     18 H1C2       -0.1020    1.0720   -0.1140 hc        1 LZB      0.050500
     19 H1C3       -0.0440   -0.3870   -1.0110 hc        1 LZB      0.050500
     20 H2          1.7400   -1.0310   -0.2490 DU        1 LZB      0.140000
     21 H3C1        2.1200    1.0610    1.6340 hc        1 LZB      0.050500
     22 H3C2        2.9620   -0.6380    1.3340 hc        1 LZB      0.050500
     23 H3C3        1.4810   -0.4480    2.1910 hc        1 LZB      0.050500
     24 H4          2.2930   -1.1550   -1.7040 DU        1 LZB      0.124000
     25 H6          3.7620    0.7960   -0.7320 ha        1 LZB      0.192000
     26 H14         3.9250   -5.4360   -2.6040 h4        1 LZB      0.149000
@<TRIPOS>BOND
     1    1    2 1   
     2    1   17 1   
     3    1   18 1   
     4    1   19 1   
     5    2    3 1   
     6    2    4 1   
     7    2   20 1   
     8    3   21 1   
     9    3   22 1   
    10    3   23 1   
    11    4    5 1   
    12    4   20 1   
    13    4   24 1   
    14    5    6 1   
    15    5   16 1   
    16    5   24 1   
    17    6    7 1   
    18    6   25 1   
    19    7    8 1   
    20    7    9 1   
    21    9   10 1   
    22   10   11 1   
    23   10   16 1   
    24   11   12 1   
    25   11   14 1   
    26   12   13 1   
    27   14   15 1   
    28   14   26 1   
    29   15   16 1   
@<TRIPOS>SUBSTRUCTURE
     1 LZB         1 TEMP              0 ****  ****    0 ROOT
