@<TRIPOS>MOLECULE
LZB
   27    27     1     0     0
SMALL
bcc


@<TRIPOS>ATOM
      1 C1          0.1990   -0.4470   -0.3690 c3        1 LZB     -0.099600
      2 C2          1.7020   -0.1870   -0.2310 c3        1 LZB      0.113500
      3 C3          2.0350    0.0350    1.2490 c3        1 LZB     -0.099600
      4 N4          2.4520   -1.2750   -0.8230 n2        1 LZB     -0.445900
      5 C5          3.7090   -1.2190   -1.1250 cc        1 LZB      0.479100
      6 C6          4.6620   -0.1040   -0.9620 cc        1 LZB     -0.183600
      7 C7          5.9850   -0.1830   -1.3150 cd        1 LZB      0.173000
      8 CL8         7.0190    1.1360   -1.0900 cl        1 LZB      0.063600
      9 N9          6.5520   -1.3400   -1.8750 nd        1 LZB     -0.059600
     10 C10         5.7720   -2.3610   -2.0610 cc        1 LZB     -0.031300
     11 C11         6.0220   -3.7190   -2.6250 cc        1 LZB      0.072700
     12 C12         7.2660   -4.1550   -3.0890 cg        1 LZB      0.191800
     13 N13         8.3030   -4.5180   -3.4760 n1        1 LZB     -0.180800
     14 C14         4.8000   -4.3780   -2.5730 cd        1 LZB      0.326200
     15 N15         3.7890   -3.5410   -2.0160 nd        1 LZB     -0.254800
     16 N16         4.3110   -2.4140   -1.7260 na        1 LZB      0.130300
     17 H1C1       -0.1070   -1.3590    0.1980 hc        1 LZB      0.067367
     18 H1C2       -0.3450    0.4360    0.0470 hc        1 LZB      0.067367
     19 H1C3       -0.0940   -0.5750   -1.4390 hc        1 LZB      0.067367
     20 H2          1.9430    0.7730   -0.7910 h1        1 LZB      0.074700
     21 H3C1        1.4390    0.9070    1.6140 hc        1 LZB      0.067367
     22 H3C2        3.1200    0.2560    1.3920 hc        1 LZB      0.067367
     23 H3C3        1.7600   -0.8610    1.8580 hc        1 LZB      0.067367
     24 H4         -3.0460   -0.8490   -0.5930 ha        1 LZB      0.000000
     25 H6          4.2420    0.8240   -0.5280 ha        1 LZB      0.210000
     26 H14         4.5290   -5.3980   -2.8860 h4        1 LZB      0.117100
     27 H42        -2.3750   -0.7710   -0.5530 ha        1 LZB      0.000000
@<TRIPOS>BOND
     1    1    2 1   
     2    1   17 1   
     3    1   18 1   
     4    1   19 1   
     5    2    3 1   
     6    2    4 1   
     7    2   20 1   
     8    3   21 1   
     9    3   22 1   
    10    3   23 1   
    11    4    5 2   
    12    5    6 1   
    13    5   16 1   
    14    6    7 2   
    15    6   25 1   
    16    7    8 1   
    17    7    9 1   
    18    9   10 2   
    19   10   11 1   
    20   10   16 1   
    21   11   12 1   
    22   11   14 2   
    23   12   13 3   
    24   14   15 1   
    25   14   26 1   
    26   15   16 2   
    27   24   27 1   
@<TRIPOS>SUBSTRUCTURE
     1 LZB         1 TEMP              0 ****  ****    0 ROOT
