@<TRIPOS>MOLECULE
LZB
   26    22     1     0     0
SMALL
bcc


@<TRIPOS>ATOM
      1 C1         -2.1970    1.3160    1.9030 c3        1 LZB     -0.236000
      2 C2         -0.6980    1.1130    1.8810 c3        1 LZB      0.019000
      3 C3         -0.2030    0.8530    3.2870 c3        1 LZB     -0.236000
      4 N4         -0.3830    0.0010    1.0550 n3        1 LZB     -0.299000
      5 C5          0.3420    0.1940   -0.1490 c2        1 LZB      0.268000
      6 C6          1.1510    1.2350   -0.5140 c2        1 LZB     -0.336000
      7 C7          1.8330    1.1880   -1.7010 c1        1 LZB      0.082000
      8 CL8         2.9950    2.1380   -2.5890 cl        1 LZB      0.041000
      9 N9          1.7070    0.1200   -2.5070 n2        1 LZB     -0.138000
     10 C10         0.8900   -0.9310   -2.1390 c1        1 LZB      0.107000
     11 C11         0.5770   -2.1240   -2.7650 c1        1 LZB     -0.144000
     12 C12         1.1840   -2.4840   -4.1040 c1        1 LZB     -0.045000
     13 N13         1.6420   -2.7540   -5.1130 n1        1 LZB     -0.047000
     14 C14        -0.2990   -2.8100   -1.9590 c1        1 LZB     -0.067000
     15 N15        -0.5260   -2.0570   -0.8520 n2        1 LZB     -0.112000
     16 N16         0.2160   -0.8860   -0.9660 n2        1 LZB     -0.123000
     17 H1C1       -2.5620    1.1520    1.0090 hc        1 LZB      0.090667
     18 H1C2       -2.3980    2.2360    2.1750 hc        1 LZB      0.090667
     19 H1C3       -2.6020    0.6900    2.5410 hc        1 LZB      0.090667
     20 H2         -0.2650    1.9140    1.5270 h1        1 LZB      0.106000
     21 H3C1       -0.9070    1.0830    3.9290 hc        1 LZB      0.090667
     22 H3C2        0.0280   -0.0950    3.3820 hc        1 LZB      0.090667
     23 H3C3        0.5900    1.4010    3.4610 hc        1 LZB      0.090667
     24 H4         -0.6360   -0.8390    1.3050 hn        1 LZB      0.247000
     25 H6          1.2220    2.0220    0.0600 ha        1 LZB      0.174000
     26 H14        -0.7030   -3.6760   -2.1570 DU        1 LZB      0.195000
@<TRIPOS>BOND
     1    1    2 1   
     2    1   17 1   
     3    1   18 1   
     4    1   19 1   
     5    2    3 1   
     6    2    4 1   
     7    2   20 1   
     8    3   21 1   
     9    3   22 1   
    10    3   23 1   
    11    4    5 1   
    12    4   24 1   
    13    5    6 1   
    14    5   16 1   
    15    6    7 1   
    16    6   25 1   
    17    7    9 1   
    18    9   10 1   
    19   11   14 1   
    20   12   13 1   
    21   14   15 1   
    22   15   16 1   
@<TRIPOS>SUBSTRUCTURE
     1 LZB         1 TEMP              0 ****  ****    0 ROOT
