@<TRIPOS>MOLECULE
LZB
   26    27     1     0     0
SMALL
bcc


@<TRIPOS>ATOM
      1 C1         31.5630    8.0360   66.4820 c3        1 LZB     -0.118100
      2 C2         30.6260    8.1190   65.2750 c3        1 LZB      0.216500
      3 C3         31.4610    8.3510   64.0140 c3        1 LZB     -0.118100
      4 N4         29.7670    6.9470   65.2100 nh        1 LZB     -0.743600
      5 C5         28.7090    6.8840   64.3230 cc        1 LZB      0.325300
      6 C6         28.1510    8.0120   63.6880 cd        1 LZB     -0.401300
      7 C7         26.9940    7.8710   62.8650 cd        1 LZB      0.576300
      8 CL8        26.3900    9.3020   62.1510 cl        1 LZB     -0.125000
      9 N9         26.3660    6.7180   62.6200 nc        1 LZB     -0.664000
     10 C10        26.9040    5.6100   63.2190 cc        1 LZB      0.458500
     11 C11        26.5260    4.2370   63.1970 cd        1 LZB     -0.197300
     12 C12        25.4500    3.6650   62.5180 ch        1 LZB      0.247500
     13 N13        24.5530    3.1820   61.9540 n1        1 LZB     -0.372800
     14 C14        27.4960    3.5610   64.0250 cd        1 LZB      0.436500
     15 N15        28.4090    4.4230   64.5320 nc        1 LZB     -0.579100
     16 N16        28.0810    5.6470   64.0650 na        1 LZB     -0.007800
     17 H1C1       32.2790    7.1860   66.3770 hc        1 LZB      0.051367
     18 H1C2       32.1450    8.9870   66.5430 hc        1 LZB      0.051367
     19 H1C3       30.9880    7.9080   67.4300 hc        1 LZB      0.051367
     20 H2         29.9500    9.0160   65.4240 h1        1 LZB      0.066700
     21 H3C1       30.8070    8.4380   63.1130 hc        1 LZB      0.051367
     22 H3C2       32.0360    9.3000   64.1300 hc        1 LZB      0.051367
     23 H3C3       32.1820    7.5140   63.8540 hc        1 LZB      0.051367
     24 H4         30.1840    6.0920   65.5140 hn        1 LZB      0.451800
     25 H6         28.5950    9.0050   63.8280 ha        1 LZB      0.174000
     26 H14        27.5330    2.4910   64.2480 h4        1 LZB      0.065800
@<TRIPOS>BOND
     1    1    2 1   
     2    1   17 1   
     3    1   18 1   
     4    1   19 1   
     5    2    3 1   
     6    2    4 1   
     7    2   20 1   
     8    3   21 1   
     9    3   22 1   
    10    3   23 1   
    11    4    5 1   
    12    4   24 1   
    13    5    6 2   
    14    5   16 1   
    15    6    7 1   
    16    6   25 1   
    17    7    8 1   
    18    7    9 2   
    19    9   10 1   
    20   10   11 2   
    21   10   16 1   
    22   11   12 1   
    23   11   14 1   
    24   12   13 3   
    25   14   15 2   
    26   14   26 1   
    27   15   16 1   
@<TRIPOS>SUBSTRUCTURE
     1 LZB         1 TEMP              0 ****  ****    0 ROOT
