@<TRIPOS>MOLECULE
LZB
   26    27     1     0     0
SMALL
bcc


@<TRIPOS>ATOM
      1 C1         -0.0120   -0.0440    0.0210 c3        1 LZB     -0.118100
      2 C2          1.5180   -0.0260   -0.0150 c3        1 LZB      0.216500
      3 C3          2.0470   -0.0370    1.4210 c3        1 LZB     -0.118100
      4 N4          2.0250   -1.1110   -0.8410 nh        1 LZB     -0.743600
      5 C5          3.3620   -1.1860   -1.1810 cc        1 LZB      0.325300
      6 C6          4.2570   -0.1000   -1.0870 cd        1 LZB     -0.401300
      7 C7          5.5970   -0.2350   -1.5540 cd        1 LZB      0.576300
      8 CL8         6.5960    1.1440   -1.4060 cl        1 LZB     -0.125000
      9 N9          6.1130   -1.3460   -2.0880 nc        1 LZB     -0.664000
     10 C10         5.2610   -2.4140   -2.1740 cc        1 LZB      0.458500
     11 C11         5.4390   -3.7370   -2.6690 cd        1 LZB     -0.197300
     12 C12         6.5960   -4.2870   -3.2210 ch        1 LZB      0.247500
     13 N13         7.5590   -4.7520   -3.6830 n1        1 LZB     -0.372800
     14 C14         4.1660   -4.3910   -2.4780 cd        1 LZB      0.436500
     15 N15         3.2570   -3.5620   -1.9130 nc        1 LZB     -0.579100
     16 N16         3.8850   -2.3810   -1.7180 na        1 LZB     -0.007800
     17 H1C1       -0.4390    0.0050   -1.0090 hc        1 LZB      0.051367
     18 H1C2       -0.3930   -0.9640    0.5260 hc        1 LZB      0.051367
     19 H1C3       -0.3620    0.8480    0.5950 hc        1 LZB      0.051367
     20 H2          1.8410    0.9420   -0.5060 h1        1 LZB      0.066700
     21 H3C1        1.6570    0.8600    1.9580 hc        1 LZB      0.051367
     22 H3C2        3.1630   -0.0040    1.4350 hc        1 LZB      0.051367
     23 H3C3        1.7090   -0.9520    1.9650 hc        1 LZB      0.051367
     24 H4          1.4930   -1.9560   -0.8130 hn        1 LZB      0.451800
     25 H6          3.9270    0.8570   -0.6630 ha        1 LZB      0.174000
     26 H14         3.9150   -5.4230   -2.7390 h4        1 LZB      0.065800
@<TRIPOS>BOND
     1    1    2 1   
     2    1   17 1   
     3    1   18 1   
     4    1   19 1   
     5    2    3 1   
     6    2    4 1   
     7    2   20 1   
     8    3   21 1   
     9    3   22 1   
    10    3   23 1   
    11    4    5 1   
    12    4   24 1   
    13    5    6 2   
    14    5   16 1   
    15    6    7 1   
    16    6   25 1   
    17    7    8 1   
    18    7    9 2   
    19    9   10 1   
    20   10   11 2   
    21   10   16 1   
    22   11   12 1   
    23   11   14 1   
    24   12   13 3   
    25   14   15 2   
    26   14   26 1   
    27   15   16 1   
@<TRIPOS>SUBSTRUCTURE
     1 LZB         1 TEMP              0 ****  ****    0 ROOT
