@<TRIPOS>MOLECULE
LZC
   46    43     1     0     0
SMALL
bcc


@<TRIPOS>ATOM
      1 C1         -3.9130   -2.9480    2.8860 c3        1 LZC     -0.236000
      2 C2         -3.1790   -1.7360    2.3550 c3        1 LZC      0.017000
      3 C3         -3.7740   -0.4830    2.9570 c3        1 LZC     -0.236000
      4 N4         -1.8060   -1.8230    2.7050 n3        1 LZC     -0.298000
      5 C5         -0.8080   -1.7050    1.7020 c2        1 LZC      0.274000
      6 C6         -0.2810   -0.4780    1.4060 c1        1 LZC     -0.376000
      7 C7          0.7510   -0.3740    0.5090 c1        1 LZC      0.211000
      8 N8          1.3800    0.8810    0.2960 n3        1 LZC     -0.281000
      9 C9          1.2940    1.5180   -0.9840 c3        1 LZC      0.011000
     10 C10         0.5960    2.8570   -0.8200 c3        1 LZC     -0.169500
     11 C11         0.6210    3.6810   -2.0880 c3        1 LZC     -0.173000
     12 C12         2.0210    3.8230   -2.6620 c3        1 LZC     -0.036000
     13 N13         1.9350    4.4600   -3.9430 n3        1 LZC     -0.334000
     14 C14         2.7190    2.4840   -2.8260 c3        1 LZC     -0.173000
     15 C15         2.6940    1.6590   -1.5580 c3        1 LZC     -0.169500
     16 N16         1.2420   -1.4780   -0.0790 n1        1 LZC     -0.223000
     17 C17         0.7090   -2.7170    0.2200 c1        1 LZC      0.147000
     18 C18         1.0590   -3.9960   -0.1780 c1        1 LZC     -0.187000
     19 C19         1.9930   -4.7650   -1.0850 c1        1 LZC     -0.033000
     20 N20         2.6970   -5.3460   -1.7690 n1        1 LZC     -0.073000
     21 C21         0.2410   -4.8830    0.4770 c1        1 LZC     -0.060000
     22 N22        -0.6030   -4.1710    1.2670 n2        1 LZC     -0.124000
     23 N23        -0.3090   -2.8210    1.1050 n3        1 LZC     -0.141000
     24 H1C1       -4.5640   -2.6660    3.5610 hc        1 LZC      0.088833
     25 H1C2       -4.3790   -3.3960    2.1500 hc        1 LZC      0.088833
     26 H1C3       -3.2700   -3.5680    3.2910 hc        1 LZC      0.088833
     27 H2         -3.2650   -1.7030    1.3800 h1        1 LZC      0.103000
     28 H3C1       -3.2540    0.2960    2.6690 hc        1 LZC      0.088833
     29 H3C2       -4.7020   -0.3850    2.6570 hc        1 LZC      0.088833
     30 H3C3       -3.7510   -0.5480    3.9350 hc        1 LZC      0.088833
     31 H4         -1.5650   -1.9680    3.5730 hn        1 LZC      0.242000
     32 H6         -0.6540    0.3250    1.8150 ha        1 LZC      0.157000
     33 H8          1.8560    1.2720    0.9680 hn        1 LZC      0.212000
     34 H9          0.7610    0.9550   -1.5830 h1        1 LZC      0.134000
     35 H101       -0.3340    2.6990   -0.5640 hc        1 LZC      0.087750
     36 H102        1.0410    3.3600   -0.1060 hc        1 LZC      0.087750
     37 H151        3.2670    2.0870   -0.8920 hc        1 LZC      0.087750
     38 H152        3.0470    0.7690   -1.7530 hc        1 LZC      0.087750
     39 H111        0.0470    3.2530   -2.7560 hc        1 LZC      0.089250
     40 H112        0.2680    4.5730   -1.8930 hc        1 LZC      0.089250
     41 H12         2.5540    4.3860   -2.0620 h1        1 LZC      0.096000
     42 H131        1.0550    4.5790   -4.1660 hn        1 LZC      0.142000
     43 H132        2.3540    5.2750   -3.9080 hn        1 LZC      0.142000
     44 H141        2.2750    1.9810   -3.5390 hc        1 LZC      0.089250
     45 H142        3.6500    2.6410   -3.0830 hc        1 LZC      0.089250
     46 H21         0.2850   -5.8570    0.4170 DU        1 LZC      0.190000
@<TRIPOS>BOND
     1    1    2 1   
     2    1   24 1   
     3    1   25 1   
     4    1   26 1   
     5    2    3 1   
     6    2    4 1   
     7    2   27 1   
     8    3   28 1   
     9    3   29 1   
    10    3   30 1   
    11    4    5 1   
    12    4   31 1   
    13    5    6 1   
    14    5   23 1   
    15    6   32 1   
    16    7    8 1   
    17    7   16 1   
    18    8    9 1   
    19    8   33 1   
    20    9   10 1   
    21    9   15 1   
    22    9   34 1   
    23   10   11 1   
    24   10   35 1   
    25   10   36 1   
    26   11   12 1   
    27   11   39 1   
    28   11   40 1   
    29   12   13 1   
    30   12   14 1   
    31   12   41 1   
    32   13   42 1   
    33   13   43 1   
    34   14   15 1   
    35   14   44 1   
    36   14   45 1   
    37   15   37 1   
    38   15   38 1   
    39   17   23 1   
    40   18   21 1   
    41   19   20 1   
    42   21   22 1   
    43   22   23 1   
@<TRIPOS>SUBSTRUCTURE
     1 LZC         1 TEMP              0 ****  ****    0 ROOT
