@<TRIPOS>MOLECULE
LZC
   47    48     1     0     0
SMALL
bcc


@<TRIPOS>ATOM
      1 C1         -0.4520    0.4110   -0.0780 c3        1 LZC     -0.277500
      2 C2          0.8890    0.1760    0.3910 c1        1 LZC     -0.089000
      3 C3          1.4740    0.9320    1.4710 c3        1 LZC     -0.277500
      4 N4          2.2560   -1.9160   -0.8160 nv        1 LZC     -0.385000
      5 C5          3.5110   -1.8420   -1.3220 c2        1 LZC      0.311000
      6 C6          4.3270   -0.6890   -1.1580 c2        1 LZC     -0.405000
      7 C7          5.6440   -0.6420   -1.7140 c2        1 LZC      0.193000
      8 N8          6.3560    0.5750   -1.5990 nu        1 LZC     -0.273000
      9 C9          7.7250    0.6420   -2.0630 c3        1 LZC      0.008000
     10 C10         8.1950    2.1000   -2.2240 c3        1 LZC     -0.178500
     11 C11         9.5420    2.1260   -2.9190 c3        1 LZC     -0.177000
     12 C12        10.5710    1.3420   -2.0990 c3        1 LZC     -0.079000
     13 N13        11.9170    1.3510   -2.7840 nz        1 LZC     -0.072000
     14 C14        10.1060   -0.0970   -1.8540 c3        1 LZC     -0.177000
     15 C15         8.7520   -0.0870   -1.1770 c3        1 LZC     -0.178500
     16 N16         6.2060   -1.6860   -2.3810 n2        1 LZC     -0.261000
     17 C17         5.4310   -2.7910   -2.5370 c2        1 LZC      0.142000
     18 C18         5.6920   -4.0420   -3.1730 c2        1 LZC     -0.192000
     19 C19         6.8740   -4.4110   -3.8110 c1        1 LZC     -0.028000
     20 N20         7.8720   -4.7010   -4.3380 n1        1 LZC     -0.085000
     21 C21         4.4830   -4.8150   -3.0010 c2        1 LZC     -0.053000
     22 N22         3.5420   -4.1260   -2.3190 n2        1 LZC     -0.110000
     23 N23         4.0840   -2.9160   -2.0320 na        1 LZC     -0.147000
     24 H1C1       -1.0320   -0.5500    0.0070 hc        1 LZC      0.121500
     25 H1C2       -1.0200    1.2220    0.4430 hc        1 LZC      0.121500
     26 H1C3       -0.4000    0.6540   -1.1760 hc        1 LZC      0.121500
     27 H2          1.8220   -1.0850   -0.3580 hn        1 LZC      0.279000
     28 H3C1        1.6020    0.2250    2.3400 hc        1 LZC      0.121500
     29 H3C2        0.8880    1.8200    1.8210 hc        1 LZC      0.121500
     30 H3C3        2.5030    1.2680    1.1720 hc        1 LZC      0.121500
     31 H4          1.7060   -2.7300   -0.9510 hn        1 LZC      0.279000
     32 H6          3.9140    0.1710   -0.6190 ha        1 LZC      0.155000
     33 H8          6.1860    1.0490   -0.7380 hn        1 LZC      0.205000
     34 H9          7.7510    0.1650   -3.0920 h1        1 LZC      0.137000
     35 H101        8.2640    2.6030   -1.2250 hc        1 LZC      0.115500
     36 H102        7.4600    2.6750   -2.8480 hc        1 LZC      0.115500
     37 H151        8.4340   -1.1520   -1.0110 hc        1 LZC      0.115500
     38 H152       10.0260   -0.6540   -2.8270 hc        1 LZC      0.110500
     39 H111        9.4380    1.6760   -3.9430 hc        1 LZC      0.110500
     40 H112        9.8730    3.1920   -3.0370 hc        1 LZC      0.110500
     41 H12        10.7240    1.8580   -1.1030 hx        1 LZC      0.147000
     42 H131       12.6000    0.8480   -2.2110 hn        1 LZC      0.253667
     43 H132       11.8430    0.8860   -3.6950 hn        1 LZC      0.253667
     44 H141        8.8230    0.4090   -0.1750 hc        1 LZC      0.115500
     45 H142       10.8420   -0.6370   -1.2020 hc        1 LZC      0.110500
     46 H21         4.3030   -5.8330   -3.3590 h4        1 LZC      0.196000
     47 H133       12.2300    2.3140   -2.9260 hn        1 LZC      0.253667
@<TRIPOS>BOND
     1    1    2 1   
     2    1   24 1   
     3    1   25 1   
     4    1   26 1   
     5    2    3 1   
     6    3   28 1   
     7    3   29 1   
     8    3   30 1   
     9    4    5 1   
    10    4   27 1   
    11    4   31 1   
    12    5    6 1   
    13    5   23 1   
    14    6    7 1   
    15    6   32 1   
    16    7    8 1   
    17    7   16 1   
    18    8    9 1   
    19    8   33 1   
    20    9   10 1   
    21    9   15 1   
    22    9   34 1   
    23   10   11 1   
    24   10   35 1   
    25   10   36 1   
    26   11   12 1   
    27   11   39 1   
    28   11   40 1   
    29   12   13 1   
    30   12   14 1   
    31   12   41 1   
    32   13   42 1   
    33   13   43 1   
    34   13   47 1   
    35   14   15 1   
    36   14   38 1   
    37   14   45 1   
    38   15   37 1   
    39   15   44 1   
    40   16   17 1   
    41   17   18 1   
    42   17   23 1   
    43   18   19 1   
    44   18   21 1   
    45   19   20 1   
    46   21   22 1   
    47   21   46 1   
    48   22   23 1   
@<TRIPOS>SUBSTRUCTURE
     1 LZC         1 TEMP              0 ****  ****    0 ROOT
