@<TRIPOS>MOLECULE
LZC
   49    50     1     0     0
SMALL
bcc


@<TRIPOS>ATOM
      1 C1         -0.4040   -0.1450   -0.8460 c3        1 LZC     -0.241900
      2 C2          1.0120   -0.5510   -0.6390 c2        1 LZC      0.504300
      3 C3          1.2820   -1.3950    0.5480 c3        1 LZC     -0.241900
      4 N4          1.9540   -0.1300   -1.4920 nh        1 LZC     -0.238200
      5 C5          3.3390   -0.4930   -1.4790 cc        1 LZC      0.112500
      6 C6          4.3400    0.4780   -1.4530 cd        1 LZC     -0.266300
      7 C7          5.7250    0.0550   -1.5410 cd        1 LZC      0.487200
      8 N8          6.7600    1.1170   -1.4750 n4        1 LZC     -0.749700
      9 C9          8.0530    0.8400   -2.2260 c3        1 LZC      0.132500
     10 C10         8.6590    2.1580   -2.7380 c3        1 LZC     -0.104900
     11 C11         9.9270    1.8810   -3.5240 c3        1 LZC     -0.103400
     12 C12        10.9520    1.1600   -2.6390 c3        1 LZC      0.113500
     13 N13        12.2460    0.9280   -3.3680 n4        1 LZC     -0.837600
     14 C14        10.3490   -0.1540   -2.1280 c3        1 LZC     -0.103400
     15 C15         9.0810    0.1210   -1.3420 c3        1 LZC     -0.104900
     16 N16         6.1150   -1.2150   -1.6520 nc        1 LZC     -0.549000
     17 C17         5.1360   -2.1630   -1.6720 cc        1 LZC      0.359500
     18 C18         5.1690   -3.5790   -1.7960 cd        1 LZC     -0.011300
     19 C19         6.3120   -4.3760   -1.9200 ch        1 LZC      0.164500
     20 N20         7.2660   -5.0350   -2.0250 n1        1 LZC     -0.215800
     21 C21         3.7860   -4.0000   -1.7590 cd        1 LZC      0.471500
     22 N22         2.9460   -2.9370   -1.6230 nc        1 LZC     -0.516100
     23 N23         3.7070   -1.8390   -1.5660 na        1 LZC      0.022200
     24 H1C1       -0.7070    0.5710   -0.0290 hc        1 LZC      0.137033
     25 H1C2       -0.6150    0.3390   -1.8340 hc        1 LZC      0.137033
     26 H1C3       -1.0640   -1.0550   -0.7490 hc        1 LZC      0.137033
     27 H2          1.6850    0.4380   -2.2860 hn        1 LZC      0.354700
     28 H3C1        0.6210   -1.0750    1.4020 hc        1 LZC      0.137033
     29 H3C2        1.0060   -2.4640    0.3080 hc        1 LZC      0.137033
     30 H3C3        2.3450   -1.3780    0.8940 hc        1 LZC      0.137033
     31 H4          1.3090   -3.3000    3.1960 ha        1 LZC      0.000000
     32 H6          4.0760    1.5450   -1.3710 ha        1 LZC      0.198000
     33 H8          6.3410    1.9780   -1.8560 hn        1 LZC      0.473800
     34 H9          7.7920    0.1880   -3.1140 hx        1 LZC      0.131700
     35 H101        7.9400    2.6890   -3.4200 hc        1 LZC      0.095700
     36 H102        8.8910    2.8430   -1.8780 hc        1 LZC      0.095700
     37 H151        8.6800   -0.8640   -0.9780 hc        1 LZC      0.095700
     38 H152        9.3240    0.7480   -0.4410 hc        1 LZC      0.095700
     39 H111        9.6870    1.2590   -4.4290 hc        1 LZC      0.098700
     40 H112       10.3360    2.8650   -3.8850 hc        1 LZC      0.098700
     41 H12        11.2090    1.8210   -1.7530 hx        1 LZC      0.124700
     42 H131       12.0970    0.3320   -4.1900 hn        1 LZC      0.476800
     43 H132       12.6380    1.8270   -3.6780 hn        1 LZC      0.476800
     44 H141       11.0730   -0.6840   -1.4480 hc        1 LZC      0.098700
     45 H142       10.1230   -0.8410   -2.9880 hc        1 LZC      0.098700
     46 H21         3.4040   -5.0330   -1.8300 h4        1 LZC      0.127800
     47 H42         1.4130   -2.9300    2.6370 ha        1 LZC      0.000000
     48 H82         6.9820    1.2700   -0.4790 hn        1 LZC      0.473800
     49 H133       12.9200    0.4670   -2.7440 hn        1 LZC      0.476800
@<TRIPOS>BOND
     1    1    2 1   
     2    1   24 1   
     3    1   25 1   
     4    1   26 1   
     5    2    3 1   
     6    2    4 2   
     7    3   28 1   
     8    3   29 1   
     9    3   30 1   
    10    4    5 1   
    11    4   27 1   
    12    5    6 2   
    13    5   23 1   
    14    6    7 1   
    15    6   32 1   
    16    7    8 1   
    17    7   16 2   
    18    8    9 1   
    19    8   33 1   
    20    8   48 1   
    21    9   10 1   
    22    9   15 1   
    23    9   34 1   
    24   10   11 1   
    25   10   35 1   
    26   10   36 1   
    27   11   12 1   
    28   11   39 1   
    29   11   40 1   
    30   12   13 1   
    31   12   14 1   
    32   12   41 1   
    33   13   42 1   
    34   13   43 1   
    35   13   49 1   
    36   14   15 1   
    37   14   44 1   
    38   14   45 1   
    39   15   37 1   
    40   15   38 1   
    41   16   17 1   
    42   17   18 2   
    43   17   23 1   
    44   18   19 1   
    45   18   21 1   
    46   19   20 3   
    47   21   22 2   
    48   21   46 1   
    49   22   23 1   
    50   31   47 1   
@<TRIPOS>SUBSTRUCTURE
     1 LZC         1 TEMP              0 ****  ****    0 ROOT
