@<TRIPOS>MOLECULE
LZC
   47    47     1     0     0
SMALL
bcc


@<TRIPOS>ATOM
      1 C1         -0.1140    0.2660   -0.4890 c3        1 LZC     -0.281500
      2 C2          1.1760   -0.0160    0.0840 c1        1 LZC     -0.081000
      3 C3          1.6050    0.5490    1.3380 c3        1 LZC     -0.281500
      4 N4          2.7180   -1.8170   -1.2340 nh        1 LZC     -0.374000
      5 C5          4.0180   -1.6550   -1.5420 c2        1 LZC      0.327000
      6 C6          4.7500   -0.4840   -1.1850 c2        1 LZC     -0.421000
      7 C7          6.1260   -0.3290   -1.5240 c2        1 LZC      0.248000
      8 N8          6.7920    0.8080   -1.0640 nh        1 LZC     -0.294000
      9 C9          7.9070    1.4130   -1.7770 c3        1 LZC      0.048000
     10 C10         7.5880    2.8260   -2.2030 c2        1 LZC     -0.229000
     11 C11         7.2940    3.1570   -3.4570 c2        1 LZC     -0.165000
     12 C12        10.4390   -0.4980   -1.8990 c3        1 LZC     -0.131000
     13 N13         9.6330   -1.5900   -2.5010 n4        1 LZC     -0.100000
     14 C14         9.8080    0.1140   -0.6510 c3        1 LZC     -0.180000
     15 C15         9.1820    1.4640   -0.9130 c3        1 LZC     -0.172000
     16 N16         6.8230   -1.2930   -2.2130 n2        1 LZC     -0.375000
     17 C17         6.1320   -2.4140   -2.5480 c2        1 LZC      0.160000
     18 C18         6.5470   -3.5990   -3.2320 c2        1 LZC     -0.244000
     19 C19         7.8250   -3.8600   -3.7080 c1        1 LZC     -0.016000
     20 N20         8.9120   -4.0530   -4.0850 n1        1 LZC     -0.128000
     21 C21         5.3660   -4.4370   -3.2940 c2        1 LZC     -0.033000
     22 N22         4.3110   -3.8460   -2.7020 n2        1 LZC     -0.092000
     23 N23         4.7450   -2.6390   -2.2480 na        1 LZC     -0.151000
     24 H1C1       -0.7690    0.9580    0.0990 hc        1 LZC      0.128167
     25 H1C2       -0.6600   -0.7080   -0.6410 hc        1 LZC      0.128167
     26 H1C3        0.0430    0.7030   -1.5150 hc        1 LZC      0.128167
     27 H2          2.1760   -1.0570   -0.7100 hn        1 LZC      0.287000
     28 H3C1        0.9740    1.3850    1.7350 hc        1 LZC      0.128167
     29 H3C2        1.5990   -0.2870    2.0960 hc        1 LZC      0.128167
     30 H3C3        2.6680    0.9000    1.2540 hc        1 LZC      0.128167
     31 H4          2.2350   -2.6420   -1.5040 hn        1 LZC      0.287000
     32 H6          4.2180    0.3040   -0.6350 ha        1 LZC      0.162000
     33 H8          6.1940    1.4710   -0.6120 hn        1 LZC      0.228000
     34 H9          8.1390    0.8120   -2.7060 h1        1 LZC      0.090000
     35 H101        7.6280    3.5760   -1.3970 ha        1 LZC      0.140000
     36 H102        7.2470    2.4280   -4.2780 ha        1 LZC      0.127500
     37 H151        8.9480    1.9450    0.0750 hc        1 LZC      0.111000
     38 H152        9.0520   -0.5750   -0.1880 hc        1 LZC      0.121500
     39 H111       10.5790    0.2960   -2.6880 hx        1 LZC      0.135500
     40 H112        7.0820    4.1960   -3.7510 ha        1 LZC      0.127500
     41 H12        11.4540   -0.9220   -1.6470 hx        1 LZC      0.135500
     42 H131        9.9390   -1.7620   -3.4610 hn        1 LZC      0.267333
     43 H132        8.6010   -1.3420   -2.4970 hn        1 LZC      0.267333
     44 H141        9.9180    2.1300   -1.4380 hc        1 LZC      0.111000
     45 H142       10.6290    0.2480    0.1070 hc        1 LZC      0.121500
     46 H21         5.2940   -5.4290   -3.7520 h4        1 LZC      0.205000
     47 H133        9.7440   -2.4530   -1.9630 hn        1 LZC      0.267333
@<TRIPOS>BOND
     1    1    2 1   
     2    1   24 1   
     3    1   25 1   
     4    1   26 1   
     5    2    3 1   
     6    3   28 1   
     7    3   29 1   
     8    3   30 1   
     9    4    5 1   
    10    4   27 1   
    11    4   31 1   
    12    5    6 1   
    13    5   23 1   
    14    6    7 1   
    15    6   32 1   
    16    7    8 1   
    17    7   16 1   
    18    8    9 1   
    19    8   33 1   
    20    9   10 1   
    21    9   15 1   
    22    9   34 1   
    23   10   11 1   
    24   10   35 1   
    25   11   36 1   
    26   11   40 1   
    27   12   13 1   
    28   12   14 1   
    29   12   39 1   
    30   12   41 1   
    31   13   42 1   
    32   13   43 1   
    33   13   47 1   
    34   14   15 1   
    35   14   38 1   
    36   14   45 1   
    37   15   37 1   
    38   15   44 1   
    39   16   17 1   
    40   17   18 1   
    41   17   23 1   
    42   18   19 1   
    43   18   21 1   
    44   19   20 1   
    45   21   22 1   
    46   21   46 1   
    47   22   23 1   
@<TRIPOS>SUBSTRUCTURE
     1 LZC         1 TEMP              0 ****  ****    0 ROOT
