@<TRIPOS>MOLECULE
LZC
   46    48     1     0     0
SMALL
bcc


@<TRIPOS>ATOM
      1 C1         31.7790    8.0750   67.4980 c3        1 LZC     -0.118100
      2 C2         30.9200    8.1030   66.2320 c3        1 LZC      0.214500
      3 C3         31.8410    8.0630   65.0110 c3        1 LZC     -0.118100
      4 N4         29.9230    7.0450   66.2630 nh        1 LZC     -0.742600
      5 C5         28.9380    6.9680   65.2880 cc        1 LZC      0.331300
      6 C6         28.5410    8.0580   64.4990 cd        1 LZC     -0.441300
      7 C7         27.4240    7.9490   63.5810 cd        1 LZC      0.732200
      8 N8         27.0260    9.1100   62.9260 nh        1 LZC     -0.836900
      9 C9         26.0820    9.0950   61.8220 c3        1 LZC      0.208500
     10 C10        25.5160   10.5060   61.5790 c3        1 LZC     -0.090900
     11 C11        24.4620   10.4640   60.4950 c3        1 LZC     -0.094400
     12 C12        25.0470    9.9340   59.1730 c3        1 LZC      0.161500
     13 N13        24.1260    9.9510   58.0520 n3        1 LZC     -0.901800
     14 C14        25.6240    8.5320   59.4210 c3        1 LZC     -0.094400
     15 C15        26.6770    8.5680   60.5050 c3        1 LZC     -0.090900
     16 N16        26.7400    6.7870   63.4020 nc        1 LZC     -0.749000
     17 C17        27.1310    5.7310   64.1630 cc        1 LZC      0.498500
     18 C18        26.6400    4.3930   64.2460 cd        1 LZC     -0.240300
     19 C19        25.5770    3.8380   63.5350 ch        1 LZC      0.259500
     20 N20        24.6900    3.3730   62.9410 n1        1 LZC     -0.398800
     21 C21        27.4760    3.7380   65.2250 cd        1 LZC      0.443500
     22 N22        28.4140    4.5730   65.7230 nc        1 LZC     -0.591100
     23 N23        28.2320    5.7640   65.1020 na        1 LZC     -0.025800
     24 H1C1       32.4720    8.9490   67.4760 hc        1 LZC      0.049533
     25 H1C2       31.1450    8.1440   68.4150 hc        1 LZC      0.049533
     26 H1C3       32.3870    7.1400   67.5510 hc        1 LZC      0.049533
     27 H2         30.3570    9.0860   66.2190 h1        1 LZC      0.063700
     28 H3C1       31.2490    8.1020   64.0650 hc        1 LZC      0.049533
     29 H3C2       32.5250    8.9440   65.0410 hc        1 LZC      0.049533
     30 H3C3       32.4590    7.1330   65.0070 hc        1 LZC      0.049533
     31 H4         30.2320    6.1910   66.6790 hn        1 LZC      0.446800
     32 H6         29.0650    9.0170   64.5970 ha        1 LZC      0.157000
     33 H8         27.7240    9.8200   62.8760 hn        1 LZC      0.416800
     34 H9         25.2210    8.4220   62.1140 h1        1 LZC      0.094700
     35 H101       25.0610   10.9020   62.5230 hc        1 LZC      0.048450
     36 H102       26.3400   11.2040   61.2770 hc        1 LZC      0.048450
     37 H151       27.5300    9.2200   60.1840 hc        1 LZC      0.048450
     38 H152       27.0760    7.5310   60.6590 hc        1 LZC      0.048450
     39 H111       23.6110    9.8100   60.8200 hc        1 LZC      0.049950
     40 H112       24.0560   11.4980   60.3430 hc        1 LZC      0.049950
     41 H12        25.9040   10.6160   58.8830 h1        1 LZC      0.056700
     42 H131       23.4210    9.2480   58.1590 hn        1 LZC      0.346800
     43 H132       23.6830   10.8470   57.9840 hn        1 LZC      0.346800
     44 H141       24.8010    7.8290   59.7160 hc        1 LZC      0.049950
     45 H142       26.0820    8.1410   58.4750 hc        1 LZC      0.049950
     46 H21        27.4000    2.6990   65.5560 h4        1 LZC      0.060800
@<TRIPOS>BOND
     1    1    2 1   
     2    1   24 1   
     3    1   25 1   
     4    1   26 1   
     5    2    3 1   
     6    2    4 1   
     7    2   27 1   
     8    3   28 1   
     9    3   29 1   
    10    3   30 1   
    11    4    5 1   
    12    4   31 1   
    13    5    6 2   
    14    5   23 1   
    15    6    7 1   
    16    6   32 1   
    17    7    8 1   
    18    7   16 2   
    19    8    9 1   
    20    8   33 1   
    21    9   10 1   
    22    9   15 1   
    23    9   34 1   
    24   10   11 1   
    25   10   35 1   
    26   10   36 1   
    27   11   12 1   
    28   11   39 1   
    29   11   40 1   
    30   12   13 1   
    31   12   14 1   
    32   12   41 1   
    33   13   42 1   
    34   13   43 1   
    35   14   15 1   
    36   14   44 1   
    37   14   45 1   
    38   15   37 1   
    39   15   38 1   
    40   16   17 1   
    41   17   18 2   
    42   17   23 1   
    43   18   19 1   
    44   18   21 1   
    45   19   20 3   
    46   21   22 2   
    47   21   46 1   
    48   22   23 1   
@<TRIPOS>SUBSTRUCTURE
     1 LZC         1 TEMP              0 ****  ****    0 ROOT
