@<TRIPOS>MOLECULE
LZD
   44    46     1     0     0
SMALL
bcc


@<TRIPOS>ATOM
      1 C2         -0.1430   -0.2050    0.0380 c3        1 LZD      0.148800
      2 C3          1.3820   -0.1920   -0.0520 c3        1 LZD     -0.079400
      3 C4          2.0230   -0.2360    1.3240 c3        1 LZD     -0.102400
      4 C5          1.4550    0.9110    2.1660 c3        1 LZD      0.112500
      5 N6          2.0770    0.9170    3.5490 n4        1 LZD     -0.654800
      6 C7          2.0180    2.2370    4.2480 c         1 LZD      0.491600
      7 O8          1.5130    3.2050    3.6860 o         1 LZD     -0.431100
      8 C9          2.5890    2.2900    5.5910 cc        1 LZD      0.207800
      9 N10         3.1610    1.2340    6.2560 nd        1 LZD     -0.422800
     10 N11         3.5510    1.6790    7.4340 na        1 LZD      0.066400
     11 C12         3.2740    3.0300    7.6340 cd        1 LZD     -0.017300
     12 C13         2.6430    3.4740    6.4440 cc        1 LZD     -0.165700
     13 N14         2.1560    4.7820    6.1300 n4        1 LZD     -0.533200
     14 C15         1.4160    5.4980    7.2860 c         1 LZD      0.602700
     15 O16         1.5430    4.9880    8.3840 o         1 LZD     -0.396100
     16 C17         0.7210    6.7200    6.9050 ca        1 LZD     -0.307600
     17 C18        -0.0580    6.8650    5.7250 ca        1 LZD      0.216400
     18 F19        -0.1200    5.8430    4.8360 f         1 LZD     -0.113400
     19 C20        -0.7760    8.0380    5.4770 ca        1 LZD     -0.158500
     20 C21        -0.7260    9.0920    6.3960 ca        1 LZD      0.006000
     21 C22         0.0300    8.9880    7.5580 ca        1 LZD     -0.158500
     22 C23         0.7490    7.8080    7.8240 ca        1 LZD      0.216400
     23 F24         1.4840    7.7080    8.9470 f         1 LZD     -0.113400
     24 C25        -0.0920    0.7700    2.2570 c3        1 LZD      0.167800
     25 N26        -0.6510    0.8210    0.9290 n3        1 LZD     -0.824200
     26 H2C1       -0.4780   -1.2390    0.3490 h1        1 LZD      0.068200
     27 H2C2       -0.5710    0.0040   -0.9850 h1        1 LZD      0.068200
     28 H3C1        1.7260    0.7230   -0.6030 hc        1 LZD      0.084700
     29 H3C2        1.7160   -1.0890   -0.6380 hc        1 LZD      0.084700
     30 H26        -1.6540    0.8220    0.9620 hn        1 LZD      0.411800
     31 H4C1        3.1350   -0.1390    1.2170 hc        1 LZD      0.068200
     32 H4C2        1.7990   -1.2240    1.8090 hc        1 LZD      0.068200
     33 H5          1.7140    1.9020    1.6840 hx        1 LZD      0.136700
     34 H6          3.0660    0.6390    3.4620 hn        1 LZD      0.477300
     35 H251       -0.5140    1.6330    2.8440 h1        1 LZD      0.044700
     36 H252       -0.3280   -0.1910    2.8060 h1        1 LZD      0.044700
     37 H12         3.5080    3.5580    8.5700 h4        1 LZD      0.254000
     38 H20        -1.3830    8.1230    4.5580 ha        1 LZD      0.200000
     39 H21        -1.2980   10.0170    6.1930 ha        1 LZD      0.195000
     40 H22         0.0710    9.8180    8.2870 ha        1 LZD      0.200000
     41 H11         3.9950    1.0530    8.0900 hn        1 LZD      0.392700
     42 H14         1.5140    4.7170    5.3160 hn        1 LZD      0.483300
     43 H62         1.5990    0.2150    4.1330 hn        1 LZD      0.477300
     44 H142        2.9530    5.3800    5.8620 hn        1 LZD      0.483300
@<TRIPOS>BOND
     1    1    2 1   
     2    1   25 1   
     3    1   26 1   
     4    1   27 1   
     5    2    3 1   
     6    2   28 1   
     7    2   29 1   
     8    3    4 1   
     9    3   31 1   
    10    3   32 1   
    11    4    5 1   
    12    4   24 1   
    13    4   33 1   
    14    5    6 1   
    15    5   34 1   
    16    5   43 1   
    17    6    7 2   
    18    6    8 1   
    19    8    9 2   
    20    8   12 1   
    21    9   10 1   
    22   10   11 1   
    23   10   41 1   
    24   11   12 2   
    25   11   37 1   
    26   12   13 1   
    27   13   14 1   
    28   13   42 1   
    29   13   44 1   
    30   14   15 2   
    31   14   16 1   
    32   16   17 ar  
    33   16   22 ar  
    34   17   18 1   
    35   17   19 ar  
    36   19   20 ar  
    37   19   38 1   
    38   20   21 ar  
    39   20   39 1   
    40   21   22 ar  
    41   21   40 1   
    42   22   23 1   
    43   24   25 1   
    44   24   35 1   
    45   24   36 1   
    46   25   30 1   
@<TRIPOS>SUBSTRUCTURE
     1 LZD         1 TEMP              0 ****  ****    0 ROOT
