@<TRIPOS>MOLECULE
LZD
   42    39     1     0     0
SMALL
bcc


@<TRIPOS>ATOM
      1 C2         -4.0060   -2.4170   -3.7020 c3        1 LZD     -0.075000
      2 C3         -2.5500   -2.8540   -3.7390 c3        1 LZD     -0.155000
      3 C4         -1.9350   -2.8680   -2.4020 c3        1 LZD     -0.172000
      4 C5         -2.1280   -1.5910   -1.6820 c3        1 LZD      0.022000
      5 N6         -1.6550   -1.7460   -0.3120 n         1 LZD     -0.363000
      6 C7         -0.4880   -1.0380    0.1280 c2        1 LZD      0.398000
      7 O8          0.1060   -0.3090   -0.6410 o         1 LZD     -0.398000
      8 C9          0.0380   -1.2400    1.5470 c2        1 LZD     -0.202000
      9 N10        -0.2380   -2.2870    2.3530 n2        1 LZD     -0.059000
     10 N11         0.4180   -2.0900    3.5450 n2        1 LZD     -0.137000
     11 C12         1.0950   -0.9220    3.4630 c1        1 LZD     -0.156000
     12 C13         0.8650   -0.3880    2.2280 c1        1 LZD      0.022000
     13 N14         1.3740    0.8620    1.7420 n2        1 LZD     -0.281000
     14 C15         2.5400    1.4410    2.3410 c2        1 LZD      0.360000
     15 O16         3.0980    0.8720    3.2590 o         1 LZD     -0.344000
     16 C17         3.1000    2.7490    1.8060 c2        1 LZD     -0.198000
     17 C18         4.0470    2.7330    0.7960 c2        1 LZD      0.149000
     18 F19         4.4480    1.5670    0.2730 f         1 LZD     -0.088000
     19 C20         4.6360    3.9200    0.3780 c1        1 LZD     -0.188000
     20 C21         4.2760    5.1180    0.9700 c1        1 LZD     -0.126500
     21 C22         3.3280    5.1340    1.9810 c1        1 LZD     -0.126500
     22 C23         2.7400    3.9500    2.4000 c1        1 LZD      0.169000
     23 F24         1.8840    3.9570    3.4290 f         1 LZD     -0.080000
     24 C25        -3.5860   -1.1590   -1.6520 c3        1 LZD     -0.087000
     25 N26        -4.1940   -1.1510   -2.9810 n3        1 LZD     -0.297000
     26 H2C1       -4.3270   -2.3090   -4.6210 h1        1 LZD      0.067500
     27 H2C2       -4.5340   -3.1140   -3.2610 h1        1 LZD      0.067500
     28 H3C1       -2.4990   -3.7540   -4.1210 hc        1 LZD      0.090500
     29 H3C2       -2.0500   -2.2390   -4.3100 hc        1 LZD      0.090500
     30 H26        -5.0890   -0.9730   -2.9070 hn        1 LZD      0.161000
     31 H4C1       -2.3340   -3.5920   -1.8770 hc        1 LZD      0.085000
     32 H4C2       -0.9770   -3.0370   -2.4960 hc        1 LZD      0.085000
     33 H5         -1.6020   -0.8970   -2.1220 h1        1 LZD      0.144000
     34 H6         -2.1180   -2.2700    0.2740 hn        1 LZD      0.237000
     35 H251       -4.0860   -1.7750   -1.0790 h1        1 LZD      0.071500
     36 H252       -3.6410   -0.2590   -1.2740 h1        1 LZD      0.071500
     37 H12         1.6500   -0.5300    4.1650 DU        1 LZD      0.248000
     38 H20         5.3050    3.9090   -0.3360 ha        1 LZD      0.160000
     39 H21         4.6910    5.9520    0.6760 ha        1 LZD      0.153500
     40 H22         3.0750    5.9800    2.3990 ha        1 LZD      0.153500
     41 H11         0.4000   -2.6510    4.2670 DU        1 LZD      0.248000
     42 H14         0.9230    1.3150    1.0920 hn        1 LZD      0.279000
@<TRIPOS>BOND
     1    1    2 1   
     2    1   25 1   
     3    1   26 1   
     4    1   27 1   
     5    2    3 1   
     6    2   28 1   
     7    2   29 1   
     8    3    4 1   
     9    3   31 1   
    10    3   32 1   
    11    4    5 1   
    12    4   24 1   
    13    4   33 1   
    14    5    6 1   
    15    5   34 1   
    16    6    7 1   
    17    6    8 1   
    18    8    9 1   
    19    8   12 1   
    20    9   10 1   
    21   10   11 1   
    22   11   12 1   
    23   13   14 1   
    24   13   42 1   
    25   14   15 1   
    26   14   16 1   
    27   16   17 1   
    28   16   22 1   
    29   17   18 1   
    30   17   19 1   
    31   19   38 1   
    32   20   21 1   
    33   20   39 1   
    34   21   40 1   
    35   22   23 1   
    36   24   25 1   
    37   24   35 1   
    38   24   36 1   
    39   25   30 1   
@<TRIPOS>SUBSTRUCTURE
     1 LZD         1 TEMP              0 ****  ****    0 ROOT
