@<TRIPOS>MOLECULE
LZD
   42    44     1     0     0
SMALL
bcc


@<TRIPOS>ATOM
      1 C2         33.2090    9.5690   65.6780 c3        1 LZD      0.147800
      2 C3         31.8690    9.7580   66.3890 c3        1 LZD     -0.113400
      3 C4         31.0690    8.4730   66.3840 c3        1 LZD     -0.093400
      4 C5         30.8990    7.9530   64.9450 c3        1 LZD      0.061700
      5 N6         30.1460    6.7230   64.8890 n         1 LZD     -0.548900
      6 C7         28.9710    6.6060   64.1830 c         1 LZD      0.613600
      7 O8         28.4990    7.5700   63.5360 o         1 LZD     -0.642100
      8 C9         28.2730    5.3020   64.2010 cc        1 LZD      0.215800
      9 N10        28.6690    4.1820   64.8840 nd        1 LZD     -0.489800
     10 N11        27.7750    3.2410   64.6380 na        1 LZD      0.008400
     11 C12        26.7450    3.6630   63.7920 cd        1 LZD     -0.179300
     12 C13        27.0320    5.0140   63.4800 cc        1 LZD     -0.050700
     13 N14        26.3260    5.8980   62.6900 n         1 LZD     -0.427100
     14 C15        25.1670    5.5610   62.0080 c         1 LZD      0.686700
     15 O16        24.6620    4.4250   62.0750 o         1 LZD     -0.582100
     16 C17        24.5420    6.6510   61.2040 ca        1 LZD     -0.218600
     17 C18        25.2680    7.3710   60.2320 ca        1 LZD      0.193400
     18 F19        26.5810    7.1130   60.0310 f         1 LZD     -0.118400
     19 C20        24.6400    8.3610   59.4540 ca        1 LZD     -0.189500
     20 C21        23.2910    8.6360   59.6490 ca        1 LZD     -0.061000
     21 C22        22.5520    7.9460   60.6030 ca        1 LZD     -0.189500
     22 C23        23.1740    6.9510   61.3820 ca        1 LZD      0.193400
     23 F24        22.4470    6.2940   62.3110 f         1 LZD     -0.118400
     24 C25        32.3140    7.7920   64.3110 c3        1 LZD      0.138800
     25 N26        33.1230    8.9910   64.3510 n3        1 LZD     -0.795200
     26 H2C1       33.7320   10.5620   65.5970 h1        1 LZD      0.053200
     27 H2C2       33.8560    8.8880   66.3000 h1        1 LZD      0.053200
     28 H3C1       32.0560   10.0800   67.4450 hc        1 LZD      0.047700
     29 H3C2       31.2820   10.5710   65.8870 hc        1 LZD      0.047700
     30 H26        32.7550    9.6700   63.7070 hn        1 LZD      0.353800
     31 H4C1       31.5950    7.7020   67.0070 hc        1 LZD      0.047700
     32 H4C2       30.0630    8.6540   66.8450 hc        1 LZD      0.047700
     33 H5         30.3310    8.7340   64.3530 h1        1 LZD      0.088700
     34 H6         30.5030    5.9520   65.4010 hn        1 LZD      0.325500
     35 H251       32.8730    6.9850   64.8630 h1        1 LZD      0.057700
     36 H252       32.2060    7.4750   63.2370 h1        1 LZD      0.057700
     37 H12        25.9170    3.0270   63.4750 h4        1 LZD      0.216000
     38 H20        25.2270    8.9060   58.7000 ha        1 LZD      0.159500
     39 H21        22.8010    9.4120   59.0380 ha        1 LZD      0.148000
     40 H22        21.4850    8.1630   60.7600 ha        1 LZD      0.159500
     41 H11        27.8730    2.3380   65.0410 hn        1 LZD      0.329700
     42 H14        26.7320    6.8070   62.5690 hn        1 LZD      0.365500
@<TRIPOS>BOND
     1    1    2 1   
     2    1   25 1   
     3    1   26 1   
     4    1   27 1   
     5    2    3 1   
     6    2   28 1   
     7    2   29 1   
     8    3    4 1   
     9    3   31 1   
    10    3   32 1   
    11    4    5 1   
    12    4   24 1   
    13    4   33 1   
    14    5    6 1   
    15    5   34 1   
    16    6    7 2   
    17    6    8 1   
    18    8    9 2   
    19    8   12 1   
    20    9   10 1   
    21   10   11 1   
    22   10   41 1   
    23   11   12 2   
    24   11   37 1   
    25   12   13 1   
    26   13   14 1   
    27   13   42 1   
    28   14   15 2   
    29   14   16 1   
    30   16   17 ar  
    31   16   22 ar  
    32   17   18 1   
    33   17   19 ar  
    34   19   20 ar  
    35   19   38 1   
    36   20   21 ar  
    37   20   39 1   
    38   21   22 ar  
    39   21   40 1   
    40   22   23 1   
    41   24   25 1   
    42   24   35 1   
    43   24   36 1   
    44   25   30 1   
@<TRIPOS>SUBSTRUCTURE
     1 LZD         1 TEMP              0 ****  ****    0 ROOT
