@<TRIPOS>MOLECULE
LZD
   43    45     1     0     0
SMALL
bcc


@<TRIPOS>ATOM
      1 C2          0.0730   -0.2400   -0.0740 c3        1 LZD      0.153800
      2 C3          1.5890   -0.0600   -0.1390 c3        1 LZD     -0.078400
      3 C4          2.2080   -0.0820    1.2450 c3        1 LZD     -0.101400
      4 C5          1.5170    0.9670    2.1230 c3        1 LZD      0.111500
      5 N6          2.1020    0.9790    3.5080 n4        1 LZD     -0.663800
      6 C7          1.8400    2.2480    4.2960 c         1 LZD      0.505600
      7 O8          1.2140    3.1450    3.7400 o         1 LZD     -0.454100
      8 C9          2.3730    2.2520    5.6310 cc        1 LZD      0.114800
      9 N10         3.0950    1.2180    6.2190 nd        1 LZD     -0.503800
     10 N11         3.3960    1.6120    7.4270 na        1 LZD      0.093400
     11 C12         2.9260    2.8880    7.7420 cd        1 LZD     -0.179300
     12 C13         2.2410    3.3540    6.5830 cc        1 LZD      0.029300
     13 N14         1.6090    4.5490    6.3670 n         1 LZD     -0.443100
     14 C15         1.4780    5.5400    7.3570 c         1 LZD      0.701700
     15 O16         1.9710    5.3690    8.4820 o         1 LZD     -0.539100
     16 C17         0.7590    6.7770    6.9640 ca        1 LZD     -0.241600
     17 C18        -0.4810    6.7580    6.2890 ca        1 LZD      0.196900
     18 F19        -1.0380    5.5800    5.9180 f         1 LZD     -0.120900
     19 C20        -1.1600    7.9530    6.0000 ca        1 LZD     -0.179500
     20 C21        -0.6010    9.1720    6.3750 ca        1 LZD     -0.043000
     21 C22         0.6240    9.2230    7.0310 ca        1 LZD     -0.179500
     22 C23         1.3070    8.0290    7.3310 ca        1 LZD      0.196900
     23 F24         2.4980    8.0880    7.9610 f         1 LZD     -0.120900
     24 C25        -0.0110    0.6840    2.1670 c3        1 LZD      0.165800
     25 N26        -0.5560    0.7020    0.8300 n3        1 LZD     -0.822200
     26 H2C1       -0.3610   -0.0580   -1.0980 h1        1 LZD      0.054700
     27 H2C2       -0.1480   -1.3120    0.2080 h1        1 LZD      0.054700
     28 H3C1        2.0250   -0.8910   -0.7510 hc        1 LZD      0.074700
     29 H3C2        1.8360    0.9080   -0.6490 hc        1 LZD      0.074700
     30 H26        -1.5510    0.5840    0.8520 hn        1 LZD      0.401800
     31 H4C1        2.0850   -1.1040    1.6940 hc        1 LZD      0.061200
     32 H4C2        3.3060    0.1330    1.1640 hc        1 LZD      0.061200
     33 H5          1.6850    1.9980    1.6860 hx        1 LZD      0.135700
     34 H6          1.7240    0.1880    4.0430 hn        1 LZD      0.462800
     35 H251       -0.1750   -0.3010    2.6970 h1        1 LZD      0.047700
     36 H252       -0.5210    1.4990    2.7560 h1        1 LZD      0.047700
     37 H12         3.0840    3.3780    8.7090 h4        1 LZD      0.246000
     38 H20        -2.1310    7.9120    5.4830 ha        1 LZD      0.171500
     39 H21        -1.1380   10.1090    6.1490 ha        1 LZD      0.164000
     40 H22         1.0690   10.1860    7.3280 ha        1 LZD      0.171500
     41 H11         3.9230    1.0140    8.0360 hn        1 LZD      0.357700
     42 H14         1.1490    4.6780    5.4880 hn        1 LZD      0.352500
     43 H62         3.1190    0.8550    3.4370 hn        1 LZD      0.462800
@<TRIPOS>BOND
     1    1    2 1   
     2    1   25 1   
     3    1   26 1   
     4    1   27 1   
     5    2    3 1   
     6    2   28 1   
     7    2   29 1   
     8    3    4 1   
     9    3   31 1   
    10    3   32 1   
    11    4    5 1   
    12    4   24 1   
    13    4   33 1   
    14    5    6 1   
    15    5   34 1   
    16    5   43 1   
    17    6    7 2   
    18    6    8 1   
    19    8    9 2   
    20    8   12 1   
    21    9   10 1   
    22   10   11 1   
    23   10   41 1   
    24   11   12 2   
    25   11   37 1   
    26   12   13 1   
    27   13   14 1   
    28   13   42 1   
    29   14   15 2   
    30   14   16 1   
    31   16   17 ar  
    32   16   22 ar  
    33   17   18 1   
    34   17   19 ar  
    35   19   20 ar  
    36   19   38 1   
    37   20   21 ar  
    38   20   39 1   
    39   21   22 ar  
    40   21   40 1   
    41   22   23 1   
    42   24   25 1   
    43   24   35 1   
    44   24   36 1   
    45   25   30 1   
@<TRIPOS>SUBSTRUCTURE
     1 LZD         1 TEMP              0 ****  ****    0 ROOT
