@<TRIPOS>MOLECULE
LZD
   43    45     1     0     0
SMALL
bcc


@<TRIPOS>ATOM
      1 C2          0.0620   -0.2330   -0.0770 c3        1 LZD      0.153800
      2 C3          1.5790   -0.0600   -0.1390 c3        1 LZD     -0.078400
      3 C4          2.1950   -0.0870    1.2460 c3        1 LZD     -0.101400
      4 C5          1.5080    0.9660    2.1230 c3        1 LZD      0.111500
      5 N6          2.0910    0.9740    3.5090 ny        1 LZD     -0.663800
      6 C7          1.8350    2.2450    4.2970 c         1 LZD      0.505600
      7 O8          1.2150    3.1450    3.7400 o         1 LZD     -0.454100
      8 C9          2.3650    2.2440    5.6330 cc        1 LZD      0.114800
      9 N10         3.0800    1.2060    6.2220 nd        1 LZD     -0.503800
     10 N11         3.3810    1.5980    7.4310 na        1 LZD      0.093400
     11 C12         2.9170    2.8770    7.7460 cd        1 LZD     -0.179300
     12 C13         2.2370    3.3470    6.5850 cc        1 LZD      0.029300
     13 N14         1.6130    4.5450    6.3680 ns        1 LZD     -0.443100
     14 C15         1.4850    5.5370    7.3590 c         1 LZD      0.701700
     15 O16         1.9750    5.3620    8.4840 o         1 LZD     -0.539100
     16 C17         0.7750    6.7780    6.9650 ca        1 LZD     -0.241600
     17 C18        -0.4640    6.7660    6.2870 ca        1 LZD      0.196900
     18 F19        -1.0270    5.5920    5.9140 f         1 LZD     -0.120900
     19 C20        -1.1360    7.9660    5.9970 ca        1 LZD     -0.179500
     20 C21        -0.5700    9.1820    6.3740 ca        1 LZD     -0.043000
     21 C22         0.6530    9.2250    7.0330 ca        1 LZD     -0.179500
     22 C23         1.3290    8.0270    7.3330 ca        1 LZD      0.196900
     23 F24         2.5180    8.0790    7.9670 f         1 LZD     -0.120900
     24 C25        -0.0210    0.6910    2.1640 c3        1 LZD      0.165800
     25 N26        -0.5630    0.7120    0.8260 n7        1 LZD     -0.822200
     26 H2C1       -0.1660   -1.3040    0.2040 h1        1 LZD      0.054700
     27 H2C2       -0.3690   -0.0470   -1.1020 h1        1 LZD      0.054700
     28 H3C1        1.8320    0.9060   -0.6490 hc        1 LZD      0.074700
     29 H3C2        2.0120   -0.8940   -0.7510 hc        1 LZD      0.074700
     30 H26        -1.5590    0.6000    0.8460 hn        1 LZD      0.401800
     31 H4C1        3.2950    0.1230    1.1670 hc        1 LZD      0.061200
     32 H4C2        2.0660   -1.1080    1.6940 hc        1 LZD      0.061200
     33 H5          1.6830    1.9970    1.6860 hx        1 LZD      0.135700
     34 H6          3.1080    0.8450    3.4390 hn        1 LZD      0.462800
     35 H251       -0.1910   -0.2940    2.6930 h1        1 LZD      0.047700
     36 H252       -0.5280    1.5080    2.7530 h1        1 LZD      0.047700
     37 H12         3.0760    3.3650    8.7130 h4        1 LZD      0.246000
     38 H20        -2.1060    7.9310    5.4780 ha        1 LZD      0.171500
     39 H21        -1.1010   10.1220    6.1470 ha        1 LZD      0.164000
     40 H22         1.1030   10.1850    7.3320 ha        1 LZD      0.171500
     41 H11         3.9030    0.9970    8.0400 hn        1 LZD      0.357700
     42 H14         1.1560    4.6780    5.4890 hn        1 LZD      0.352500
     43 H62         1.7080    0.1850    4.0430 hn        1 LZD      0.462800
@<TRIPOS>BOND
     1    1    2 1   
     2    1   25 1   
     3    1   26 1   
     4    1   27 1   
     5    2    3 1   
     6    2   28 1   
     7    2   29 1   
     8    3    4 1   
     9    3   31 1   
    10    3   32 1   
    11    4    5 1   
    12    4   24 1   
    13    4   33 1   
    14    5    6 1   
    15    5   34 1   
    16    5   43 1   
    17    6    7 2   
    18    6    8 1   
    19    8    9 2   
    20    8   12 1   
    21    9   10 1   
    22   10   11 1   
    23   10   41 1   
    24   11   12 2   
    25   11   37 1   
    26   12   13 1   
    27   13   14 1   
    28   13   42 1   
    29   14   15 2   
    30   14   16 1   
    31   16   17 ar  
    32   16   22 ar  
    33   17   18 1   
    34   17   19 ar  
    35   19   20 ar  
    36   19   38 1   
    37   20   21 ar  
    38   20   39 1   
    39   21   22 ar  
    40   21   40 1   
    41   22   23 1   
    42   24   25 1   
    43   24   35 1   
    44   24   36 1   
    45   25   30 1   
@<TRIPOS>SUBSTRUCTURE
     1 LZD         1 TEMP              0 ****  ****    0 ROOT
