@<TRIPOS>MOLECULE
LZE
   43    45     1     0     0
SMALL
bcc


@<TRIPOS>ATOM
      1 C26        -0.1310    0.0790    0.2690 c3        1 LZE      0.169800
      2 C25         1.3970    0.0860    0.1700 c3        1 LZE     -0.102900
      3 C5          1.9970    0.2130    1.5740 c3        1 LZE      0.124500
      4 N6          3.5040    0.2580    1.5260 n4        1 LZE     -0.665800
      5 C7          4.1700   -1.0860    1.3190 c         1 LZE      0.507600
      6 O8          3.4480   -2.0780    1.2690 o         1 LZE     -0.465100
      7 C9          5.6020   -1.0430    1.2100 cc        1 LZE      0.113800
      8 N10         6.3870    0.1040    1.2810 nd        1 LZE     -0.501800
      9 N11         7.6260   -0.2820    1.1390 na        1 LZE      0.094400
     10 C12         7.7770   -1.6590    0.9670 cd        1 LZE     -0.182300
     11 C13         6.4630   -2.2080    1.0080 cc        1 LZE      0.028300
     12 N14         6.0630   -3.5120    0.8900 n         1 LZE     -0.444100
     13 C15         6.9580   -4.5790    0.6920 c         1 LZE      0.701700
     14 O16         8.1770   -4.3790    0.6150 o         1 LZE     -0.527100
     15 C17         6.3240   -5.9230    0.5870 ca        1 LZE     -0.157600
     16 C18         6.2010   -6.7370    1.7220 ca        1 LZE      0.054400
     17 C20         5.6760   -8.0290    1.6100 ca        1 LZE     -0.120500
     18 C21         5.2700   -8.5040    0.3640 ca        1 LZE     -0.081000
     19 C22         5.3740   -7.7000   -0.7700 ca        1 LZE     -0.120500
     20 C23         5.8970   -6.4080   -0.6580 ca        1 LZE      0.054400
     21 C4          1.4460    1.4550    2.2830 c3        1 LZE     -0.102900
     22 N24        -0.6380    1.2370    0.9720 n3        1 LZE     -0.833200
     23 C3         -0.0850    1.3890    2.3000 c3        1 LZE      0.169800
     24 CL1         6.0160   -5.4320   -2.0400 cl        1 LZE     -0.059900
     25 CL7         6.6860   -6.1640    3.2430 cl        1 LZE     -0.059900
     26 H261       -0.5530    0.1000   -0.7760 h1        1 LZE      0.055200
     27 H262       -0.4470   -0.8940    0.7500 h1        1 LZE      0.055200
     28 H251        1.7280   -0.8740   -0.3060 hc        1 LZE      0.071200
     29 H252        1.7260    0.9410   -0.4770 hc        1 LZE      0.071200
     30 H24        -1.6400    1.2400    0.9940 hn        1 LZE      0.399800
     31 H5          1.7220   -0.7090    2.1730 hx        1 LZE      0.117700
     32 H6          3.8540    0.6530    2.4080 hn        1 LZE      0.463300
     33 H4C1        1.7730    2.3880    1.7520 hc        1 LZE      0.071200
     34 H4C2        1.8080    1.5020    3.3420 hc        1 LZE      0.071200
     35 H11         8.3690    0.3920    1.1580 hn        1 LZE      0.357700
     36 H12         8.7430   -2.1580    0.8320 h4        1 LZE      0.245000
     37 H14         5.0840   -3.7040    0.9450 hn        1 LZE      0.351500
     38 H20         5.5910   -8.6710    2.5020 ha        1 LZE      0.168000
     39 H21         4.8640   -9.5250    0.2740 ha        1 LZE      0.161000
     40 H22         5.0510   -8.0820   -1.7520 ha        1 LZE      0.168000
     41 H3C1       -0.4760    2.3560    2.7270 h1        1 LZE      0.055200
     42 H3C2       -0.3920    0.5530    2.9970 h1        1 LZE      0.055200
     43 H62         3.7940    0.8820    0.7630 hn        1 LZE      0.463300
@<TRIPOS>BOND
     1    1    2 1   
     2    1   22 1   
     3    1   26 1   
     4    1   27 1   
     5    2    3 1   
     6    2   28 1   
     7    2   29 1   
     8    3    4 1   
     9    3   21 1   
    10    3   31 1   
    11    4    5 1   
    12    4   32 1   
    13    4   43 1   
    14    5    6 2   
    15    5    7 1   
    16    7    8 2   
    17    7   11 1   
    18    8    9 1   
    19    9   10 1   
    20    9   35 1   
    21   10   11 2   
    22   10   36 1   
    23   11   12 1   
    24   12   13 1   
    25   12   37 1   
    26   13   14 2   
    27   13   15 1   
    28   15   16 ar  
    29   15   20 ar  
    30   16   17 ar  
    31   16   25 1   
    32   17   18 ar  
    33   17   38 1   
    34   18   19 ar  
    35   18   39 1   
    36   19   20 ar  
    37   19   40 1   
    38   20   24 1   
    39   21   23 1   
    40   21   33 1   
    41   21   34 1   
    42   22   23 1   
    43   22   30 1   
    44   23   41 1   
    45   23   42 1   
@<TRIPOS>SUBSTRUCTURE
     1 LZE         1 TEMP              0 ****  ****    0 ROOT
