@<TRIPOS>MOLECULE
LZE
   42    44     1     0     0
SMALL
bcc


@<TRIPOS>ATOM
      1 C26        32.8130    9.1930   65.1030 c3        1 LZE      0.150800
      2 C25        32.1130    7.8470   64.9100 c3        1 LZE     -0.130400
      3 C5         30.6540    7.9430   65.3920 c3        1 LZE      0.100700
      4 N6         29.9400    6.6970   65.2240 n         1 LZE     -0.553900
      5 C7         28.8310    6.5810   64.4180 c         1 LZE      0.613600
      6 O8         28.3780    7.5620   63.7830 o         1 LZE     -0.642100
      7 C9         28.1770    5.2590   64.3170 cc        1 LZE      0.214800
      8 N10        28.5680    4.1110   64.9550 nd        1 LZE     -0.490800
      9 N11        27.7220    3.1610   64.5980 na        1 LZE      0.008400
     10 C12        26.7320    3.6030   63.7160 cd        1 LZE     -0.181300
     11 C13        26.9920    4.9780   63.5040 cc        1 LZE     -0.049700
     12 N14        26.3110    5.8850   62.7170 n         1 LZE     -0.427100
     13 C15        25.1920    5.5610   61.9670 c         1 LZE      0.684700
     14 O16        24.7080    4.4150   61.9420 o         1 LZE     -0.577100
     15 C17        24.6000    6.6900   61.1810 ca        1 LZE     -0.130600
     16 C18        23.5950    7.4920   61.7400 ca        1 LZE      0.054400
     17 C20        23.0060    8.5160   60.9900 ca        1 LZE     -0.129000
     18 C21        23.4250    8.7400   59.6810 ca        1 LZE     -0.097000
     19 C22        24.4280    7.9560   59.1140 ca        1 LZE     -0.129000
     20 C23        25.0160    6.9330   59.8650 ca        1 LZE      0.054400
     21 C4         30.6410    8.4260   66.8540 c3        1 LZE     -0.130400
     22 N24        32.7490    9.7400   66.4430 n3        1 LZE     -0.798200
     23 C3         31.3990    9.7490   66.9700 c3        1 LZE      0.150800
     24 CL1        26.2410    5.9910   59.1640 cl        1 LZE     -0.062400
     25 CL7        23.0810    7.2350   63.3370 cl        1 LZE     -0.062400
     26 H261       33.8950    9.0860   64.8130 h1        1 LZE      0.055700
     27 H262       32.3420    9.9470   64.4090 h1        1 LZE      0.055700
     28 H251       32.1410    7.5740   63.8250 hc        1 LZE      0.049700
     29 H252       32.6550    7.0480   65.4780 hc        1 LZE      0.049700
     30 H24        33.3480    9.2120   67.0540 hn        1 LZE      0.348800
     31 H5         30.1310    8.7280   64.7630 h1        1 LZE      0.093700
     32 H6         30.2840    5.9100   65.7190 hn        1 LZE      0.323500
     33 H4C1       29.5870    8.5800   67.1980 hc        1 LZE      0.049700
     34 H4C2       31.1100    7.6560   67.5190 hc        1 LZE      0.049700
     35 H11        27.8270    2.2380   64.9530 hn        1 LZE      0.329700
     36 H12        25.9460    2.9630   63.3120 h4        1 LZE      0.216000
     37 H14        26.6690    6.8210   62.7090 hn        1 LZE      0.366500
     38 H20        22.2150    9.1400   61.4340 ha        1 LZE      0.156000
     39 H21        22.9610    9.5450   59.0900 ha        1 LZE      0.146000
     40 H22        24.7560    8.1400   58.0790 ha        1 LZE      0.156000
     41 H3C1       30.8250   10.5430   66.4120 h1        1 LZE      0.055700
     42 H3C2       31.4420   10.0520   68.0530 h1        1 LZE      0.055700
@<TRIPOS>BOND
     1    1    2 1   
     2    1   22 1   
     3    1   26 1   
     4    1   27 1   
     5    2    3 1   
     6    2   28 1   
     7    2   29 1   
     8    3    4 1   
     9    3   21 1   
    10    3   31 1   
    11    4    5 1   
    12    4   32 1   
    13    5    6 2   
    14    5    7 1   
    15    7    8 2   
    16    7   11 1   
    17    8    9 1   
    18    9   10 1   
    19    9   35 1   
    20   10   11 2   
    21   10   36 1   
    22   11   12 1   
    23   12   13 1   
    24   12   37 1   
    25   13   14 2   
    26   13   15 1   
    27   15   16 ar  
    28   15   20 ar  
    29   16   17 ar  
    30   16   25 1   
    31   17   18 ar  
    32   17   38 1   
    33   18   19 ar  
    34   18   39 1   
    35   19   20 ar  
    36   19   40 1   
    37   20   24 1   
    38   21   23 1   
    39   21   33 1   
    40   21   34 1   
    41   22   23 1   
    42   22   30 1   
    43   23   41 1   
    44   23   42 1   
@<TRIPOS>SUBSTRUCTURE
     1 LZE         1 TEMP              0 ****  ****    0 ROOT
