@<TRIPOS>MOLECULE
LZE
   43    45     1     0     0
SMALL
bcc


@<TRIPOS>ATOM
      1 C26        -0.1360    0.0830    0.3050 c3        1 LZE      0.169800
      2 C25         1.3910    0.0890    0.1910 c3        1 LZE     -0.102900
      3 C5          2.0050    0.2160    1.5890 c3        1 LZE      0.124500
      4 N6          3.5120    0.2600    1.5260 ny        1 LZE     -0.665800
      5 C7          4.1740   -1.0860    1.3140 c         1 LZE      0.507600
      6 O8          3.4500   -2.0760    1.2700 o         1 LZE     -0.465100
      7 C9          5.6060   -1.0450    1.1930 cc        1 LZE      0.113800
      8 N10         6.3920    0.1010    1.2560 nd        1 LZE     -0.501800
      9 N11         7.6300   -0.2860    1.1030 na        1 LZE      0.094400
     10 C12         7.7770   -1.6640    0.9310 cd        1 LZE     -0.182300
     11 C13         6.4630   -2.2110    0.9830 cc        1 LZE      0.028300
     12 N14         6.0600   -3.5140    0.8700 ns        1 LZE     -0.444100
     13 C15         6.9530   -4.5830    0.6660 c         1 LZE      0.701700
     14 O16         8.1700   -4.3850    0.5790 o         1 LZE     -0.527100
     15 C17         6.3160   -5.9270    0.5680 ca        1 LZE     -0.157600
     16 C18         6.1870   -6.7330    1.7080 ca        1 LZE      0.054900
     17 C20         5.6600   -8.0240    1.6020 ca        1 LZE     -0.120500
     18 C21         5.2560   -8.5060    0.3580 ca        1 LZE     -0.081000
     19 C22         5.3660   -7.7100   -0.7810 ca        1 LZE     -0.120500
     20 C23         5.8920   -6.4180   -0.6760 ca        1 LZE      0.054900
     21 C4          1.4630    1.4590    2.3020 c3        1 LZE     -0.102900
     22 N24        -0.6340    1.2420    1.0130 n7        1 LZE     -0.833200
     23 C3         -0.0680    1.3950    2.3350 c3        1 LZE      0.169800
     24 Cl1         6.0170   -5.4520   -2.0640 cl        1 LZE     -0.059400
     25 Cl7         6.6690   -6.1500    3.2260 cl        1 LZE     -0.059400
     26 H261       -0.4480   -0.8890    0.7900 h1        1 LZE      0.055200
     27 H262       -0.5690    0.1040   -0.7360 h1        1 LZE      0.055200
     28 H251        1.7150    0.9430   -0.4600 hc        1 LZE      0.071200
     29 H252        1.7160   -0.8720   -0.2870 hc        1 LZE      0.071200
     30 H24        -1.6360    1.2460    1.0440 hn        1 LZE      0.399800
     31 H5          1.7350   -0.7060    2.1910 hx        1 LZE      0.117700
     32 H6          3.7950    0.8820    0.7590 hn        1 LZE      0.463300
     33 H4C1        1.7860    2.3910    1.7680 hc        1 LZE      0.071200
     34 H4C2        1.8360    1.5060    3.3580 hc        1 LZE      0.071200
     35 H11         8.3730    0.3870    1.1150 hn        1 LZE      0.357700
     36 H12         8.7420   -2.1640    0.7880 h4        1 LZE      0.245000
     37 H14         5.0810   -3.7050    0.9340 hn        1 LZE      0.351500
     38 H20         5.5710   -8.6600    2.4980 ha        1 LZE      0.168000
     39 H21         4.8490   -9.5270    0.2730 ha        1 LZE      0.161000
     40 H22         5.0450   -8.0970   -1.7620 ha        1 LZE      0.168000
     41 H3C1       -0.4540    2.3630    2.7650 h1        1 LZE      0.055200
     42 H3C2       -0.3690    0.5600    3.0360 h1        1 LZE      0.055200
     43 H62         3.8700    0.6550    2.4040 hn        1 LZE      0.463300
@<TRIPOS>BOND
     1    1    2 1   
     2    1   22 1   
     3    1   26 1   
     4    1   27 1   
     5    2    3 1   
     6    2   28 1   
     7    2   29 1   
     8    3    4 1   
     9    3   21 1   
    10    3   31 1   
    11    4    5 1   
    12    4   32 1   
    13    4   43 1   
    14    5    6 2   
    15    5    7 1   
    16    7    8 2   
    17    7   11 1   
    18    8    9 1   
    19    9   10 1   
    20    9   35 1   
    21   10   11 2   
    22   10   36 1   
    23   11   12 1   
    24   12   13 1   
    25   12   37 1   
    26   13   14 2   
    27   13   15 1   
    28   15   16 ar  
    29   15   20 ar  
    30   16   17 ar  
    31   16   25 1   
    32   17   18 ar  
    33   17   38 1   
    34   18   19 ar  
    35   18   39 1   
    36   19   20 ar  
    37   19   40 1   
    38   20   24 1   
    39   21   23 1   
    40   21   33 1   
    41   21   34 1   
    42   22   23 1   
    43   22   30 1   
    44   23   41 1   
    45   23   42 1   
@<TRIPOS>SUBSTRUCTURE
     1 LZE         1 TEMP              0 ****  ****    0 ROOT
