@<TRIPOS>MOLECULE
LZE
   44    46     1     0     0
SMALL
bcc


@<TRIPOS>ATOM
      1 C26        -0.0440    0.0970   -0.0020 c3        1 LZE      0.175800
      2 C25         1.4910    0.0560    0.0390 c3        1 LZE     -0.108900
      3 C5          1.9600    0.2600    1.4820 c3        1 LZE      0.133500
      4 N6          3.4810    0.2930    1.5620 n4        1 LZE     -0.659800
      5 C7          4.1380   -1.0460    1.5050 c         1 LZE      0.495600
      6 O8          3.4530   -2.0640    1.4750 o         1 LZE     -0.444100
      7 C9          5.5990   -1.0560    1.4950 cc        1 LZE      0.204800
      8 N10         6.4020    0.0570    1.5120 nd        1 LZE     -0.420800
      9 N11         7.6510   -0.3620    1.4860 na        1 LZE      0.068400
     10 C12         7.7680   -1.7490    1.4510 cd        1 LZE     -0.021300
     11 C13         6.4410   -2.2490    1.4580 cc        1 LZE     -0.163700
     12 N14         5.9990   -3.6080    1.4370 n4        1 LZE     -0.540200
     13 C15         6.8590   -4.5800    0.5860 c         1 LZE      0.607700
     14 O16         7.8570   -4.1110    0.0800 o         1 LZE     -0.374100
     15 C17         6.3060   -5.9370    0.5550 ca        1 LZE     -0.228600
     16 C18         7.0780   -7.0130    1.0350 ca        1 LZE      0.066900
     17 C20         6.6080   -8.3260    0.8950 ca        1 LZE     -0.103000
     18 C21         5.3800   -8.5660    0.2850 ca        1 LZE     -0.031000
     19 C22         4.5950   -7.5050   -0.1800 ca        1 LZE     -0.103000
     20 C23         5.0530   -6.1970   -0.0360 ca        1 LZE      0.066900
     21 C4          1.3850    1.5530    2.0710 c3        1 LZE     -0.108900
     22 N24        -0.5590    1.3170    0.5730 n3        1 LZE     -0.840200
     23 C3         -0.1450    1.5250    1.9410 c3        1 LZE      0.175800
     24 CL1         4.0930   -4.9120   -0.6070 cl        1 LZE     -0.038900
     25 CL7         8.5600   -6.7410    1.7960 cl        1 LZE     -0.038900
     26 H261       -0.4320   -0.8300    0.5150 h1        1 LZE      0.063450
     27 H262       -0.3690    0.0560   -1.0810 h1        1 LZE      0.063450
     28 H251        1.8300   -0.9410   -0.3440 hc        1 LZE      0.073950
     29 H252        1.8980    0.8610   -0.6290 hc        1 LZE      0.073950
     30 H24        -1.5520    1.3960    0.4640 hn        1 LZE      0.417800
     31 H5          1.6260   -0.6200    2.1110 hx        1 LZE      0.117700
     32 H6          3.7520    0.7520    2.4440 hn        1 LZE      0.478300
     33 H4C1        1.6440    1.6460    3.1580 hc        1 LZE      0.073950
     34 H4C2        1.7850    2.4490    1.5270 hc        1 LZE      0.073950
     35 H11         8.4090    0.3060    1.4840 hn        1 LZE      0.392700
     36 H12         8.7370   -2.2670    1.4020 h4        1 LZE      0.252000
     37 H14         5.9870   -3.9720    2.4010 hn        1 LZE      0.480300
     38 H20         7.2200   -9.1700    1.2650 ha        1 LZE      0.195500
     39 H21         5.0190   -9.6050    0.1640 ha        1 LZE      0.192000
     40 H22         3.6220   -7.7070   -0.6630 ha        1 LZE      0.195500
     41 H3C1       -0.5440    2.5250    2.2790 h1        1 LZE      0.063450
     42 H3C2       -0.5420    0.7350    2.6450 h1        1 LZE      0.063450
     43 H62         3.8340    0.8690    0.7820 hn        1 LZE      0.478300
     44 H142        5.0260   -3.6490    1.0620 hn        1 LZE      0.480300
@<TRIPOS>BOND
     1    1    2 1   
     2    1   22 1   
     3    1   26 1   
     4    1   27 1   
     5    2    3 1   
     6    2   28 1   
     7    2   29 1   
     8    3    4 1   
     9    3   21 1   
    10    3   31 1   
    11    4    5 1   
    12    4   32 1   
    13    4   43 1   
    14    5    6 2   
    15    5    7 1   
    16    7    8 2   
    17    7   11 1   
    18    8    9 1   
    19    9   10 1   
    20    9   35 1   
    21   10   11 2   
    22   10   36 1   
    23   11   12 1   
    24   12   13 1   
    25   12   37 1   
    26   12   44 1   
    27   13   14 2   
    28   13   15 1   
    29   15   16 ar  
    30   15   20 ar  
    31   16   17 ar  
    32   16   25 1   
    33   17   18 ar  
    34   17   38 1   
    35   18   19 ar  
    36   18   39 1   
    37   19   20 ar  
    38   19   40 1   
    39   20   24 1   
    40   21   23 1   
    41   21   33 1   
    42   21   34 1   
    43   22   23 1   
    44   22   30 1   
    45   23   41 1   
    46   23   42 1   
@<TRIPOS>SUBSTRUCTURE
     1 LZE         1 TEMP              0 ****  ****    0 ROOT
