@<TRIPOS>MOLECULE
LZF
   58    61     1     0     0
SMALL
bcc


@<TRIPOS>ATOM
      1 F32        -0.0490   -2.4170    0.8810 f         1 LZF     -0.107900
      2 C17         0.8660   -1.4230    0.8750 ca        1 LZF      0.200900
      3 C11         2.0680   -1.5770    1.5770 ca        1 LZF     -0.191000
      4 C9          3.0330   -0.5460    1.5890 ca        1 LZF      0.164600
      5 N1          4.2550   -0.7100    2.2620 n         1 LZF     -0.279200
      6 C21         4.2960   -1.4680    3.4400 cc        1 LZF     -0.029400
      7 C29         5.4600   -1.7120    4.1070 cd        1 LZF     -0.175000
      8 C30         6.6980   -1.1920    3.6040 cd        1 LZF     -0.026000
      9 C23         6.7020   -0.4490    2.4720 cc        1 LZF     -0.232200
     10 C8          5.4720   -0.1640    1.7310 c         1 LZF      0.704700
     11 O25         5.4280    0.5000    0.6800 o         1 LZF     -0.626500
     12 C26         2.7380    0.6620    0.8940 ca        1 LZF     -0.123000
     13 C28         1.5600    0.8110    0.1910 ca        1 LZF     -0.075000
     14 C16         0.6100   -0.2280    0.1500 ca        1 LZF     -0.159400
     15 N15        -0.6310   -0.0670   -0.6020 n4        1 LZF     -0.519200
     16 C14        -0.5160   -0.6150   -2.0080 c         1 LZF      0.542100
     17 O27        -1.1350   -1.6370   -2.2450 o         1 LZF     -0.382100
     18 C22         0.3650    0.1610   -2.9770 c3        1 LZF      0.086800
     19 N4         -0.2720    1.4120   -3.3580 n3        1 LZF     -0.724600
     20 C20        -1.3770    1.2480   -4.3120 c3        1 LZF      0.105800
     21 C13        -1.0380    1.9630   -5.6440 c3        1 LZF      0.112100
     22 O33        -0.9860    1.0760   -6.7440 os        1 LZF     -0.422600
     23 C34        -2.2640    0.7120   -7.2640 c3        1 LZF      0.105700
     24 C18         0.6570    2.3960   -3.9180 c3        1 LZF      0.151800
     25 C6          0.4260    2.4620   -5.4550 c3        1 LZF      0.081500
     26 N7          0.6710    3.7910   -6.0740 n4        1 LZF     -0.664800
     27 C5          2.1570    4.1740   -6.1380 c         1 LZF      0.627700
     28 O24         2.8880    3.5150   -5.4070 o         1 LZF     -0.463100
     29 C2          2.4630    5.2390   -7.0340 cc        1 LZF     -0.349700
     30 C12         1.5500    6.0280   -7.7700 cd        1 LZF     -0.083000
     31 C19         2.2020    6.9880   -8.5500 cd        1 LZF     -0.146000
     32 S3          4.0400    5.7230   -7.3440 ss        1 LZF      0.339200
     33 C10         3.6020    6.9120   -8.3950 cc        1 LZF     -0.012700
     34 CL1         4.6680    7.9090   -9.1840 cl        1 LZF      0.082600
     35 H11         2.2400   -2.5360    2.0990 ha        1 LZF      0.194000
     36 H26         3.4680    1.4950    0.9040 ha        1 LZF      0.204000
     37 H21         3.3240   -1.8340    3.8190 h4        1 LZF      0.164000
     38 H29         5.4540   -2.3000    5.0370 ha        1 LZF      0.178000
     39 H30         7.6270   -1.4070    4.1580 ha        1 LZF      0.172000
     40 H23         7.6150   -0.0140    2.0340 ha        1 LZF      0.186000
     41 H28         1.3660    1.7660   -0.3270 ha        1 LZF      0.151000
     42 H15        -1.3840   -0.5710   -0.1040 hn        1 LZF      0.473800
     43 H221        0.5570   -0.5380   -3.8480 h1        1 LZF      0.113700
     44 H222        1.3540    0.3730   -2.4690 h1        1 LZF      0.113700
     45 H201       -1.6090    0.1650   -4.5160 h1        1 LZF      0.093200
     46 H202       -2.2830    1.7280   -3.8490 h1        1 LZF      0.093200
     47 H181        1.7360    2.1580   -3.7090 h1        1 LZF      0.094700
     48 H182        0.4110    3.3820   -3.4300 h1        1 LZF      0.094700
     49 H13        -1.7710    2.7920   -5.8350 h1        1 LZF      0.071700
     50 H6          1.1270    1.7340   -5.9700 hx        1 LZF      0.145700
     51 H341       -2.8670    0.1860   -6.4850 h1        1 LZF      0.063367
     52 H342       -2.8040    1.6150   -7.6370 h1        1 LZF      0.063367
     53 H343       -2.0140    0.0180   -8.1080 h1        1 LZF      0.063367
     54 H7          0.1750    4.5220   -5.5540 hn        1 LZF      0.461800
     55 H12         0.4600    5.9360   -7.7510 ha        1 LZF      0.154000
     56 H19         1.6960    7.7110   -9.2010 ha        1 LZF      0.205000
     57 H152       -0.8670    0.9330   -0.6520 hn        1 LZF      0.473800
     58 H72         0.3040    3.7670   -7.0350 hn        1 LZF      0.461800
@<TRIPOS>BOND
     1    1    2 1   
     2    2    3 ar  
     3    2   14 ar  
     4    3    4 ar  
     5    3   35 1   
     6    4    5 1   
     7    4   12 ar  
     8    5    6 1   
     9    5   10 1   
    10    6    7 2   
    11    6   37 1   
    12    7    8 1   
    13    7   38 1   
    14    8    9 2   
    15    8   39 1   
    16    9   10 1   
    17    9   40 1   
    18   10   11 2   
    19   12   13 ar  
    20   12   36 1   
    21   13   14 ar  
    22   13   41 1   
    23   14   15 1   
    24   15   16 1   
    25   15   42 1   
    26   15   57 1   
    27   16   17 2   
    28   16   18 1   
    29   18   19 1   
    30   18   43 1   
    31   18   44 1   
    32   19   20 1   
    33   19   24 1   
    34   20   21 1   
    35   20   45 1   
    36   20   46 1   
    37   21   22 1   
    38   21   25 1   
    39   21   49 1   
    40   22   23 1   
    41   23   51 1   
    42   23   52 1   
    43   23   53 1   
    44   24   25 1   
    45   24   47 1   
    46   24   48 1   
    47   25   26 1   
    48   25   50 1   
    49   26   27 1   
    50   26   54 1   
    51   26   58 1   
    52   27   28 2   
    53   27   29 1   
    54   29   30 2   
    55   29   32 1   
    56   30   31 1   
    57   30   55 1   
    58   31   33 2   
    59   31   56 1   
    60   32   33 1   
    61   33   34 1   
@<TRIPOS>SUBSTRUCTURE
     1 LZF         1 TEMP              0 ****  ****    0 ROOT
