@<TRIPOS>MOLECULE
LZF
   56    59     1     0     0
SMALL
bcc


@<TRIPOS>ATOM
      1 F32        17.3670    5.5040   29.4950 f         1 LZF     -0.147900
      2 C17        17.0690    6.8300   29.4890 ca        1 LZF      0.071900
      3 C11        17.2920    7.5710   30.6560 ca        1 LZF     -0.157000
      4 C9         16.9880    8.9440   30.6920 ca        1 LZF      0.025600
      5 N1         17.1900    9.6870   31.8900 n         1 LZF     -0.257200
      6 C21        16.8060    9.1230   33.0950 cc        1 LZF      0.013600
      7 C29        16.9980    9.7500   34.2980 cd        1 LZF     -0.248000
      8 C30        17.6210   11.0350   34.3260 cd        1 LZF     -0.039000
      9 C23        18.0030   11.6240   33.1660 cc        1 LZF     -0.254200
     10 C8         17.7970   10.9760   31.8670 c         1 LZF      0.690700
     11 O25        18.1190   11.4950   30.7830 o         1 LZF     -0.627500
     12 C26        16.4860    9.5600   29.5290 ca        1 LZF     -0.091000
     13 C28        16.2770    8.8280   28.3680 ca        1 LZF     -0.130000
     14 C16        16.5500    7.4470   28.3080 ca        1 LZF      0.044600
     15 N15        16.3680    6.6730   27.1540 n         1 LZF     -0.455100
     16 C14        15.6290    7.0200   26.0350 c         1 LZF      0.664100
     17 O27        15.0680    8.1200   25.8910 o         1 LZF     -0.588100
     18 C22        15.5730    5.9950   24.8880 c3        1 LZF      0.094800
     19 N4         15.3060    4.6410   25.3280 n3        1 LZF     -0.740600
     20 C20        15.6640    3.6230   24.3410 c3        1 LZF      0.131800
     21 C13        14.5610    2.5430   24.3080 c3        1 LZF      0.108100
     22 O33        13.8510    2.5880   23.0750 os        1 LZF     -0.412600
     23 C34        14.4560    1.8220   22.0450 c3        1 LZF      0.114700
     24 C18        13.9290    4.4160   25.7660 c3        1 LZF      0.135800
     25 C6         13.5270    2.9540   25.4070 c3        1 LZF      0.098700
     26 N7         13.5410    2.0670   26.5370 n         1 LZF     -0.561900
     27 C5         12.4240    1.3590   26.9420 c         1 LZF      0.708700
     28 O24        11.3470    1.4310   26.3140 o         1 LZF     -0.601100
     29 C2         12.5670    0.5200   28.1450 cc        1 LZF     -0.208700
     30 C12        13.7500   -0.0220   28.6340 cd        1 LZF     -0.121000
     31 C19        13.5290   -0.7970   29.8040 cd        1 LZF     -0.158000
     32 S3         11.2580    0.0790   29.0840 ss        1 LZF      0.188200
     33 C10        12.1840   -0.8080   30.1520 cc        1 LZF     -0.052700
     34 CL1        11.5500   -1.6100   31.4750 cl        1 LZF     -0.021400
     35 H11        17.7130    7.0530   31.5310 ha        1 LZF      0.153000
     36 H26        16.2800   10.6440   29.5230 ha        1 LZF      0.170000
     37 H21        16.3200    8.1300   33.0310 h4        1 LZF      0.158000
     38 H29        16.6740    9.2750   35.2320 ha        1 LZF      0.152000
     39 H30        17.7780   11.5270   35.2980 ha        1 LZF      0.142000
     40 H23        18.4870   12.6100   33.1190 ha        1 LZF      0.165000
     41 H28        15.8820    9.3520   27.4790 ha        1 LZF      0.184000
     42 H15        16.7090    5.7360   27.2100 hn        1 LZF      0.340500
     43 H221       14.8020    6.3830   24.1590 h1        1 LZF      0.072700
     44 H222       16.5800    6.0200   24.3790 h1        1 LZF      0.072700
     45 H201       15.8030    4.0460   23.3070 h1        1 LZF      0.053700
     46 H202       16.6390    3.1720   24.6720 h1        1 LZF      0.053700
     47 H181       13.8870    4.6120   26.8710 h1        1 LZF      0.060200
     48 H182       13.1980    5.1100   25.2620 h1        1 LZF      0.060200
     49 H13        14.9940    1.5230   24.4740 h1        1 LZF      0.062700
     50 H6         12.4910    2.9490   24.9540 h1        1 LZF      0.124700
     51 H341       13.7860    1.9730   21.1620 h1        1 LZF      0.037033
     52 H342       15.4860    2.1980   21.8260 h1        1 LZF      0.037033
     53 H343       14.4940    0.7410   22.3280 h1        1 LZF      0.037033
     54 H7         14.3580    2.0540   27.0980 hn        1 LZF      0.316500
     55 H12        14.7390    0.1030   28.1870 ha        1 LZF      0.156000
     56 H19        14.3230   -1.3120   30.3480 ha        1 LZF      0.168000
@<TRIPOS>BOND
     1    1    2 1   
     2    2    3 ar  
     3    2   14 ar  
     4    3    4 ar  
     5    3   35 1   
     6    4    5 1   
     7    4   12 ar  
     8    5    6 1   
     9    5   10 1   
    10    6    7 2   
    11    6   37 1   
    12    7    8 1   
    13    7   38 1   
    14    8    9 2   
    15    8   39 1   
    16    9   10 1   
    17    9   40 1   
    18   10   11 2   
    19   12   13 ar  
    20   12   36 1   
    21   13   14 ar  
    22   13   41 1   
    23   14   15 1   
    24   15   16 1   
    25   15   42 1   
    26   16   17 2   
    27   16   18 1   
    28   18   19 1   
    29   18   43 1   
    30   18   44 1   
    31   19   20 1   
    32   19   24 1   
    33   20   21 1   
    34   20   45 1   
    35   20   46 1   
    36   21   22 1   
    37   21   25 1   
    38   21   49 1   
    39   22   23 1   
    40   23   51 1   
    41   23   52 1   
    42   23   53 1   
    43   24   25 1   
    44   24   47 1   
    45   24   48 1   
    46   25   26 1   
    47   25   50 1   
    48   26   27 1   
    49   26   54 1   
    50   27   28 2   
    51   27   29 1   
    52   29   30 2   
    53   29   32 1   
    54   30   31 1   
    55   30   55 1   
    56   31   33 2   
    57   31   56 1   
    58   32   33 1   
    59   33   34 1   
@<TRIPOS>SUBSTRUCTURE
     1 LZF         1 TEMP              0 ****  ****    0 ROOT
