@<TRIPOS>MOLECULE
LZF
   57    60     1     0     0
SMALL
bcc


@<TRIPOS>ATOM
      1 F32         1.4140   -2.4620   -0.1380 f         1 LZF     -0.140900
      2 C17         1.8170   -1.2140    0.2140 ca        1 LZF      0.100900
      3 C11         2.6520   -1.0620    1.3280 ca        1 LZF     -0.163000
      4 C9          3.0770    0.2190    1.7270 ca        1 LZF      0.060600
      5 N1          3.9310    0.3720    2.8530 n         1 LZF     -0.266200
      6 C21         3.7080   -0.4120    3.9770 cc        1 LZF      0.002600
      7 C29         4.5160   -0.3600    5.0800 cd        1 LZF     -0.228000
      8 C30         5.6390    0.5240    5.0900 cd        1 LZF     -0.034000
      9 C23         5.8850    1.3120    4.0140 cc        1 LZF     -0.249200
     10 C8          5.0260    1.2850    2.8270 c         1 LZF      0.695700
     11 O25         5.2100    2.0060    1.8290 o         1 LZF     -0.636500
     12 C26         2.6460    1.3390    0.9870 ca        1 LZF     -0.105000
     13 C28         1.8230    1.1870   -0.1200 ca        1 LZF     -0.108000
     14 C16         1.3890   -0.0830   -0.5410 ca        1 LZF      0.005600
     15 N15         0.5400   -0.2670   -1.6510 n         1 LZF     -0.451100
     16 C14         0.5200    0.5360   -2.7750 c         1 LZF      0.672100
     17 O27         1.1840    1.5870   -2.8690 o         1 LZF     -0.624100
     18 C22        -0.4030    0.0390   -3.9100 c3        1 LZF      0.106800
     19 N4         -0.5390    1.0240   -4.9560 n3        1 LZF     -0.751600
     20 C20        -1.6950    0.8850   -5.8380 c3        1 LZF      0.130800
     21 C13        -1.3610    1.6880   -7.1250 c3        1 LZF      0.124100
     22 O33        -1.3670    0.8650   -8.2770 os        1 LZF     -0.411600
     23 C34        -2.6680    0.6210   -8.8020 c3        1 LZF      0.109700
     24 C18         0.6360    1.2100   -5.8020 c3        1 LZF      0.137800
     25 C6          0.1370    2.1200   -6.9550 c3        1 LZF      0.114500
     26 N7          0.2610    3.5700   -6.5970 n4        1 LZF     -0.665800
     27 C5          1.6300    4.1310   -6.9600 c         1 LZF      0.616700
     28 O24         1.8120    4.2510   -8.1690 o         1 LZF     -0.457100
     29 C2          2.4960    4.4750   -5.8760 cc        1 LZF     -0.322700
     30 C12         2.3710    4.1130   -4.5210 cd        1 LZF     -0.070000
     31 C19         3.4310    4.6190   -3.7490 cd        1 LZF     -0.153000
     32 S3          3.8840    5.3930   -6.1210 ss        1 LZF      0.270200
     33 C10         4.3340    5.3540   -4.5310 cc        1 LZF     -0.010700
     34 CL1         5.6950    6.0950   -3.9300 cl        1 LZF      0.050600
     35 H11         2.9750   -1.9690    1.8660 ha        1 LZF      0.164000
     36 H26         2.9820    2.3520    1.2700 ha        1 LZF      0.175000
     37 H21         2.8240   -1.0760    3.9380 h4        1 LZF      0.159000
     38 H29         4.3040   -0.9890    5.9550 ha        1 LZF      0.160000
     39 H30         6.2870    0.5480    5.9800 ha        1 LZF      0.151000
     40 H23         6.7300    2.0130    3.9580 ha        1 LZF      0.170000
     41 H28         1.5170    2.0860   -0.6820 ha        1 LZF      0.164000
     42 H15         0.0630   -1.1410   -1.6840 hn        1 LZF      0.332500
     43 H221       -1.4290   -0.1540   -3.4830 h1        1 LZF      0.075200
     44 H222        0.0150   -0.9390   -4.2900 h1        1 LZF      0.075200
     45 H201       -2.5890    1.3190   -5.3160 h1        1 LZF      0.074200
     46 H202       -1.9200   -0.1830   -6.1130 h1        1 LZF      0.074200
     47 H181        1.4660    1.6580   -5.1880 h1        1 LZF      0.091200
     48 H182        1.0120    0.2530   -6.2650 h1        1 LZF      0.091200
     49 H13        -2.0650    2.5520   -7.2530 h1        1 LZF      0.060700
     50 H6          0.7070    1.9400   -7.9120 hx        1 LZF      0.147700
     51 H341       -2.4760   -0.0470   -9.6810 h1        1 LZF      0.055033
     52 H342       -3.3060    0.1060   -8.0440 h1        1 LZF      0.055033
     53 H343       -3.1430    1.5780   -9.1280 h1        1 LZF      0.055033
     54 H7          0.0850    3.6890   -5.5920 hn        1 LZF      0.461800
     55 H12         1.5860    3.4860   -4.0760 ha        1 LZF      0.194000
     56 H19         3.5380    4.4480   -2.6710 ha        1 LZF      0.201000
     57 H72        -0.4430    4.0990   -7.1250 hn        1 LZF      0.461800
@<TRIPOS>BOND
     1    1    2 1   
     2    2    3 ar  
     3    2   14 ar  
     4    3    4 ar  
     5    3   35 1   
     6    4    5 1   
     7    4   12 ar  
     8    5    6 1   
     9    5   10 1   
    10    6    7 2   
    11    6   37 1   
    12    7    8 1   
    13    7   38 1   
    14    8    9 2   
    15    8   39 1   
    16    9   10 1   
    17    9   40 1   
    18   10   11 2   
    19   12   13 ar  
    20   12   36 1   
    21   13   14 ar  
    22   13   41 1   
    23   14   15 1   
    24   15   16 1   
    25   15   42 1   
    26   16   17 2   
    27   16   18 1   
    28   18   19 1   
    29   18   43 1   
    30   18   44 1   
    31   19   20 1   
    32   19   24 1   
    33   20   21 1   
    34   20   45 1   
    35   20   46 1   
    36   21   22 1   
    37   21   25 1   
    38   21   49 1   
    39   22   23 1   
    40   23   51 1   
    41   23   52 1   
    42   23   53 1   
    43   24   25 1   
    44   24   47 1   
    45   24   48 1   
    46   25   26 1   
    47   25   50 1   
    48   26   27 1   
    49   26   54 1   
    50   26   57 1   
    51   27   28 2   
    52   27   29 1   
    53   29   30 2   
    54   29   32 1   
    55   30   31 1   
    56   30   55 1   
    57   31   33 2   
    58   31   56 1   
    59   32   33 1   
    60   33   34 1   
@<TRIPOS>SUBSTRUCTURE
     1 LZF         1 TEMP              0 ****  ****    0 ROOT
