@<TRIPOS>MOLECULE
LZF
   57    60     1     0     0
SMALL
bcc


@<TRIPOS>ATOM
      1 F32         1.4650   -2.4870   -0.1770 f         1 LZF     -0.140900
      2 C17         1.8440   -1.2360    0.1880 ca        1 LZF      0.100900
      3 C11         2.6710   -1.0790    1.3070 ca        1 LZF     -0.163000
      4 C9          3.0730    0.2060    1.7200 ca        1 LZF      0.060600
      5 N1          3.9190    0.3630    2.8510 n         1 LZF     -0.266200
      6 C21         3.7040   -0.4350    3.9670 cc        1 LZF      0.002600
      7 C29         4.5060   -0.3800    5.0740 cd        1 LZF     -0.228000
      8 C30         5.6140    0.5240    5.0970 cd        1 LZF     -0.034000
      9 C23         5.8500    1.3260    4.0300 cc        1 LZF     -0.249200
     10 C8          4.9980    1.2950    2.8390 c         1 LZF      0.695700
     11 O25         5.1730    2.0290    1.8480 o         1 LZF     -0.636500
     12 C26         2.6260    1.3250    0.9880 ca        1 LZF     -0.105000
     13 C28         1.8110    1.1690   -0.1250 ca        1 LZF     -0.108000
     14 C16         1.4000   -0.1050   -0.5590 ca        1 LZF      0.004600
     15 N15         0.5600   -0.2930   -1.6750 ns        1 LZF     -0.451100
     16 C14         0.5330    0.5180   -2.7920 c         1 LZF      0.672100
     17 O27         1.1800    1.5810   -2.8740 o         1 LZF     -0.624100
     18 C22        -0.3770    0.0170   -3.9360 c3        1 LZF      0.106800
     19 N4         -0.5220    1.0070   -4.9750 n3        1 LZF     -0.751600
     20 C20        -1.6700    0.8580   -5.8640 c3        1 LZF      0.130800
     21 C13        -1.3420    1.6770   -7.1430 c3        1 LZF      0.124100
     22 O33        -1.3290    0.8630   -8.3020 os        1 LZF     -0.411600
     23 C34        -2.6240    0.6040   -8.8360 c3        1 LZF      0.109700
     24 C18         0.6550    1.2180   -5.8130 c3        1 LZF      0.137800
     25 C6          0.1490    2.1300   -6.9620 c3        1 LZF      0.114500
     26 N7          0.2490    3.5790   -6.5910 ny        1 LZF     -0.665800
     27 C5          1.6110    4.1630   -6.9430 c         1 LZF      0.616700
     28 O24         1.7970    4.2950   -8.1500 o         1 LZF     -0.457100
     29 C2          2.4660    4.5120   -5.8510 cc        1 LZF     -0.322700
     30 C12         2.3390    4.1370   -4.5000 cd        1 LZF     -0.070000
     31 C19         3.3870    4.6530   -3.7180 cd        1 LZF     -0.153000
     32 S3          3.8400    5.4520   -6.0820 ss        1 LZF      0.270200
     33 C10         4.2820    5.4080   -4.4890 cc        1 LZF     -0.010700
     34 Cl1         5.6290    6.1650   -3.8760 cl        1 LZF      0.050600
     35 H11         3.0070   -1.9850    1.8380 ha        1 LZF      0.164000
     36 H26         2.9430    2.3410    1.2810 ha        1 LZF      0.175000
     37 H21         2.8320   -1.1140    3.9170 h4        1 LZF      0.159000
     38 H29         4.3010   -1.0190    5.9430 ha        1 LZF      0.160000
     39 H30         6.2570    0.5510    5.9910 ha        1 LZF      0.151000
     40 H23         6.6830    2.0420    3.9850 ha        1 LZF      0.170000
     41 H28         1.4920    2.0670   -0.6800 ha        1 LZF      0.164000
     42 H15         0.0970   -1.1750   -1.7170 hn        1 LZF      0.332500
     43 H221        0.0590   -0.9520   -4.3220 h1        1 LZF      0.075200
     44 H222       -1.4020   -0.1950   -3.5160 h1        1 LZF      0.075200
     45 H201       -1.8780   -0.2110   -6.1490 h1        1 LZF      0.074200
     46 H202       -2.5740    1.2740   -5.3430 h1        1 LZF      0.074200
     47 H181        1.0480    0.2710   -6.2820 h1        1 LZF      0.091200
     48 H182        1.4740    1.6730   -5.1910 h1        1 LZF      0.091200
     49 H13        -2.0590    2.5310   -7.2680 h1        1 LZF      0.060700
     50 H6          0.7260    1.9660   -7.9170 hx        1 LZF      0.147700
     51 H341       -3.2580    0.0730   -8.0850 h1        1 LZF      0.055033
     52 H342       -3.1120    1.5570   -9.1570 h1        1 LZF      0.055033
     53 H343       -2.4180   -0.0540   -9.7190 h1        1 LZF      0.055033
     54 H7         -0.4610    4.1010   -7.1190 hn        1 LZF      0.461800
     55 H12         1.5610    3.4950   -4.0640 ha        1 LZF      0.194000
     56 H19         3.4920    4.4750   -2.6410 ha        1 LZF      0.201000
     57 H72         0.0660    3.6870   -5.5870 hn        1 LZF      0.461800
@<TRIPOS>BOND
     1    1    2 1   
     2    2    3 ar  
     3    2   14 ar  
     4    3    4 ar  
     5    3   35 1   
     6    4    5 1   
     7    4   12 ar  
     8    5    6 1   
     9    5   10 1   
    10    6    7 2   
    11    6   37 1   
    12    7    8 1   
    13    7   38 1   
    14    8    9 2   
    15    8   39 1   
    16    9   10 1   
    17    9   40 1   
    18   10   11 2   
    19   12   13 ar  
    20   12   36 1   
    21   13   14 ar  
    22   13   41 1   
    23   14   15 1   
    24   15   16 1   
    25   15   42 1   
    26   16   17 2   
    27   16   18 1   
    28   18   19 1   
    29   18   43 1   
    30   18   44 1   
    31   19   20 1   
    32   19   24 1   
    33   20   21 1   
    34   20   45 1   
    35   20   46 1   
    36   21   22 1   
    37   21   25 1   
    38   21   49 1   
    39   22   23 1   
    40   23   51 1   
    41   23   52 1   
    42   23   53 1   
    43   24   25 1   
    44   24   47 1   
    45   24   48 1   
    46   25   26 1   
    47   25   50 1   
    48   26   27 1   
    49   26   54 1   
    50   26   57 1   
    51   27   28 2   
    52   27   29 1   
    53   29   30 2   
    54   29   32 1   
    55   30   31 1   
    56   30   55 1   
    57   31   33 2   
    58   31   56 1   
    59   32   33 1   
    60   33   34 1   
@<TRIPOS>SUBSTRUCTURE
     1 LZF         1 TEMP              0 ****  ****    0 ROOT
