@<TRIPOS>MOLECULE
LZG
   52    55     1     0     0
SMALL
bcc


@<TRIPOS>ATOM
      1 CL1        17.3880   63.2610    7.6940 cl        1 LZG     -0.020400
      2 C10        16.1070   64.1260    7.0590 cc        1 LZG     -0.052700
      3 C19        14.9950   64.5390    7.7840 cd        1 LZG     -0.159000
      4 C13        14.0790   65.2460    6.9600 cd        1 LZG     -0.121000
      5 S3         16.0190   64.6020    5.4620 ss        1 LZG      0.193200
      6 C2         14.5330   65.3410    5.6510 cc        1 LZG     -0.210700
      7 C5         13.8450   66.0220    4.5390 c         1 LZG      0.709700
      8 O24        14.4670   66.4860    3.5610 o         1 LZG     -0.598100
      9 N7         12.4680   66.1290    4.6290 n         1 LZG     -0.561900
     10 C6         11.6740   66.7180    3.5900 c3        1 LZG      0.071700
     11 C12        10.8860   67.9890    4.0810 c3        1 LZG      0.140600
     12 F32        11.0690   69.0410    3.2060 f         1 LZG     -0.229300
     13 C20         9.3970   67.5490    4.1330 c3        1 LZG      0.125800
     14 C18        10.5590   65.7730    3.0520 c3        1 LZG      0.132800
     15 N4          9.2770   66.1850    3.6230 n3        1 LZG     -0.738600
     16 C22         8.1500   66.0030    2.7290 c3        1 LZG      0.092800
     17 C14         7.7990   64.5360    2.4410 c         1 LZG      0.658100
     18 O27         7.4370   64.2060    1.3000 o         1 LZG     -0.564100
     19 N15         7.8660   63.6390    3.4970 n         1 LZG     -0.470100
     20 C16         7.4930   62.2860    3.4250 ca        1 LZG      0.021600
     21 C17         7.8730   61.4390    2.3460 ca        1 LZG      0.140900
     22 F33         8.6160   61.9110    1.3190 f         1 LZG     -0.114900
     23 C28         6.7430   61.7120    4.4740 ca        1 LZG     -0.137000
     24 C26         6.3800   60.3760    4.4620 ca        1 LZG     -0.145000
     25 C9          6.7540   59.5400    3.3870 ca        1 LZG      0.042600
     26 C11         7.4930   60.0860    2.3260 ca        1 LZG     -0.133000
     27 N1          6.3890   58.1630    3.3890 n         1 LZG     -0.260200
     28 C8          5.8950   57.5230    2.2160 c         1 LZG      0.690700
     29 O25         5.8250   58.1520    1.1440 o         1 LZG     -0.620500
     30 C23         5.4920   56.1200    2.3560 cc        1 LZG     -0.251200
     31 C30         5.6050   55.4600    3.5340 cd        1 LZG     -0.040000
     32 C29         6.1300   56.1360    4.6780 cd        1 LZG     -0.246000
     33 C21         6.4990   57.4500    4.5720 cc        1 LZG      0.012600
     34 H19        14.8350   64.3520    8.8480 ha        1 LZG      0.168000
     35 H13        13.1460   65.6680    7.3420 ha        1 LZG      0.156000
     36 H7         11.9910   65.6740    5.3700 hn        1 LZG      0.316500
     37 H6         12.3550   67.0190    2.7400 h1        1 LZG      0.119700
     38 H12        11.2230   68.3240    5.1010 h1        1 LZG      0.073700
     39 H181       10.5670   65.8300    1.9270 h1        1 LZG      0.064700
     40 H182       10.7300   64.7010    3.3430 h1        1 LZG      0.064700
     41 H201        9.0470   67.5350    5.2010 h1        1 LZG      0.060700
     42 H202        8.7680   68.2890    3.5640 h1        1 LZG      0.060700
     43 H221        7.2390   66.4670    3.2060 h1        1 LZG      0.072200
     44 H222        8.3040   66.4920    1.7220 h1        1 LZG      0.072200
     45 H15         8.0520   63.9920    4.4080 hn        1 LZG      0.331500
     46 H28         6.4280   62.3380    5.3250 ha        1 LZG      0.140000
     47 H11         7.7700   59.4730    1.4510 ha        1 LZG      0.182000
     48 H26         5.7790   59.9790    5.2950 ha        1 LZG      0.142000
     49 H21         6.9170   58.0040    5.4340 h4        1 LZG      0.156000
     50 H23         5.0980   55.6590    1.4390 ha        1 LZG      0.166000
     51 H30         5.3030   54.4060    3.6330 ha        1 LZG      0.142000
     52 H29         6.2380   55.6020    5.6310 ha        1 LZG      0.152000
@<TRIPOS>BOND
     1    1    2 1   
     2    2    3 2   
     3    2    5 1   
     4    3    4 1   
     5    3   34 1   
     6    4    6 2   
     7    4   35 1   
     8    5    6 1   
     9    6    7 1   
    10    7    8 2   
    11    7    9 1   
    12    9   10 1   
    13    9   36 1   
    14   10   11 1   
    15   10   14 1   
    16   10   37 1   
    17   11   12 1   
    18   11   13 1   
    19   11   38 1   
    20   13   15 1   
    21   13   41 1   
    22   13   42 1   
    23   14   15 1   
    24   14   39 1   
    25   14   40 1   
    26   15   16 1   
    27   16   17 1   
    28   16   43 1   
    29   16   44 1   
    30   17   18 2   
    31   17   19 1   
    32   19   20 1   
    33   19   45 1   
    34   20   21 ar  
    35   20   23 ar  
    36   21   22 1   
    37   21   26 ar  
    38   23   24 ar  
    39   23   46 1   
    40   24   25 ar  
    41   24   48 1   
    42   25   26 ar  
    43   25   27 1   
    44   26   47 1   
    45   27   28 1   
    46   27   33 1   
    47   28   29 2   
    48   28   30 1   
    49   30   31 2   
    50   30   50 1   
    51   31   32 1   
    52   31   51 1   
    53   32   33 2   
    54   32   52 1   
    55   33   49 1   
@<TRIPOS>SUBSTRUCTURE
     1 LZG         1 TEMP              0 ****  ****    0 ROOT
