@<TRIPOS>MOLECULE
LZG
   53    56     1     0     0
SMALL
bcc


@<TRIPOS>ATOM
      1 CL1         1.4770    3.3710   -4.8130 cl        1 LZG      0.059600
      2 C10         2.7170    2.7180   -3.9210 cc        1 LZG     -0.006700
      3 C19         3.4990    3.4500   -3.0110 cd        1 LZG     -0.146000
      4 C13         4.4680    2.6380   -2.4010 cd        1 LZG     -0.081000
      5 S3          3.1780    1.1350   -3.9980 ss        1 LZG      0.281200
      6 C2          4.4050    1.3070   -2.8610 cc        1 LZG     -0.325700
      7 C5          5.2200    0.1970   -2.4880 c         1 LZG      0.616700
      8 O24         5.2300   -0.9470   -2.9330 o         1 LZG     -0.457100
      9 N7          6.2170    0.4190   -1.3510 n4        1 LZG     -0.664800
     10 C6          7.6250    0.1660   -1.7870 c3        1 LZG      0.072500
     11 C12         8.5600   -0.2420   -0.5840 c3        1 LZG      0.163600
     12 F32         9.2230   -1.4090   -0.8840 f         1 LZG     -0.193300
     13 C20         9.5380    0.9600   -0.4170 c3        1 LZG      0.125800
     14 C18         8.2960    1.4370   -2.3680 c3        1 LZG      0.137800
     15 N4          9.0430    2.0400   -1.2660 n3        1 LZG     -0.753600
     16 C22        10.0430    3.0070   -1.6750 c3        1 LZG      0.086800
     17 C14         9.3760    4.2930   -2.2000 c         1 LZG      0.656100
     18 O27         9.6360    4.7080   -3.3390 o         1 LZG     -0.558100
     19 N15         8.5110    4.9330   -1.3250 n         1 LZG     -0.457100
     20 C16         7.5130    5.8380   -1.7250 ca        1 LZG      0.015600
     21 C17         6.2300    5.7890   -1.1040 ca        1 LZG      0.064900
     22 F33         5.9780    4.8700   -0.1320 f         1 LZG     -0.159900
     23 C28         7.7190    6.8000   -2.7320 ca        1 LZG     -0.101000
     24 C26         6.6990    7.6570   -3.1250 ca        1 LZG     -0.127000
     25 C9          5.4300    7.5980   -2.5150 ca        1 LZG      0.047600
     26 C11         5.2090    6.6690   -1.4820 ca        1 LZG     -0.126000
     27 N1          4.3720    8.4450   -2.9470 n         1 LZG     -0.262200
     28 C8          3.0670    7.9210   -3.1620 c         1 LZG      0.702700
     29 O25         2.8450    6.7100   -2.9480 o         1 LZG     -0.675500
     30 C23         2.0520    8.8610   -3.6360 cc        1 LZG     -0.253200
     31 C30         2.3420   10.1690   -3.8550 cd        1 LZG     -0.027000
     32 C29         3.6670   10.6530   -3.6200 cd        1 LZG     -0.224000
     33 C21         4.6320    9.7890   -3.1790 cc        1 LZG      0.006600
     34 H19         3.3660    4.5260   -2.8100 ha        1 LZG      0.231000
     35 H13         5.1730    3.0420   -1.6660 ha        1 LZG      0.163000
     36 H7          5.9810   -0.2440   -0.6020 hn        1 LZG      0.460800
     37 H6          7.6060   -0.6660   -2.5510 hx        1 LZG      0.148700
     38 H12         7.9820   -0.4010    0.3700 h1        1 LZG      0.075700
     39 H181        8.9530    1.1170   -3.2280 h1        1 LZG      0.086700
     40 H182        7.5610    2.1920   -2.7600 h1        1 LZG      0.086700
     41 H201       10.5830    0.6300   -0.6750 h1        1 LZG      0.086700
     42 H202        9.5300    1.3200    0.6470 h1        1 LZG      0.086700
     43 H221       10.6840    3.2630   -0.7840 h1        1 LZG      0.089200
     44 H222       10.7160    2.6260   -2.4980 h1        1 LZG      0.089200
     45 H15         8.3850    4.5340   -0.4200 hn        1 LZG      0.329500
     46 H28         8.7000    6.8570   -3.2380 ha        1 LZG      0.182000
     47 H11         4.2270    6.5960   -0.9840 ha        1 LZG      0.179000
     48 H26         6.8970    8.3790   -3.9350 ha        1 LZG      0.158000
     49 H21         5.6670   10.1230   -2.9750 h4        1 LZG      0.164000
     50 H23         1.0530    8.4300   -3.7950 ha        1 LZG      0.170000
     51 H30         1.5750   10.8750   -4.2120 ha        1 LZG      0.154000
     52 H29         3.9030   11.7120   -3.7890 ha        1 LZG      0.165000
     53 H72         6.1370    1.3730   -0.9840 hn        1 LZG      0.460800
@<TRIPOS>BOND
     1    1    2 1   
     2    2    3 2   
     3    2    5 1   
     4    3    4 1   
     5    3   34 1   
     6    4    6 2   
     7    4   35 1   
     8    5    6 1   
     9    6    7 1   
    10    7    8 2   
    11    7    9 1   
    12    9   10 1   
    13    9   36 1   
    14    9   53 1   
    15   10   11 1   
    16   10   14 1   
    17   10   37 1   
    18   11   12 1   
    19   11   13 1   
    20   11   38 1   
    21   13   15 1   
    22   13   41 1   
    23   13   42 1   
    24   14   15 1   
    25   14   39 1   
    26   14   40 1   
    27   15   16 1   
    28   16   17 1   
    29   16   43 1   
    30   16   44 1   
    31   17   18 2   
    32   17   19 1   
    33   19   20 1   
    34   19   45 1   
    35   20   21 ar  
    36   20   23 ar  
    37   21   22 1   
    38   21   26 ar  
    39   23   24 ar  
    40   23   46 1   
    41   24   25 ar  
    42   24   48 1   
    43   25   26 ar  
    44   25   27 1   
    45   26   47 1   
    46   27   28 1   
    47   27   33 1   
    48   28   29 2   
    49   28   30 1   
    50   30   31 2   
    51   30   50 1   
    52   31   32 1   
    53   31   51 1   
    54   32   33 2   
    55   32   52 1   
    56   33   49 1   
@<TRIPOS>SUBSTRUCTURE
     1 LZG         1 TEMP              0 ****  ****    0 ROOT
