@<TRIPOS>MOLECULE
LZG
   53    56     1     0     0
SMALL
bcc


@<TRIPOS>ATOM
      1 Cl1         1.4300    3.3270   -4.6860 cl        1 LZG      0.059600
      2 C10         2.6890    2.6920   -3.8080 cc        1 LZG     -0.006700
      3 C19         3.4890    3.4420   -2.9290 cd        1 LZG     -0.146000
      4 C13         4.4710    2.6420   -2.3240 cd        1 LZG     -0.081000
      5 S3          3.1490    1.1070   -3.8630 ss        1 LZG      0.281200
      6 C2          4.3990    1.3020   -2.7550 cc        1 LZG     -0.325700
      7 C5          5.2220    0.1990   -2.3770 c         1 LZG      0.616700
      8 O24         5.2230   -0.9540   -2.8000 o         1 LZG     -0.457100
      9 N7          6.2440    0.4440   -1.2660 ny        1 LZG     -0.664800
     10 C6          7.6420    0.1810   -1.7280 c3        1 LZG      0.072500
     11 C12         8.6020   -0.2020   -0.5360 c3        1 LZG      0.163600
     12 F32         9.2590   -1.3760   -0.8260 f         1 LZG     -0.193300
     13 C20         9.5830    1.0030   -0.4160 c3        1 LZG      0.125800
     14 C18         8.3000    1.4400   -2.3490 c3        1 LZG      0.137800
     15 N4          9.0700    2.0650   -1.2760 n3        1 LZG     -0.753600
     16 C22        10.0610    3.0230   -1.7260 c3        1 LZG      0.086800
     17 C14         9.3830    4.2980   -2.2630 c         1 LZG      0.656100
     18 O27         9.6170    4.6900   -3.4160 o         1 LZG     -0.558100
     19 N15         8.5370    4.9560   -1.3830 ns        1 LZG     -0.457100
     20 C16         7.5300    5.8540   -1.7790 ca        1 LZG      0.015600
     21 C17         6.2610    5.8170   -1.1300 ca        1 LZG      0.064900
     22 F33         6.0300    4.9180   -0.1340 f         1 LZG     -0.159900
     23 C28         7.7150    6.7950   -2.8100 ca        1 LZG     -0.101000
     24 C26         6.6860    7.6440   -3.1970 ca        1 LZG     -0.127000
     25 C9          5.4300    7.5980   -2.5590 ca        1 LZG      0.047600
     26 C11         5.2320    6.6890   -1.5020 ca        1 LZG     -0.126000
     27 N1          4.3630    8.4360   -2.9850 n         1 LZG     -0.262200
     28 C8          3.0540    7.9090   -3.1600 c         1 LZG      0.702700
     29 O25         2.8370    6.7030   -2.9170 o         1 LZG     -0.675500
     30 C23         2.0290    8.8400   -3.6310 cc        1 LZG     -0.253200
     31 C30         2.3140   10.1430   -3.8820 cd        1 LZG     -0.027000
     32 C29         3.6430   10.6300   -3.6860 cd        1 LZG     -0.224000
     33 C21         4.6180    9.7750   -3.2490 cc        1 LZG      0.006600
     34 H19         3.3600    4.5210   -2.7470 ha        1 LZG      0.231000
     35 H13         5.1910    3.0600   -1.6120 ha        1 LZG      0.163000
     36 H7          6.1710    1.4050   -0.9180 hn        1 LZG      0.460800
     37 H6          7.6060   -0.6670   -2.4740 hx        1 LZG      0.148700
     38 H12         8.0450   -0.3410    0.4320 h1        1 LZG      0.075700
     39 H181        8.9380    1.1010   -3.2170 h1        1 LZG      0.086700
     40 H182        7.5570    2.1870   -2.7410 h1        1 LZG      0.086700
     41 H201        9.5980    1.3850    0.6410 h1        1 LZG      0.086700
     42 H202       10.6230    0.6670   -0.6900 h1        1 LZG      0.086700
     43 H221       10.7220    3.2970   -0.8550 h1        1 LZG      0.089200
     44 H222       10.7160    2.6260   -2.5560 h1        1 LZG      0.089200
     45 H15         8.4310    4.5750   -0.4670 hn        1 LZG      0.329500
     46 H28         8.6840    6.8410   -3.3380 ha        1 LZG      0.182000
     47 H11         4.2610    6.6270   -0.9820 ha        1 LZG      0.179000
     48 H26         6.8660    8.3500   -4.0250 ha        1 LZG      0.158000
     49 H21         5.6570   10.1130   -3.0740 h4        1 LZG      0.164000
     50 H23         1.0270    8.4060   -3.7590 ha        1 LZG      0.170000
     51 H30         1.5400   10.8420   -4.2360 ha        1 LZG      0.154000
     52 H29         3.8760   11.6860   -3.8810 ha        1 LZG      0.165000
     53 H72         6.0230   -0.2030   -0.4990 hn        1 LZG      0.460800
@<TRIPOS>BOND
     1    1    2 1   
     2    2    3 2   
     3    2    5 1   
     4    3    4 1   
     5    3   34 1   
     6    4    6 2   
     7    4   35 1   
     8    5    6 1   
     9    6    7 1   
    10    7    8 2   
    11    7    9 1   
    12    9   10 1   
    13    9   36 1   
    14    9   53 1   
    15   10   11 1   
    16   10   14 1   
    17   10   37 1   
    18   11   12 1   
    19   11   13 1   
    20   11   38 1   
    21   13   15 1   
    22   13   41 1   
    23   13   42 1   
    24   14   15 1   
    25   14   39 1   
    26   14   40 1   
    27   15   16 1   
    28   16   17 1   
    29   16   43 1   
    30   16   44 1   
    31   17   18 2   
    32   17   19 1   
    33   19   20 1   
    34   19   45 1   
    35   20   21 ar  
    36   20   23 ar  
    37   21   22 1   
    38   21   26 ar  
    39   23   24 ar  
    40   23   46 1   
    41   24   25 ar  
    42   24   48 1   
    43   25   26 ar  
    44   25   27 1   
    45   26   47 1   
    46   27   28 1   
    47   27   33 1   
    48   28   29 2   
    49   28   30 1   
    50   30   31 2   
    51   30   50 1   
    52   31   32 1   
    53   31   51 1   
    54   32   33 2   
    55   32   52 1   
    56   33   49 1   
@<TRIPOS>SUBSTRUCTURE
     1 LZG         1 TEMP              0 ****  ****    0 ROOT
