@<TRIPOS>MOLECULE
LZG
   54    57     1     0     0
SMALL
bcc


@<TRIPOS>ATOM
      1 CL1         0.6400   -3.4400   -2.0060 cl        1 LZG      0.084600
      2 C10         2.0170   -2.5720   -1.6870 cc        1 LZG     -0.011700
      3 C19         2.9330   -2.9120   -0.6690 cd        1 LZG     -0.145000
      4 C13         4.0030   -2.0130   -0.6240 cd        1 LZG     -0.082000
      5 S3          2.4830   -1.2240   -2.5070 ss        1 LZG      0.342200
      6 C2          3.8840   -1.0040   -1.6080 cc        1 LZG     -0.350700
      7 C5          4.7800    0.0740   -1.8530 c         1 LZG      0.628700
      8 O24         4.6990    1.0240   -2.6230 o         1 LZG     -0.461100
      9 N7          6.0690    0.0440   -1.0100 n4        1 LZG     -0.666800
     10 C6          7.1370    0.9340   -1.5320 c3        1 LZG      0.044500
     11 C12         8.5390    0.6640   -0.8820 c3        1 LZG      0.146600
     12 F32         9.3080   -0.1180   -1.7110 f         1 LZG     -0.190300
     13 C20         9.1470    2.0850   -0.6770 c3        1 LZG      0.115800
     14 C18         6.8930    2.4530   -1.2950 c3        1 LZG      0.157800
     15 N4          8.1890    3.1030   -1.1130 n3        1 LZG     -0.735600
     16 C22         8.6340    3.9080   -2.2360 c3        1 LZG      0.094800
     17 C14         9.4020    5.1360   -1.7580 c         1 LZG      0.543100
     18 O27        10.5610    5.4150   -2.0070 o         1 LZG     -0.385100
     19 N15         8.6360    6.1270   -0.9080 n4        1 LZG     -0.521200
     20 C16         7.7530    6.9590   -1.7210 ca        1 LZG     -0.153400
     21 C17         6.3920    6.5980   -1.9130 ca        1 LZG      0.163900
     22 F33         5.9110    5.4660   -1.3390 f         1 LZG     -0.139900
     23 C28         8.2320    8.1420   -2.3130 ca        1 LZG     -0.046000
     24 C26         7.3960    8.9300   -3.0870 ca        1 LZG     -0.158000
     25 C9          6.0380    8.5740   -3.3010 ca        1 LZG      0.162600
     26 C11         5.5460    7.3980   -2.6830 ca        1 LZG     -0.148000
     27 N1          5.2040    9.3600   -4.1140 n         1 LZG     -0.279200
     28 C8          4.2100    8.7590   -4.9580 c         1 LZG      0.703700
     29 O25         4.0560    7.5250   -4.9260 o         1 LZG     -0.624500
     30 C23         3.4460    9.6590   -5.8240 cc        1 LZG     -0.230200
     31 C30         3.6590   10.9960   -5.8290 cd        1 LZG     -0.027000
     32 C29         4.6520   11.5600   -4.9590 cd        1 LZG     -0.174000
     33 C21         5.3840   10.7490   -4.1450 cc        1 LZG     -0.031400
     34 H19         2.8160   -3.7740   -0.0000 ha        1 LZG      0.206000
     35 H13         4.8120   -2.1070    0.1050 ha        1 LZG      0.154000
     36 H7          5.8250    0.3080   -0.0490 hn        1 LZG      0.461800
     37 H6          7.2050    0.7390   -2.6460 hx        1 LZG      0.142700
     38 H12         8.4510    0.1490    0.1170 h1        1 LZG      0.088700
     39 H181        6.3110    2.6270   -0.3450 h1        1 LZG      0.099200
     40 H182        6.2960    2.8830   -2.1480 h1        1 LZG      0.099200
     41 H201        9.3270    2.2470    0.4230 h1        1 LZG      0.104200
     42 H202       10.1340    2.1550   -1.2120 h1        1 LZG      0.104200
     43 H221        9.3360    3.3620   -2.9380 h1        1 LZG      0.116700
     44 H222        7.7510    4.2800   -2.8390 h1        1 LZG      0.116700
     45 H15         8.0710    5.6170   -0.2160 hn        1 LZG      0.473800
     46 H28         9.2840    8.4530   -2.1790 ha        1 LZG      0.171000
     47 H11         4.4920    7.0850   -2.8130 ha        1 LZG      0.215000
     48 H26         7.8180    9.8360   -3.5570 ha        1 LZG      0.183000
     49 H21         6.1360   11.1590   -3.4450 h4        1 LZG      0.163000
     50 H23         2.6960    9.1620   -6.4600 ha        1 LZG      0.187000
     51 H30         3.0840   11.6710   -6.4840 ha        1 LZG      0.172000
     52 H29         4.8100   12.6490   -4.9480 ha        1 LZG      0.178000
     53 H72         6.4230   -0.9210   -1.0020 hn        1 LZG      0.461800
     54 H152        9.3030    6.7400   -0.4140 hn        1 LZG      0.473800
@<TRIPOS>BOND
     1    1    2 1   
     2    2    3 2   
     3    2    5 1   
     4    3    4 1   
     5    3   34 1   
     6    4    6 2   
     7    4   35 1   
     8    5    6 1   
     9    6    7 1   
    10    7    8 2   
    11    7    9 1   
    12    9   10 1   
    13    9   36 1   
    14    9   53 1   
    15   10   11 1   
    16   10   14 1   
    17   10   37 1   
    18   11   12 1   
    19   11   13 1   
    20   11   38 1   
    21   13   15 1   
    22   13   41 1   
    23   13   42 1   
    24   14   15 1   
    25   14   39 1   
    26   14   40 1   
    27   15   16 1   
    28   16   17 1   
    29   16   43 1   
    30   16   44 1   
    31   17   18 2   
    32   17   19 1   
    33   19   20 1   
    34   19   45 1   
    35   19   54 1   
    36   20   21 ar  
    37   20   23 ar  
    38   21   22 1   
    39   21   26 ar  
    40   23   24 ar  
    41   23   46 1   
    42   24   25 ar  
    43   24   48 1   
    44   25   26 ar  
    45   25   27 1   
    46   26   47 1   
    47   27   28 1   
    48   27   33 1   
    49   28   29 2   
    50   28   30 1   
    51   30   31 2   
    52   30   50 1   
    53   31   32 1   
    54   31   51 1   
    55   32   33 2   
    56   32   52 1   
    57   33   49 1   
@<TRIPOS>SUBSTRUCTURE
     1 LZG         1 TEMP              0 ****  ****    0 ROOT
