@<TRIPOS>MOLECULE
LZH
   58    58     1     0     0
SMALL
bcc


@<TRIPOS>ATOM
      1 F32       381.8740   -0.1470  332.5060 f         1 LZH     -0.109000
      2 C17       383.0650    0.0880  333.1400 c3        1 LZH      0.119000
      3 C11       383.0990   -0.2510  334.5810 cu        1 LZH     -0.049000
      4 C9        383.2780   -0.5710  335.9430 cu        1 LZH      0.242000
      5 N1        382.9630   -0.4340  337.2180 n         1 LZH     -0.258000
      6 C21       383.6890   -1.2200  338.2580 c3        1 LZH     -0.046000
      7 C29       383.0660   -2.3350  338.8990 c1        1 LZH     -0.097000
      8 C30       381.8190   -2.9220  338.7690 c2        1 LZH     -0.522000
      9 C23       381.5000   -3.9850  339.5320 c1        1 LZH      0.523000
     10 C8        381.9340    0.4770  337.6480 c2        1 LZH      0.263000
     11 O25       381.2560    1.1050  336.8440 o         1 LZH     -0.221000
     12 C26       384.0770   -1.1680  334.9370 cu        1 LZH     -0.023000
     13 C28       384.8860   -1.6830  333.8440 c3        1 LZH     -0.116000
     14 C16       384.2200   -0.9470  332.5930 c3        1 LZH      0.006000
     15 N15       385.1630   -0.2840  331.7580 n         1 LZH     -0.397000
     16 C14       386.0260    0.6990  332.2110 c2        1 LZH      0.268000
     17 C13      -351.6940    2.5650 -311.5080 c3        1 LZH      0.018000
     18 O27       386.0320    1.0600  333.3990 o         1 LZH     -0.369000
     19 C24      -351.2700    1.3310 -310.7100 c3        1 LZH     -0.239000
     20 C22      -353.5730    5.1650 -311.9320 c2        1 LZH      0.077000
     21 N4       -352.7130    4.8210 -311.0110 n3        1 LZH      0.043000
     22 C20      -352.5870    3.4250 -310.5610 c3        1 LZH     -0.090000
     23 O24      -352.1130    4.2760 -313.7060 o         1 LZH     -0.453000
     24 C2       -352.5070    2.4500 -315.1790 c2        1 LZH     -0.705000
     25 C12      -352.8770    1.0020 -315.3530 c3        1 LZH     -0.194000
     26 C19      -353.0320    0.7400 -316.7960 c1        1 LZH     -0.017000
     27 S3       -352.3880    3.1910 -316.5660 ss        1 LZH      1.116000
     28 C10      -352.7630    1.9120 -317.5170 c2        1 LZH     -0.584000
     29 CL1      -352.8160    2.0010 -319.1820 cl        1 LZH      0.103000
     30 C15      -351.7990    5.7360 -310.4420 c2        1 LZH     -0.372000
     31 H11       383.3780    1.1630  332.9880 h1        1 LZH      0.172000
     32 H26       385.9680   -1.4040  333.9650 hc        1 LZH      0.166500
     33 H21       383.9810   -0.4860  339.0760 h1        1 LZH      0.174500
     34 H29       384.6540   -1.6040  337.7980 h1        1 LZH      0.174500
     35 H30       381.0450   -2.5600  338.0550 ha        1 LZH      0.171000
     36 H23       381.8520    0.5220  338.7580 h5        1 LZH      0.195000
     37 H28       384.8130   -2.7940  333.7250 hc        1 LZH      0.166500
     38 H15       383.6730   -1.7260  331.9900 h1        1 LZH      0.142000
     39 H221      386.6990    1.1190  331.4280 h5        1 LZH      0.168000
     40 H222     -354.2670    4.4120 -312.3590 h4        1 LZH      0.195000
     41 H13      -352.1140    3.4290 -309.5380 h1        1 LZH      0.145000
     42 H241     -352.1570    0.7480 -310.3610 hc        1 LZH      0.108667
     43 H242     -351.6840    5.6880 -309.3410 h4        1 LZH      0.236000
     44 H201     -353.6200    2.9820 -310.4820 h1        1 LZH      0.145000
     45 H202     -350.7650    3.1680 -311.7540 h1        1 LZH      0.120000
     46 H7       -350.6250    0.6640 -311.3330 hc        1 LZH      0.108667
     47 HA       -350.6770    1.6520 -309.8190 hc        1 LZH      0.108667
     48 H33      -353.6220    6.2050 -312.3120 h4        1 LZH      0.195000
     49 H12      -353.8430    0.7490 -314.8340 hc        1 LZH      0.169000
     50 H19      -352.0820    0.3120 -314.9540 hc        1 LZH      0.169000
     51 C34      -351.0620    6.6140 -311.1310 c1        1 LZH      0.339000
     52 O33      -350.3850    7.4150 -311.6610 o         1 LZH     -0.015000
     53 H341      -40.3380  -68.0160  -55.4870 ha        1 LZH      0.000000
     54 H342      -40.4690  -68.5950  -55.1620 ha        1 LZH      0.000000
     55 H152      385.1560   -0.5200  330.7920 hn        1 LZH      0.256000
     56 H72      -352.5050    1.2440 -312.8950 hn        1 LZH      0.242000
     57 N7       -352.3640    2.2200 -312.7440 n         1 LZH     -0.373000
     58 C5       -352.2930    3.0380 -313.8660 c2        1 LZH      0.406000
@<TRIPOS>BOND
     1    1    2 1   
     2    2    3 1   
     3    2   14 1   
     4    2   31 1   
     5    3    4 1   
     6    3   12 1   
     7    4    5 1   
     8    4   12 1   
     9    5    6 1   
    10    5   10 1   
    11    6    7 1   
    12    6   33 1   
    13    6   34 1   
    14    7    8 1   
    15    8    9 1   
    16    8   35 1   
    17   10   11 1   
    18   10   36 1   
    19   12   13 1   
    20   13   14 1   
    21   13   32 1   
    22   13   37 1   
    23   14   15 1   
    24   14   38 1   
    25   15   16 1   
    26   15   55 1   
    27   16   18 1   
    28   16   39 1   
    29   17   19 1   
    30   17   22 1   
    31   17   45 1   
    32   17   57 1   
    33   19   42 1   
    34   19   46 1   
    35   19   47 1   
    36   20   21 1   
    37   20   40 1   
    38   20   48 1   
    39   21   22 1   
    40   21   30 1   
    41   22   41 1   
    42   22   44 1   
    43   23   58 1   
    44   24   25 1   
    45   24   27 1   
    46   24   58 1   
    47   25   26 1   
    48   25   49 1   
    49   25   50 1   
    50   26   28 1   
    51   27   28 1   
    52   28   29 1   
    53   30   43 1   
    54   30   51 1   
    55   51   52 1   
    56   53   54 1   
    57   56   57 1   
    58   57   58 1   
@<TRIPOS>SUBSTRUCTURE
     1 LZH         1 TEMP              0 ****  ****    0 ROOT
