@<TRIPOS>MOLECULE
LZH
   56    59     1     0     0
SMALL
bcc


@<TRIPOS>ATOM
      1 F32         8.9880   62.2530    1.1780 f         1 LZH     -0.114900
      2 C17         8.1390   61.8620    2.1550 ca        1 LZH      0.138900
      3 C11         7.7430   60.5140    2.1940 ca        1 LZH     -0.132000
      4 C9          6.8940   60.0520    3.2120 ca        1 LZH      0.040600
      5 N1          6.5120   58.6810    3.2760 n         1 LZH     -0.259200
      6 C21         6.4950   58.0550    4.5120 cc        1 LZH      0.013600
      7 C29         6.0990   56.7540    4.6760 cd        1 LZH     -0.247000
      8 C30         5.6800   56.0010    3.5370 cd        1 LZH     -0.040000
      9 C23         5.6930   56.5740    2.3080 cc        1 LZH     -0.252200
     10 C8          6.1270   57.9610    2.1080 c         1 LZH      0.690700
     11 O25         6.1720   58.5100    0.9930 o         1 LZH     -0.620500
     12 C26         6.4260   60.9650    4.1800 ca        1 LZH     -0.145000
     13 C28         6.8060   62.2970    4.1340 ca        1 LZH     -0.139000
     14 C16         7.6650   62.7890    3.1280 ca        1 LZH      0.025600
     15 N15         8.0490   64.1390    3.1400 n         1 LZH     -0.471100
     16 C14         8.1110   64.9590    2.0220 c         1 LZH      0.659100
     17 C13        11.9450   67.1190    3.2440 c3        1 LZH      0.101700
     18 O27         7.8730   64.5490    0.8750 o         1 LZH     -0.567100
     19 C24        11.1810   68.4170    3.5920 c3        1 LZH     -0.111400
     20 C22         8.4450   66.4420    2.2520 c3        1 LZH      0.087800
     21 N4          9.5390   66.6560    3.1740 n3        1 LZH     -0.737600
     22 C20        10.8310   66.1930    2.6670 c3        1 LZH      0.132800
     23 N7         12.6320   66.5340    4.3650 n         1 LZH     -0.560900
     24 C5         14.0090   66.4560    4.4330 c         1 LZH      0.708700
     25 O24        14.7300   66.9120    3.5210 o         1 LZH     -0.609100
     26 C2         14.5830   65.8080    5.6270 cc        1 LZH     -0.207700
     27 C12        13.9960   65.7400    6.8850 cd        1 LZH     -0.123000
     28 C19        14.8250   65.0610    7.8160 cd        1 LZH     -0.159000
     29 S3         16.0830   65.0740    5.6110 ss        1 LZH      0.190200
     30 C10        16.0080   64.6390    7.2210 cc        1 LZH     -0.052700
     31 CL1        17.2210   63.8000    8.0060 cl        1 LZH     -0.021400
     32 C15         9.6930   68.0250    3.6880 c3        1 LZH      0.139500
     33 H11         8.0970   59.8370    1.3980 ha        1 LZH      0.181000
     34 H26         5.7400   60.6350    4.9760 ha        1 LZH      0.141000
     35 H21         6.8330   58.6680    5.3690 h4        1 LZH      0.156000
     36 H29         6.1050   56.2910    5.6700 ha        1 LZH      0.152000
     37 H30         5.3540   54.9590    3.6810 ha        1 LZH      0.142000
     38 H23         5.3840   56.0500    1.3930 ha        1 LZH      0.165000
     39 H28         6.4160   62.9850    4.9020 ha        1 LZH      0.139000
     40 H15         8.1380   64.5590    4.0380 hn        1 LZH      0.329500
     41 H221        8.6380   66.8760    1.2270 h1        1 LZH      0.081700
     42 H222        7.5160   66.9300    2.6680 h1        1 LZH      0.081700
     43 H13        12.7090   67.3300    2.4400 h1        1 LZH      0.102700
     44 H241       11.5240   68.8800    4.5480 hc        1 LZH      0.063200
     45 H242       11.3420   69.1600    2.7720 hc        1 LZH      0.063200
     46 H201       10.8920   66.2300    1.5430 h1        1 LZH      0.061700
     47 H202       10.9560   65.1220    2.9820 h1        1 LZH      0.061700
     48 H7         12.0790   66.1340    5.0840 hn        1 LZH      0.317500
     49 HA          9.3960   67.9580    4.7780 h1        1 LZH      0.054700
     50 H33         7.4140   69.1170    4.3650 ho        1 LZH      0.401000
     51 H12        13.0260   66.1630    7.1560 ha        1 LZH      0.155000
     52 H19        14.5560   64.8980    8.8620 ha        1 LZH      0.167000
     53 C34         8.8370   69.1310    3.0510 c3        1 LZH      0.108400
     54 O33         7.4730   69.0250    3.4060 oh        1 LZH     -0.596800
     55 H341        8.8450   69.0760    1.9300 h1        1 LZH      0.057700
     56 H342        9.2410   70.1280    3.3760 h1        1 LZH      0.057700
@<TRIPOS>BOND
     1    1    2 1   
     2    2    3 ar  
     3    2   14 ar  
     4    3    4 ar  
     5    3   33 1   
     6    4    5 1   
     7    4   12 ar  
     8    5    6 1   
     9    5   10 1   
    10    6    7 2   
    11    6   35 1   
    12    7    8 1   
    13    7   36 1   
    14    8    9 2   
    15    8   37 1   
    16    9   10 1   
    17    9   38 1   
    18   10   11 2   
    19   12   13 ar  
    20   12   34 1   
    21   13   14 ar  
    22   13   39 1   
    23   14   15 1   
    24   15   16 1   
    25   15   40 1   
    26   16   18 2   
    27   16   20 1   
    28   17   19 1   
    29   17   22 1   
    30   17   23 1   
    31   17   43 1   
    32   19   32 1   
    33   19   44 1   
    34   19   45 1   
    35   20   21 1   
    36   20   41 1   
    37   20   42 1   
    38   21   22 1   
    39   21   32 1   
    40   22   46 1   
    41   22   47 1   
    42   23   24 1   
    43   23   48 1   
    44   24   25 2   
    45   24   26 1   
    46   26   27 2   
    47   26   29 1   
    48   27   28 1   
    49   27   51 1   
    50   28   30 2   
    51   28   52 1   
    52   29   30 1   
    53   30   31 1   
    54   32   49 1   
    55   32   53 1   
    56   50   54 1   
    57   53   54 1   
    58   53   55 1   
    59   53   56 1   
@<TRIPOS>SUBSTRUCTURE
     1 LZH         1 TEMP              0 ****  ****    0 ROOT
