@<TRIPOS>MOLECULE
LZH
   57    56     1     0     0
SMALL
bcc


@<TRIPOS>ATOM
      1 F32         3.2160    3.9410   -3.8620 f         1 LZH     -0.094000
      2 C17         3.3950    3.5310   -2.5950 c2        1 LZH      0.020000
      3 C11         1.9790    0.4220   -0.4940 c1        1 LZH     -0.067000
      4 C9          2.9050    0.0830    0.5550 c2        1 LZH     -0.008000
      5 N1          3.2720   -0.6350    1.6230 n         1 LZH     -0.255000
      6 C21         2.3340   -1.6230    2.1820 c3        1 LZH     -0.060000
      7 C29         1.5910   -1.3470    3.3890 c1        1 LZH     -0.073000
      8 C30         1.6030   -0.1870    4.1680 c2        1 LZH     -0.532000
      9 C23         0.8360   -0.1060    5.2620 c1        1 LZH      0.462000
     10 C8          4.5460   -0.4800    2.2220 c2        1 LZH      0.260000
     11 O25         5.3820    0.3150    1.7870 o         1 LZH     -0.291000
     12 C26         3.2110    1.0780   -0.3630 c2        1 LZH     -0.143000
     13 C28         4.1890    2.0630   -0.7790 c3        1 LZH     -0.065000
     14 C16         4.0600    2.3960   -2.2440 c2        1 LZH     -0.064000
     15 N15         4.6680    1.5180   -3.1640 n         1 LZH     -0.333000
     16 C14         4.0170    0.8250   -4.1520 c2        1 LZH      0.296000
     17 C13        -1.1720   -2.4710   -4.3520 c3        1 LZH      0.032000
     18 O27         2.7800    0.8340   -4.3110 o         1 LZH     -0.438000
     19 C24        -1.8530   -1.8010   -5.5420 c3        1 LZH     -0.235000
     20 C22        -0.0870    0.3110   -2.3440 cx        1 LZH     -0.143000
     21 N4          0.1340   -0.4910   -3.5540 n3        1 LZH     -0.148000
     22 C20         0.2220   -1.7990   -4.1010 c3        1 LZH     -0.052000
     23 O24        -0.5600   -4.2310   -2.3270 o         1 LZH     -0.387000
     24 C2         -0.7590   -6.1740   -3.6950 c2        1 LZH     -0.649000
     25 C12        -0.7800   -6.7490   -5.0870 c3        1 LZH     -0.185000
     26 C19        -0.7170   -8.2180   -4.9670 c1        1 LZH     -0.062000
     27 S3         -0.7010   -7.2940   -2.5980 ss        1 LZH      1.072000
     28 C10        -0.6810   -8.5880   -3.6320 c2        1 LZH     -0.579000
     29 CL1        -0.6250  -10.1630   -3.0790 cl        1 LZH      0.077000
     30 C15         0.2810    0.7820   -3.7160 cu        1 LZH      0.172000
     31 H11         2.9400    4.2000   -1.8430 h4        1 LZH      0.162000
     32 H26         4.0440    3.0020   -0.1690 hc        1 LZH      0.136000
     33 H21         2.9130   -2.5820    2.3710 h1        1 LZH      0.164000
     34 H29         1.5540   -1.8600    1.3880 h1        1 LZH      0.164000
     35 H30         2.2290    0.7000    3.9180 ha        1 LZH      0.170000
     36 H23         4.7020   -1.1460    3.1010 h5        1 LZH      0.168000
     37 H28         5.2270    1.6880   -0.5400 hc        1 LZH      0.136000
     38 H15         5.6560    1.4240   -3.0770 hn        1 LZH      0.250000
     39 H221        4.6980    0.2310   -4.8080 h5        1 LZH      0.146000
     40 H222        0.7270    0.2780   -1.4740 h1        1 LZH      0.211500
     41 H13        -1.8040   -2.3090   -3.4240 h1        1 LZH      0.121000
     42 H241       -1.2250   -1.8670   -6.4630 hc        1 LZH      0.094333
     43 H242       -2.0310   -0.7240   -5.3040 hc        1 LZH      0.094333
     44 H201        0.7960   -2.4260   -3.3530 h1        1 LZH      0.140500
     45 H202        0.7970   -1.7430   -5.0690 h1        1 LZH      0.140500
     46 H7         -2.8430   -2.2770   -5.7510 hc        1 LZH      0.094333
     47 HA          0.6130    1.5300   -4.4340 h4        1 LZH      0.264000
     48 H33        -1.1350    0.4040   -1.9850 h1        1 LZH      0.211500
     49 H12         0.0910   -6.3880   -5.6980 hc        1 LZH      0.163500
     50 H19        -1.7240   -6.4770   -5.6360 hc        1 LZH      0.163500
     51 C34        -1.9330    1.6150   -4.4890 c1        1 LZH      0.130000
     52 O33        -2.9230    2.1270   -4.8290 o         1 LZH     -0.114000
     53 H341       -3.4430   -0.4080   -2.7550 ha        1 LZH      0.001500
     54 H342       -3.0110   -0.1710   -3.2220 ha        1 LZH      0.001500
     55 H72        -1.1700   -4.2680   -5.4390 hn        1 LZH      0.244000
     56 N7         -1.0190   -3.8930   -4.5340 n         1 LZH     -0.378000
     57 C5         -0.7740   -4.7280   -3.4570 c2        1 LZH      0.389000
@<TRIPOS>BOND
     1    1    2 1   
     2    2   14 1   
     3    2   31 1   
     4    3    4 1   
     5    3   12 1   
     6    4    5 1   
     7    4   12 1   
     8    5    6 1   
     9    5   10 1   
    10    6    7 1   
    11    6   33 1   
    12    6   34 1   
    13    7    8 1   
    14    8    9 1   
    15    8   35 1   
    16   10   11 1   
    17   10   36 1   
    18   12   13 1   
    19   13   14 1   
    20   13   32 1   
    21   13   37 1   
    22   14   15 1   
    23   15   16 1   
    24   15   38 1   
    25   16   18 1   
    26   16   39 1   
    27   17   19 1   
    28   17   22 1   
    29   17   41 1   
    30   17   56 1   
    31   19   42 1   
    32   19   43 1   
    33   19   46 1   
    34   20   21 1   
    35   20   30 1   
    36   20   40 1   
    37   20   48 1   
    38   21   22 1   
    39   21   30 1   
    40   22   44 1   
    41   22   45 1   
    42   23   57 1   
    43   24   25 1   
    44   24   27 1   
    45   24   57 1   
    46   25   26 1   
    47   25   49 1   
    48   25   50 1   
    49   26   28 1   
    50   27   28 1   
    51   28   29 1   
    52   30   47 1   
    53   51   52 1   
    54   53   54 1   
    55   55   56 1   
    56   56   57 1   
@<TRIPOS>SUBSTRUCTURE
     1 LZH         1 TEMP              0 ****  ****    0 ROOT
