@<TRIPOS>MOLECULE
LZH
   56    52     1     0     0
SMALL
bcc


@<TRIPOS>ATOM
      1 F32         2.8200   -3.2230    0.6090 f         1 LZH     -0.108000
      2 C17         2.1200   -3.0370    1.7260 c2        1 LZH      0.043000
      3 C11         2.6610   -3.4150    2.9560 c1        1 LZH     -0.117000
      4 C9          1.9790   -3.1230    4.1370 c1        1 LZH      0.034000
      5 N1          2.4790   -3.6330    5.4110 n3        1 LZH     -0.195000
      6 C21         1.8000   -4.7580    6.0580 c2        1 LZH      0.012000
      7 C29         2.2110   -5.1970    7.4660 c1        1 LZH     -0.247000
      8 C30         3.2750   -4.4640    8.1850 c1        1 LZH     -0.136500
      9 C23         3.9580   -3.3300    7.5290 c1        1 LZH     -0.136500
     10 C8          3.5400   -2.8990    6.1280 c1        1 LZH      0.329000
     11 O25         4.1060   -1.9540    5.5820 o         1 LZH     -0.353000
     12 C26         0.7600   -2.4560    4.0880 c1        1 LZH     -0.133000
     13 C28         0.2180   -2.0780    2.8590 c1        1 LZH     -0.131000
     14 C16         0.8970   -2.3680    1.6790 c2        1 LZH      0.048000
     15 N15         0.2840   -2.0810    0.4060 n         1 LZH     -0.307000
     16 C14         0.3710   -0.7560   -0.1510 c2        1 LZH      0.309000
     17 C13        -0.9020    2.1460   -2.9510 c3        1 LZH      0.024000
     18 O27         0.9560    0.1090    0.4440 o         1 LZH     -0.355000
     19 C24        -2.0850    1.1970   -3.3340 c3        1 LZH     -0.174000
     20 C22        -0.3270   -0.4350   -1.4760 c3        1 LZH     -0.087000
     21 N4         -1.3700    0.5810   -1.2510 n3        1 LZH     -0.271000
     22 C20        -0.8000    2.0520   -1.6500 c3        1 LZH     -0.101000
     23 O33        -3.6510   -1.3870   -3.1670 oh        1 LZH     -0.323000
     24 C34        -2.4660   -1.1420   -2.3990 c3        1 LZH     -0.047000
     25 N7         -1.2150    3.5400   -3.3420 n         1 LZH     -0.369000
     26 C5         -0.9890    3.9750   -4.7000 c2        1 LZH      0.383000
     27 O24        -0.5330    3.1800   -5.5390 o         1 LZH     -0.373000
     28 C2         -1.1970    5.4420   -5.0750 c2        1 LZH     -0.456000
     29 C12        -2.3310    5.9860   -5.8020 c1        1 LZH     -0.120000
     30 C19        -2.1400    7.5540   -5.9170 c1        1 LZH     -0.157000
     31 S3         -0.2620    6.6140   -4.7080 ss        1 LZH      0.723000
     32 C10        -0.8990    7.9110   -5.2580 c1        1 LZH     -0.400000
     33 CL1        -0.1920    9.4850   -5.2100 cl        1 LZH      0.056000
     34 C15        -2.3820    0.3560   -2.0470 c3        1 LZH     -0.019000
     35 H11         3.5480   -3.8370    2.9940 ha        1 LZH      0.180000
     36 H26         0.2910   -2.2560    4.8990 ha        1 LZH      0.144000
     37 H21         1.0880   -5.2490    5.5760 h4        1 LZH      0.159000
     38 H29         1.7610   -5.9410    7.8930 ha        1 LZH      0.153000
     39 H30         3.5460   -4.7480    9.1030 ha        1 LZH      0.153500
     40 H23         4.6710   -2.8370    8.0070 ha        1 LZH      0.153500
     41 H28        -0.6340   -1.6100    2.8280 ha        1 LZH      0.181000
     42 H15        -0.0890   -2.7470   -0.0740 hn        1 LZH      0.257000
     43 H221        0.3060   -0.1040   -2.0920 h1        1 LZH      0.109000
     44 H222       -0.7410   -1.2590   -1.8380 h1        1 LZH      0.109000
     45 H13        -0.0590    1.8420   -3.3880 h1        1 LZH      0.139000
     46 H241       -2.8860    1.7300   -3.5880 hc        1 LZH      0.108500
     47 H242       -1.8220    0.6110   -4.0640 hc        1 LZH      0.108500
     48 H201       -1.3330    2.7440   -1.2220 h1        1 LZH      0.094500
     49 H202        0.1270    2.1330   -1.3820 h1        1 LZH      0.094500
     50 H7         -1.6000    4.1070   -2.7390 hn        1 LZH      0.232000
     51 HA         -3.2290    0.6610   -1.6240 h1        1 LZH      0.118000
     52 H33        -3.5950   -2.2020   -3.5530 ho        1 LZH      0.206000
     53 H341       -2.4990   -1.6810   -1.5590 h1        1 LZH      0.066500
     54 H342       -1.6760   -1.4010   -2.9240 h1        1 LZH      0.066500
     55 H12        -3.0990    5.4620   -6.1670 DU        1 LZH      0.163500
     56 H19        -2.7700    8.1930   -6.3690 DU        1 LZH      0.163500
@<TRIPOS>BOND
     1    1    2 1   
     2    2    3 1   
     3    2   14 1   
     4    3   35 1   
     5    4    5 1   
     6    4   12 1   
     7    5    6 1   
     8    5   10 1   
     9    6    7 1   
    10    6   37 1   
    11    7   38 1   
    12    8    9 1   
    13    8   39 1   
    14    9   40 1   
    15   10   11 1   
    16   12   36 1   
    17   13   14 1   
    18   13   41 1   
    19   14   15 1   
    20   15   16 1   
    21   15   42 1   
    22   16   18 1   
    23   16   20 1   
    24   17   19 1   
    25   17   22 1   
    26   17   25 1   
    27   17   45 1   
    28   19   34 1   
    29   19   46 1   
    30   19   47 1   
    31   20   21 1   
    32   20   43 1   
    33   20   44 1   
    34   21   22 1   
    35   21   34 1   
    36   22   48 1   
    37   22   49 1   
    38   23   24 1   
    39   23   52 1   
    40   24   34 1   
    41   24   53 1   
    42   24   54 1   
    43   25   26 1   
    44   25   50 1   
    45   26   27 1   
    46   26   28 1   
    47   28   29 1   
    48   28   31 1   
    49   29   30 1   
    50   30   32 1   
    51   31   32 1   
    52   34   51 1   
@<TRIPOS>SUBSTRUCTURE
     1 LZH         1 TEMP              0 ****  ****    0 ROOT
