@<TRIPOS>MOLECULE
LZH
   57    54     1     0     0
SMALL
bcc


@<TRIPOS>ATOM
      1 F32         2.5130   -1.7160   -1.6890 f         1 LZH     -0.125000
      2 C17         2.8420   -0.5250   -1.0590 c3        1 LZH      0.079000
      3 C11         3.6060   -0.7270    0.1780 c1        1 LZH     -0.045000
      4 C9          3.5620    0.2460    1.2400 c2        1 LZH      0.047000
      5 N1          4.5960    0.2430    2.1710 n         1 LZH     -0.282000
      6 C21         5.6840   -0.7390    2.0310 c3        1 LZH     -0.077000
      7 C29         6.0080   -1.6430    3.1070 c1        1 LZH     -0.069000
      8 C30         5.3410   -1.8080    4.3280 c2        1 LZH     -0.535000
      9 C23         5.7650   -2.7260    5.2030 c1        1 LZH      0.450000
     10 C8          4.6740    1.1290    3.2550 c2        1 LZH      0.257000
     11 O25         3.8090    1.9680    3.5310 o         1 LZH     -0.322000
     12 C26         2.4160    1.0280    1.3300 c2        1 LZH     -0.163000
     13 C28         1.4830    1.1060    0.2520 c2        1 LZH     -0.044000
     14 C16         1.6270    0.3850   -0.8980 c2        1 LZH     -0.160000
     15 N15         0.7360    0.4520   -2.0010 n7        1 LZH     -0.157000
     16 C14         0.0210    1.5260   -2.3000 c2        1 LZH      0.227000
     17 C13        -1.9050   -2.1910   -8.1170 c3        1 LZH     -0.216000
     18 O27        -0.8510    1.6530   -3.2990 os        1 LZH     -0.148000
     19 C24        -0.4060   -2.1580   -8.1570 c3        1 LZH     -0.216000
     20 C22        -1.0820    0.6170   -4.2950 c3        1 LZH      0.001000
     21 N4          0.0830    0.3870   -5.1550 n3        1 LZH     -0.217000
     22 C20         0.7530   -0.7780   -5.1920 c1        1 LZH     -0.006500
     23 O24        -0.7290   -2.0640   -2.5870 o         1 LZH     -0.335000
     24 C2         -1.3860   -5.4030   -1.3650 c2        1 LZH     -0.269000
     25 C12        -0.3190   -6.1810   -1.8190 c2        1 LZH     -0.162000
     26 C19        -0.4780   -7.5440   -1.4580 c2        1 LZH     -0.134000
     27 S3         -2.5250   -6.3450   -0.5290 ss        1 LZH      0.680000
     28 C10        -1.6490   -7.7550   -0.7470 c2        1 LZH     -0.383000
     29 Cl1        -2.1590   -9.2310   -0.1610 cl        1 LZH      0.086000
     30 C15         0.3640    1.3960   -6.0360 c1        1 LZH     -0.006500
     31 H11         3.5980    0.0250   -1.7310 h1        1 LZH      0.171000
     32 H26         0.6330    1.7970    0.4030 ha        1 LZH      0.153000
     33 H21         6.6320   -0.1690    1.7780 h1        1 LZH      0.176500
     34 H29         5.4630   -1.4250    1.1430 h1        1 LZH      0.176500
     35 H30         4.4450   -1.2080    4.6070 ha        1 LZH      0.168000
     36 H23         5.6120    1.0010    3.8480 h5        1 LZH      0.161000
     37 H28         2.1760    1.6220    2.2330 ha        1 LZH      0.206000
     38 H15         0.6510   -0.4150   -2.5190 hn        1 LZH      0.298000
     39 H221        0.0820    2.4700   -1.6960 h5        1 LZH      0.252000
     40 H222       -1.4050   -0.3310   -3.7800 h2        1 LZH      0.179500
     41 H13        -2.3130   -2.5980   -9.0750 hc        1 LZH      0.073000
     42 H241        0.0130   -1.7650   -7.1950 hc        1 LZH      0.073000
     43 H242        1.2480    1.2150   -6.6850 ha        1 LZH      0.091000
     44 H201        0.4100   -1.5930   -4.5170 ha        1 LZH      0.091000
     45 H202       -2.3210   -1.1630   -7.9730 hc        1 LZH      0.073000
     46 H7          0.0090   -3.1830   -8.3200 hc        1 LZH      0.073000
     47 HA         -0.0450   -1.5000   -8.9850 hc        1 LZH      0.073000
     48 H33        -1.9270    1.1050   -4.8820 h2        1 LZH      0.179500
     49 H12         0.5410   -5.8080   -2.3810 ha        1 LZH      0.164000
     50 H19         0.2460   -8.3220   -1.7170 ha        1 LZH      0.181000
     51 C34        -0.8930    3.3090   -6.6770 c1        1 LZH      0.232000
     52 O33        -1.8760    3.0950   -6.0630 o         1 LZH     -0.267000
     53 H341       -0.7410    0.5680   -7.9830 ha        1 LZH      0.009000
     54 H342       -1.0590    1.1550   -7.8470 ha        1 LZH      0.009000
     55 H72        -2.2690   -2.8380   -7.2830 hc        1 LZH      0.073000
     56 N7         -1.5890   -4.0480   -1.5030 n2        1 LZH     -0.176000
     57 C5         -1.0370   -3.1420   -2.1230 c1        1 LZH      0.355000
@<TRIPOS>BOND
     1    1    2 1   
     2    2    3 1   
     3    2   14 1   
     4    2   31 1   
     5    3    4 1   
     6    4    5 1   
     7    4   12 1   
     8    5    6 1   
     9    5   10 1   
    10    6    7 1   
    11    6   33 1   
    12    6   34 1   
    13    7    8 1   
    14    8    9 1   
    15    8   35 1   
    16   10   11 1   
    17   10   36 1   
    18   12   13 1   
    19   12   37 1   
    20   13   14 1   
    21   13   32 1   
    22   14   15 1   
    23   15   16 1   
    24   15   38 1   
    25   16   18 1   
    26   16   39 1   
    27   17   19 1   
    28   17   41 1   
    29   17   45 1   
    30   17   55 1   
    31   18   20 1   
    32   19   42 1   
    33   19   46 1   
    34   19   47 1   
    35   20   21 1   
    36   20   40 1   
    37   20   48 1   
    38   21   22 1   
    39   21   30 1   
    40   22   44 1   
    41   23   57 1   
    42   24   25 1   
    43   24   27 1   
    44   24   56 1   
    45   25   26 1   
    46   25   49 1   
    47   26   28 1   
    48   26   50 1   
    49   27   28 1   
    50   28   29 1   
    51   30   43 1   
    52   51   52 1   
    53   53   54 1   
    54   56   57 1   
@<TRIPOS>SUBSTRUCTURE
     1 LZH         1 TEMP              0 ****  ****    0 ROOT
