@<TRIPOS>MOLECULE
LZI
   68    72     1     0     0
SMALL
bcc


@<TRIPOS>ATOM
      1 O30         3.4690   -0.5680   -4.6230 o         1 LZI     -0.682500
      2 C7          3.6270   -0.1690   -3.4490 c         1 LZI      0.707700
      3 C28         4.8550   -0.3540   -2.6790 cc        1 LZI     -0.250200
      4 C36         4.9630    0.0810   -1.3980 cd        1 LZI     -0.020000
      5 C35         3.8570    0.7410   -0.7750 cd        1 LZI     -0.205000
      6 C24         2.6990    0.9300   -1.4760 cc        1 LZI     -0.004400
      7 N2          2.5540    0.5000   -2.7920 n         1 LZI     -0.272200
      8 C8          1.3240    0.7110   -3.4650 ca        1 LZI      0.088600
      9 C11         0.1000    0.4250   -2.8290 ca        1 LZI     -0.162000
     10 C19        -1.1050    0.5450   -3.5360 ca        1 LZI      0.125900
     11 F39        -2.2710    0.2510   -2.9110 f         1 LZI     -0.130900
     12 C31         1.3100    1.1860   -4.7940 ca        1 LZI     -0.114000
     13 C34         0.1180    1.3080   -5.4920 ca        1 LZI     -0.098000
     14 C18        -1.1080    0.9560   -4.9010 ca        1 LZI     -0.047400
     15 N15        -2.3280    0.9790   -5.6220 n         1 LZI     -0.410100
     16 C12        -2.4310    0.6110   -6.9310 c         1 LZI      0.637100
     17 O33        -1.4310    0.3990   -7.6620 o         1 LZI     -0.701100
     18 C16        -3.8410    0.4650   -7.5370 c3        1 LZI      0.078800
     19 N1         -3.9330   -0.3390   -8.7420 n3        1 LZI     -0.737600
     20 C5         -3.2720    0.2220   -9.9250 c3        1 LZI      0.104500
     21 C10        -4.2520    0.6160  -11.0360 c         1 LZI      0.525100
     22 N23        -5.6910    0.8360  -10.6660 n4        1 LZI     -0.661800
     23 O32        -3.9340    0.7980  -12.2010 o         1 LZI     -0.389100
     24 C21        -3.5020   -1.7310   -8.5960 c3        1 LZI      0.142800
     25 C17        -2.2750   -2.0010   -9.5200 c3        1 LZI      0.111500
     26 C20        -2.2690   -0.8110  -10.4980 c3        1 LZI     -0.097400
     27 N13        -0.9940   -2.1460   -8.7670 n4        1 LZI     -0.679800
     28 C6          0.0790   -2.9990   -9.4600 c         1 LZI      0.622700
     29 O29        -0.2910   -3.5840  -10.4720 o         1 LZI     -0.461100
     30 C3          1.3440   -2.9860   -8.8030 cc        1 LZI     -0.348700
     31 C14         1.7130   -2.2150   -7.6770 cd        1 LZI     -0.084000
     32 C22         3.0390   -2.4480   -7.2940 cd        1 LZI     -0.141000
     33 C9          3.6560   -3.3920   -8.1370 cc        1 LZI     -0.011700
     34 S4          2.6340   -3.9310   -9.3140 ss        1 LZI      0.313200
     35 CL3         5.2270   -3.8980   -7.9620 cl        1 LZI      0.070600
     36 C37        -6.5250    1.3860  -11.7900 c3        1 LZI      0.147800
     37 C25        -7.9350    1.6200  -11.3480 cx        1 LZI     -0.226700
     38 C27        -8.6850    2.7730  -11.9780 cx        1 LZI     -0.094900
     39 C26        -8.2800    2.8510  -10.5430 cx        1 LZI     -0.094900
     40 H28         5.6700   -0.8630   -3.2130 ha        1 LZI      0.175000
     41 H36         5.8910   -0.0600   -0.8200 ha        1 LZI      0.164000
     42 H35         3.9450    1.0990    0.2610 ha        1 LZI      0.173000
     43 H24         1.8250    1.4480   -1.0380 h4        1 LZI      0.165000
     44 H11         0.0630    0.0840   -1.7810 ha        1 LZI      0.178000
     45 H31         2.2600    1.4380   -5.2980 ha        1 LZI      0.180000
     46 H34         0.1430    1.6780   -6.5320 ha        1 LZI      0.163000
     47 H15        -3.1520    1.1410   -5.0830 hn        1 LZI      0.347500
     48 H161       -4.2180    1.5020   -7.7680 h1        1 LZI      0.098200
     49 H162       -4.5360   -0.0070   -6.7830 h1        1 LZI      0.098200
     50 H5         -2.7130    1.1780   -9.6730 h1        1 LZI      0.138700
     51 H211       -4.3510   -2.3810   -8.9540 h1        1 LZI      0.095200
     52 H212       -3.3040   -1.9890   -7.5200 h1        1 LZI      0.095200
     53 H201       -2.5740   -1.1650  -11.5180 hc        1 LZI      0.112700
     54 H202       -1.2640   -0.3270  -10.6040 hc        1 LZI      0.112700
     55 H23        -6.0910   -0.0610  -10.3610 hn        1 LZI      0.464300
     56 H371       -6.0370    2.3420  -12.1390 hx        1 LZI      0.117700
     57 H372       -6.4920    0.6410  -12.6380 hx        1 LZI      0.117700
     58 H17        -2.4360   -2.9700  -10.0840 hx        1 LZI      0.147700
     59 H13        -1.1820   -2.5770   -7.8550 hn        1 LZI      0.472300
     60 H14         1.0750   -1.5030   -7.1440 ha        1 LZI      0.162000
     61 H22         3.5290   -1.9520   -6.4410 ha        1 LZI      0.231000
     62 H25        -8.5010    0.6850  -11.1550 hc        1 LZI      0.110700
     63 H271       -8.1710    3.4080  -12.7240 hc        1 LZI      0.098450
     64 H272       -9.7500    2.6180  -12.2370 hc        1 LZI      0.098450
     65 H261       -7.4740    3.5510  -10.2540 hc        1 LZI      0.098450
     66 H262       -9.0550    2.7680   -9.7570 hc        1 LZI      0.098450
     67 H232       -5.7390    1.4820   -9.8690 hn        1 LZI      0.464300
     68 H132       -0.5860   -1.2120   -8.5920 hn        1 LZI      0.472300
@<TRIPOS>BOND
     1    1    2 2   
     2    2    3 1   
     3    2    7 1   
     4    3    4 2   
     5    3   40 1   
     6    4    5 1   
     7    4   41 1   
     8    5    6 2   
     9    5   42 1   
    10    6    7 1   
    11    6   43 1   
    12    7    8 1   
    13    8    9 ar  
    14    8   12 ar  
    15    9   10 ar  
    16    9   44 1   
    17   10   11 1   
    18   10   14 ar  
    19   12   13 ar  
    20   12   45 1   
    21   13   14 ar  
    22   13   46 1   
    23   14   15 1   
    24   15   16 1   
    25   15   47 1   
    26   16   17 2   
    27   16   18 1   
    28   18   19 1   
    29   18   48 1   
    30   18   49 1   
    31   19   20 1   
    32   19   24 1   
    33   20   21 1   
    34   20   26 1   
    35   20   50 1   
    36   21   22 1   
    37   21   23 2   
    38   22   36 1   
    39   22   55 1   
    40   22   67 1   
    41   24   25 1   
    42   24   51 1   
    43   24   52 1   
    44   25   26 1   
    45   25   27 1   
    46   25   58 1   
    47   26   53 1   
    48   26   54 1   
    49   27   28 1   
    50   27   59 1   
    51   27   68 1   
    52   28   29 2   
    53   28   30 1   
    54   30   31 2   
    55   30   34 1   
    56   31   32 1   
    57   31   60 1   
    58   32   33 2   
    59   32   61 1   
    60   33   34 1   
    61   33   35 1   
    62   36   37 1   
    63   36   56 1   
    64   36   57 1   
    65   37   38 1   
    66   37   39 1   
    67   37   62 1   
    68   38   39 1   
    69   38   63 1   
    70   38   64 1   
    71   39   65 1   
    72   39   66 1   
@<TRIPOS>SUBSTRUCTURE
     1 LZI         1 TEMP              0 ****  ****    0 ROOT
