@<TRIPOS>MOLECULE
LZI
   66    70     1     0     0
SMALL
bcc


@<TRIPOS>ATOM
      1 O30        18.1730   11.0050   30.7350 o         1 LZI     -0.626500
      2 C7         18.0270   10.3900   31.8080 c         1 LZI      0.690700
      3 C28        18.4420   10.9260   33.1080 cc        1 LZI     -0.254200
      4 C36        18.2500   10.2360   34.2580 cd        1 LZI     -0.039000
      5 C35        17.6260    8.9510   34.2190 cd        1 LZI     -0.248000
      6 C24        17.2410    8.4280   33.0130 cc        1 LZI      0.014600
      7 N2         17.4280    9.0980   31.8160 n         1 LZI     -0.257200
      8 C8         17.0330    8.4600   30.6050 ca        1 LZI      0.023600
      9 C11        17.3250    7.0990   30.3990 ca        1 LZI     -0.156000
     10 C19        16.9130    6.4610   29.2240 ca        1 LZI      0.068900
     11 F39        17.2070    5.1430   29.0640 f         1 LZI     -0.149900
     12 C31        16.3480    9.1680   29.5990 ca        1 LZI     -0.090000
     13 C34        15.9510    8.5380   28.4280 ca        1 LZI     -0.129000
     14 C18        16.2100    7.1710   28.2020 ca        1 LZI      0.045600
     15 N15        15.8430    6.5010   27.0280 n         1 LZI     -0.458100
     16 C12        14.9040    6.9200   26.0960 c         1 LZI      0.662100
     17 O33        14.3100    8.0090   26.1640 o         1 LZI     -0.584100
     18 C16        14.6610    6.0010   24.8840 c3        1 LZI      0.103800
     19 N1         14.4710    4.6160   25.2520 n3        1 LZI     -0.740600
     20 C5         14.8750    3.6100   24.2680 c3        1 LZI      0.115500
     21 C10        14.8090    4.0300   22.7840 c         1 LZI      0.627100
     22 N23        15.5160    3.2440   21.8980 n         1 LZI     -0.558900
     23 O32        14.1120    4.9880   22.3960 o         1 LZI     -0.607100
     24 C21        13.1290    4.2880   25.7290 c3        1 LZI      0.140800
     25 C17        12.9470    2.7470   25.5660 c3        1 LZI      0.105700
     26 C20        13.9710    2.3730   24.4620 c3        1 LZI     -0.102400
     27 N13        13.1390    2.0310   26.7970 n         1 LZI     -0.562900
     28 C6         12.2340    1.0960   27.2610 c         1 LZI      0.708700
     29 O29        11.1990    0.8230   26.6160 o         1 LZI     -0.609100
     30 C3         12.5410    0.4470   28.5480 cc        1 LZI     -0.207700
     31 C14        13.8020    0.2860   29.1090 cd        1 LZI     -0.121000
     32 C22        13.7430   -0.4000   30.3510 cd        1 LZI     -0.158000
     33 C9         12.4340   -0.7290   30.6800 cc        1 LZI     -0.052700
     34 S4         11.3530   -0.2260   29.5110 ss        1 LZI      0.190200
     35 CL3        11.9760   -1.5340   32.0710 cl        1 LZI     -0.021400
     36 C37        15.6300    3.5630   20.4990 c3        1 LZI      0.110000
     37 C25        17.0230    3.9560   20.0720 cx        1 LZI     -0.158700
     38 C27        17.4650    3.6120   18.6750 cx        1 LZI     -0.127900
     39 C26        18.0610    2.8900   19.8450 cx        1 LZI     -0.127900
     40 H28        18.9150   11.9180   33.0700 ha        1 LZI      0.165000
     41 H36        18.5620   10.6430   35.2320 ha        1 LZI      0.141000
     42 H35        17.4560    8.3930   35.1480 ha        1 LZI      0.152000
     43 H24        16.7480    7.4390   32.9420 h4        1 LZI      0.157000
     44 H11        17.8830    6.5120   31.1460 ha        1 LZI      0.152000
     45 H31        16.1440   10.2460   29.7220 ha        1 LZI      0.170000
     46 H34        15.4160    9.1310   27.6640 ha        1 LZI      0.184000
     47 H15        16.1940    5.5710   26.9410 hn        1 LZI      0.335500
     48 H161       13.7750    6.4320   24.3270 h1        1 LZI      0.088700
     49 H162       15.5610    6.0940   24.2120 h1        1 LZI      0.088700
     50 H5         15.9470    3.3580   24.5180 h1        1 LZI      0.069700
     51 H211       13.0510    4.6240   26.7980 h1        1 LZI      0.063200
     52 H212       12.3220    4.8060   25.1390 h1        1 LZI      0.063200
     53 H201       13.4180    2.1280   23.5220 hc        1 LZI      0.069200
     54 H202       14.5910    1.4860   24.7370 hc        1 LZI      0.069200
     55 H23        16.1570    2.5760   22.2560 hn        1 LZI      0.307500
     56 H371       15.3030    2.6530   19.9140 h1        1 LZI      0.068200
     57 H372       14.9210    4.4080   20.2570 h1        1 LZI      0.068200
     58 H17        11.9010    2.5350   25.1960 h1        1 LZI      0.105700
     59 H13        13.9400    2.2530   27.3380 hn        1 LZI      0.318500
     60 H14        14.7430    0.6220   28.6660 ha        1 LZI      0.156000
     61 H22        14.6200   -0.6320   30.9580 ha        1 LZI      0.168000
     62 H25        17.3510    4.9230   20.5020 hc        1 LZI      0.088700
     63 H271       16.7680    3.0730   18.0090 hc        1 LZI      0.072950
     64 H272       18.0810    4.3420   18.1200 hc        1 LZI      0.072950
     65 H261       19.1090    3.0950   20.1280 hc        1 LZI      0.072950
     66 H262       17.7890    1.8330   20.0150 hc        1 LZI      0.072950
@<TRIPOS>BOND
     1    1    2 2   
     2    2    3 1   
     3    2    7 1   
     4    3    4 2   
     5    3   40 1   
     6    4    5 1   
     7    4   41 1   
     8    5    6 2   
     9    5   42 1   
    10    6    7 1   
    11    6   43 1   
    12    7    8 1   
    13    8    9 ar  
    14    8   12 ar  
    15    9   10 ar  
    16    9   44 1   
    17   10   11 1   
    18   10   14 ar  
    19   12   13 ar  
    20   12   45 1   
    21   13   14 ar  
    22   13   46 1   
    23   14   15 1   
    24   15   16 1   
    25   15   47 1   
    26   16   17 2   
    27   16   18 1   
    28   18   19 1   
    29   18   48 1   
    30   18   49 1   
    31   19   20 1   
    32   19   24 1   
    33   20   21 1   
    34   20   26 1   
    35   20   50 1   
    36   21   22 1   
    37   21   23 2   
    38   22   36 1   
    39   22   55 1   
    40   24   25 1   
    41   24   51 1   
    42   24   52 1   
    43   25   26 1   
    44   25   27 1   
    45   25   58 1   
    46   26   53 1   
    47   26   54 1   
    48   27   28 1   
    49   27   59 1   
    50   28   29 2   
    51   28   30 1   
    52   30   31 2   
    53   30   34 1   
    54   31   32 1   
    55   31   60 1   
    56   32   33 2   
    57   32   61 1   
    58   33   34 1   
    59   33   35 1   
    60   36   37 1   
    61   36   56 1   
    62   36   57 1   
    63   37   38 1   
    64   37   39 1   
    65   37   62 1   
    66   38   39 1   
    67   38   63 1   
    68   38   64 1   
    69   39   65 1   
    70   39   66 1   
@<TRIPOS>SUBSTRUCTURE
     1 LZI         1 TEMP              0 ****  ****    0 ROOT
