@<TRIPOS>MOLECULE
LZI
   68    72     1     0     0
SMALL
bcc


@<TRIPOS>ATOM
      1 O30         3.4120   -0.8440   -4.5750 o         1 LZI     -0.683500
      2 C7          3.5630   -0.5810   -3.3620 c         1 LZI      0.707700
      3 C28         4.7610   -0.9160   -2.5940 cc        1 LZI     -0.250200
      4 C36         4.8620   -0.6250   -1.2720 cd        1 LZI     -0.020000
      5 C35         3.7790    0.0270   -0.6020 cd        1 LZI     -0.205000
      6 C24         2.6500    0.3540   -1.3000 cc        1 LZI     -0.004400
      7 N2          2.5140    0.0740   -2.6570 n         1 LZI     -0.272200
      8 C8          1.3130    0.4250   -3.3250 ca        1 LZI      0.088600
      9 C11         0.0600    0.1430   -2.7460 ca        1 LZI     -0.162000
     10 C19        -1.1190    0.4060   -3.4570 ca        1 LZI      0.125900
     11 F39        -2.3140    0.1140   -2.8890 f         1 LZI     -0.130900
     12 C31         1.3570    1.0390   -4.5950 ca        1 LZI     -0.113000
     13 C34         0.1910    1.3040   -5.2970 ca        1 LZI     -0.098000
     14 C18        -1.0670    0.9610   -4.7690 ca        1 LZI     -0.047400
     15 N15        -2.2660    1.1320   -5.5050 ns        1 LZI     -0.410100
     16 C12        -2.3590    0.9210   -6.8480 c         1 LZI      0.637100
     17 O33        -1.3560    0.7370   -7.5840 o         1 LZI     -0.700100
     18 C16        -3.7610    0.9220   -7.4890 c3        1 LZI      0.077800
     19 N1         -3.8680    0.2730   -8.7840 n3        1 LZI     -0.732600
     20 C5         -3.1420    0.9270   -9.8760 c3        1 LZI      0.111500
     21 C10        -4.0650    1.4510  -10.9800 c         1 LZI      0.531100
     22 N23        -5.4680    1.8550  -10.6290 ny        1 LZI     -0.666800
     23 O32        -3.7350    1.6230  -12.1440 o         1 LZI     -0.395100
     24 C21        -3.5250   -1.1500   -8.7970 c3        1 LZI      0.143800
     25 C17        -2.2760   -1.3810   -9.7030 c3        1 LZI      0.110500
     26 C20        -2.1350   -0.0710  -10.5010 c3        1 LZI     -0.098400
     27 N13        -1.0470   -1.7300   -8.9280 ny        1 LZI     -0.680800
     28 C6          0.0120   -2.5160   -9.7140 c         1 LZI      0.622700
     29 O29        -0.3550   -2.9430  -10.8030 o         1 LZI     -0.462100
     30 C3          1.2630   -2.6410   -9.0420 cc        1 LZI     -0.347700
     31 C14         1.6390   -2.0420   -7.8180 cd        1 LZI     -0.083000
     32 C22         2.9490   -2.3760   -7.4510 cd        1 LZI     -0.141000
     33 C9          3.5460   -3.2220   -8.4050 cc        1 LZI     -0.010700
     34 S4          2.5270   -3.5580   -9.6580 ss        1 LZI      0.312200
     35 Cl3         5.0940   -3.8080   -8.2770 cl        1 LZI      0.070600
     36 C37        -6.4620    0.7960  -11.0320 c3        1 LZI      0.157800
     37 C25        -7.8650    1.2650  -10.8040 cx        1 LZI     -0.230700
     38 C27        -8.9200    0.8630  -11.8130 cx        1 LZI     -0.093400
     39 C26        -8.4780    2.2870  -11.7350 cx        1 LZI     -0.093400
     40 H28         5.5600   -1.4120   -3.1650 ha        1 LZI      0.175000
     41 H36         5.7670   -0.8790   -0.6960 ha        1 LZI      0.164000
     42 H35         3.8620    0.2670    0.4680 ha        1 LZI      0.173000
     43 H24         1.7960    0.8720   -0.8240 h4        1 LZI      0.165000
     44 H11        -0.0200   -0.3050   -1.7410 ha        1 LZI      0.178000
     45 H31         2.3310    1.2900   -5.0520 ha        1 LZI      0.180000
     46 H34         0.2610    1.7810   -6.2900 ha        1 LZI      0.163000
     47 H15        -3.0930    1.2800   -4.9650 hn        1 LZI      0.347500
     48 H161       -4.4960    0.4020   -6.8080 h1        1 LZI      0.098700
     49 H162       -4.0800    1.9980   -7.6000 h1        1 LZI      0.098700
     50 H5         -2.5750    1.8400   -9.5090 h1        1 LZI      0.136700
     51 H211       -3.3910   -1.5500   -7.7560 h1        1 LZI      0.094200
     52 H212       -4.3950   -1.6940   -9.2670 h1        1 LZI      0.094200
     53 H201       -2.3540   -0.2650  -11.5840 hc        1 LZI      0.114200
     54 H202       -1.1060    0.3710  -10.4450 hc        1 LZI      0.114200
     55 H23        -5.7120    2.7200  -11.1340 hn        1 LZI      0.464800
     56 H371       -6.2480   -0.1240  -10.4180 hx        1 LZI      0.108700
     57 H372       -6.2810    0.5690  -12.1240 hx        1 LZI      0.108700
     58 H17        -2.4760   -2.2470  -10.4040 hx        1 LZI      0.146700
     59 H13        -1.3080   -2.3000   -8.1170 hn        1 LZI      0.472300
     60 H14         1.0190   -1.3840   -7.2020 ha        1 LZI      0.162000
     61 H22         3.4410   -2.0170   -6.5330 ha        1 LZI      0.231000
     62 H25        -8.1560    1.2830   -9.7340 hc        1 LZI      0.109700
     63 H271       -9.9200    0.5800  -11.4300 hc        1 LZI      0.100700
     64 H272       -8.6270    0.2510  -12.6860 hc        1 LZI      0.100700
     65 H261       -7.8680    2.7030  -12.5580 hc        1 LZI      0.100700
     66 H262       -9.1630    3.0440  -11.3070 hc        1 LZI      0.100700
     67 H232       -5.5560    2.0330   -9.6240 hn        1 LZI      0.464800
     68 H132       -0.6010   -0.8650   -8.5770 hn        1 LZI      0.472300
@<TRIPOS>BOND
     1    1    2 2   
     2    2    3 1   
     3    2    7 1   
     4    3    4 2   
     5    3   40 1   
     6    4    5 1   
     7    4   41 1   
     8    5    6 2   
     9    5   42 1   
    10    6    7 1   
    11    6   43 1   
    12    7    8 1   
    13    8    9 ar  
    14    8   12 ar  
    15    9   10 ar  
    16    9   44 1   
    17   10   11 1   
    18   10   14 ar  
    19   12   13 ar  
    20   12   45 1   
    21   13   14 ar  
    22   13   46 1   
    23   14   15 1   
    24   15   16 1   
    25   15   47 1   
    26   16   17 2   
    27   16   18 1   
    28   18   19 1   
    29   18   48 1   
    30   18   49 1   
    31   19   20 1   
    32   19   24 1   
    33   20   21 1   
    34   20   26 1   
    35   20   50 1   
    36   21   22 1   
    37   21   23 2   
    38   22   36 1   
    39   22   55 1   
    40   22   67 1   
    41   24   25 1   
    42   24   51 1   
    43   24   52 1   
    44   25   26 1   
    45   25   27 1   
    46   25   58 1   
    47   26   53 1   
    48   26   54 1   
    49   27   28 1   
    50   27   59 1   
    51   27   68 1   
    52   28   29 2   
    53   28   30 1   
    54   30   31 2   
    55   30   34 1   
    56   31   32 1   
    57   31   60 1   
    58   32   33 2   
    59   32   61 1   
    60   33   34 1   
    61   33   35 1   
    62   36   37 1   
    63   36   56 1   
    64   36   57 1   
    65   37   38 1   
    66   37   39 1   
    67   37   62 1   
    68   38   39 1   
    69   38   63 1   
    70   38   64 1   
    71   39   65 1   
    72   39   66 1   
@<TRIPOS>SUBSTRUCTURE
     1 LZI         1 TEMP              0 ****  ****    0 ROOT
