@<TRIPOS>MOLECULE
LZI
   69    73     1     0     0
SMALL
bcc


@<TRIPOS>ATOM
      1 O30        -2.1910    1.2990   -4.8330 o         1 LZI     -0.825500
      2 C7         -1.9840    2.0180   -3.8110 c         1 LZI      0.726700
      3 C28        -2.8950    3.0320   -3.3170 cc        1 LZI     -0.272200
      4 C36        -2.5960    3.7720   -2.2090 cd        1 LZI      0.020000
      5 C35        -1.3670    3.5530   -1.5170 cd        1 LZI     -0.181000
      6 C24        -0.4920    2.6000   -1.9690 cc        1 LZI      0.002600
      7 N2         -0.7810    1.8310   -3.0940 n         1 LZI     -0.274200
      8 C8          0.1420    0.8500   -3.5600 ca        1 LZI      0.121600
      9 C11         1.1710    1.2150   -4.4440 ca        1 LZI     -0.138000
     10 C19         1.9180    0.2170   -5.0930 ca        1 LZI      0.180900
     11 F39         2.8810    0.5610   -5.9730 f         1 LZI     -0.096900
     12 C31        -0.0240   -0.5070   -3.1980 ca        1 LZI     -0.110000
     13 C34         0.7030   -1.4960   -3.8420 ca        1 LZI     -0.084000
     14 C18         1.6160   -1.1510   -4.8580 ca        1 LZI     -0.114400
     15 N15         2.2280   -2.1890   -5.6810 n4        1 LZI     -0.533200
     16 C12         1.5470   -2.2880   -7.0380 c         1 LZI      0.532100
     17 O33         2.2960   -2.3800   -7.9940 o         1 LZI     -0.377100
     18 C16         0.0140   -2.2880   -7.0680 c3        1 LZI      0.142800
     19 N1         -0.4550   -1.4170   -8.1140 n3        1 LZI     -0.762600
     20 C5         -1.5740   -0.5200   -7.8690 c3        1 LZI      0.146500
     21 C10        -2.7300   -1.1110   -7.0380 c         1 LZI      0.500100
     22 N23        -3.7720   -0.1600   -6.5530 n4        1 LZI     -0.664800
     23 O32        -2.8280   -2.2850   -6.7060 o         1 LZI     -0.420100
     24 C21        -0.5620   -2.0050   -9.4470 c3        1 LZI      0.155800
     25 C17        -1.5070   -1.0910  -10.2790 c3        1 LZI      0.125500
     26 C20        -2.0950   -0.0850   -9.2630 c3        1 LZI     -0.111400
     27 N13        -0.8340   -0.4470  -11.4430 n4        1 LZI     -0.686800
     28 C6         -0.4970   -1.4560  -12.5810 c         1 LZI      0.634700
     29 O29        -0.5680   -2.6270  -12.2290 o         1 LZI     -0.466100
     30 C3         -0.1660   -0.8560  -13.8190 cc        1 LZI     -0.364700
     31 C14        -0.0280    0.5270  -14.1040 cd        1 LZI     -0.085000
     32 C22         0.3130    0.7530  -15.4360 cd        1 LZI     -0.142000
     33 C9          0.4300   -0.4630  -16.1550 cc        1 LZI     -0.005700
     34 S4          0.1340   -1.7660  -15.2030 ss        1 LZI      0.369200
     35 CL3         0.8200   -0.5330  -17.7620 cl        1 LZI      0.109600
     36 C37        -5.1730   -0.6630   -6.7830 c3        1 LZI      0.155800
     37 C25        -6.1870    0.2570   -6.1790 cx        1 LZI     -0.227700
     38 C27        -7.5570    0.3070   -6.8220 cx        1 LZI     -0.090400
     39 C26        -6.6450    1.4840   -6.9300 cx        1 LZI     -0.090400
     40 H28        -3.8250    3.1700   -3.8860 ha        1 LZI      0.172000
     41 H36        -3.2900    4.5460   -1.8340 ha        1 LZI      0.187000
     42 H35        -1.1240    4.1490   -0.6210 ha        1 LZI      0.200000
     43 H24         0.4730    2.3930   -1.4680 h4        1 LZI      0.189000
     44 H11         1.4010    2.2760   -4.6600 ha        1 LZI      0.207000
     45 H31        -0.7460   -0.7920   -2.4100 ha        1 LZI      0.196000
     46 H34         0.5490   -2.5510   -3.5500 ha        1 LZI      0.179000
     47 H15         2.1660   -3.0980   -5.1990 hn        1 LZI      0.487300
     48 H161       -0.2860   -3.3700   -7.2360 h1        1 LZI      0.114200
     49 H162       -0.4030   -1.9600   -6.0720 h1        1 LZI      0.114200
     50 H5         -1.1820    0.3690   -7.2820 h1        1 LZI      0.138700
     51 H211       -0.9960   -3.0470   -9.4370 h1        1 LZI      0.108700
     52 H212        0.4780   -2.0760   -9.8750 h1        1 LZI      0.108700
     53 H201       -3.2120   -0.1120   -9.3160 hc        1 LZI      0.095700
     54 H202       -1.7680    0.9700   -9.4570 hc        1 LZI      0.095700
     55 H23        -3.6510    0.7610   -6.9890 hn        1 LZI      0.484800
     56 H371       -5.3200   -0.7570   -7.8960 hx        1 LZI      0.108700
     57 H372       -5.2470   -1.6890   -6.3130 hx        1 LZI      0.108700
     58 H17        -2.3340   -1.7320  -10.7150 hx        1 LZI      0.141700
     59 H13         0.0420   -0.0060  -11.1490 hn        1 LZI      0.459800
     60 H14        -0.1550    1.3420  -13.3880 ha        1 LZI      0.149000
     61 H22         0.4730    1.7420  -15.8840 ha        1 LZI      0.211000
     62 H25        -6.1390    0.3000   -5.0710 hc        1 LZI      0.116700
     63 H271       -8.4400    0.3580   -6.1540 hc        1 LZI      0.099950
     64 H272       -7.7580   -0.3110   -7.7160 hc        1 LZI      0.099950
     65 H261       -6.1910    1.7200   -7.9090 hc        1 LZI      0.099950
     66 H262       -6.8750    2.4010   -6.3530 hc        1 LZI      0.099950
     67 H152        3.2310   -1.9690   -5.8270 hn        1 LZI      0.487300
     68 H232       -3.6330   -0.0140   -5.5300 hn        1 LZI      0.484800
     69 H132       -1.4480    0.2760  -11.8340 hn        1 LZI      0.459800
@<TRIPOS>BOND
     1    1    2 2   
     2    2    3 1   
     3    2    7 1   
     4    3    4 2   
     5    3   40 1   
     6    4    5 1   
     7    4   41 1   
     8    5    6 2   
     9    5   42 1   
    10    6    7 1   
    11    6   43 1   
    12    7    8 1   
    13    8    9 ar  
    14    8   12 ar  
    15    9   10 ar  
    16    9   44 1   
    17   10   11 1   
    18   10   14 ar  
    19   12   13 ar  
    20   12   45 1   
    21   13   14 ar  
    22   13   46 1   
    23   14   15 1   
    24   15   16 1   
    25   15   47 1   
    26   15   67 1   
    27   16   17 2   
    28   16   18 1   
    29   18   19 1   
    30   18   48 1   
    31   18   49 1   
    32   19   20 1   
    33   19   24 1   
    34   20   21 1   
    35   20   26 1   
    36   20   50 1   
    37   21   22 1   
    38   21   23 2   
    39   22   36 1   
    40   22   55 1   
    41   22   68 1   
    42   24   25 1   
    43   24   51 1   
    44   24   52 1   
    45   25   26 1   
    46   25   27 1   
    47   25   58 1   
    48   26   53 1   
    49   26   54 1   
    50   27   28 1   
    51   27   59 1   
    52   27   69 1   
    53   28   29 2   
    54   28   30 1   
    55   30   31 2   
    56   30   34 1   
    57   31   32 1   
    58   31   60 1   
    59   32   33 2   
    60   32   61 1   
    61   33   34 1   
    62   33   35 1   
    63   36   37 1   
    64   36   56 1   
    65   36   57 1   
    66   37   38 1   
    67   37   39 1   
    68   37   62 1   
    69   38   39 1   
    70   38   63 1   
    71   38   64 1   
    72   39   65 1   
    73   39   66 1   
@<TRIPOS>SUBSTRUCTURE
     1 LZI         1 TEMP              0 ****  ****    0 ROOT
