@<TRIPOS>MOLECULE
LZJ
   29    31     1     0     0
SMALL
bcc


@<TRIPOS>ATOM
      1 BR2         0.0550    0.7240   -0.1300 br        1 LZJ     -0.064600
      2 C18         1.8840    0.3230   -0.0470 ca        1 LZJ     -0.021900
      3 C17         2.5170    0.3650    1.1990 ca        1 LZJ     -0.097500
      4 C16         3.8750    0.0760    1.3040 ca        1 LZJ     -0.127000
      5 C15         4.6080   -0.2570    0.1680 ca        1 LZJ     -0.097500
      6 C14         3.9830   -0.3030   -1.0810 ca        1 LZJ     -0.021900
      7 BR1         5.0160   -0.7490   -2.5810 br        1 LZJ     -0.064600
      8 C12         2.6120   -0.0130   -1.2020 cp        1 LZJ      0.019000
      9 C9          1.9580   -0.0490   -2.5110 cp        1 LZJ     -0.253300
     10 C10         1.7990    1.0950   -3.2570 ca        1 LZJ      0.029000
     11 C5          1.1640    1.0350   -4.5130 ca        1 LZJ     -0.417600
     12 C6          0.9630    2.1700   -5.3560 ca        1 LZJ      0.513200
     13 N1          0.3680    2.1140   -6.5290 nb        1 LZJ     -0.751000
     14 C8          1.4510   -1.3060   -3.0570 ca        1 LZJ      0.727200
     15 N13         1.5340   -2.4500   -2.2800 nh        1 LZJ     -0.943500
     16 N7          0.8560   -1.3960   -4.2690 nb        1 LZJ     -0.741000
     17 C4          0.6900   -0.2390   -5.0020 ca        1 LZJ      0.757300
     18 N3          0.0650   -0.3320   -6.2350 nb        1 LZJ     -0.757000
     19 C2         -0.0920    0.8320   -6.9340 ca        1 LZJ      0.895900
     20 N11        -0.8050    0.7790   -8.1270 nh        1 LZJ     -0.937500
     21 H17         1.9450    0.6280    2.1030 ha        1 LZJ      0.153500
     22 H16         4.3700    0.1110    2.2860 ha        1 LZJ      0.146000
     23 H15         5.6840   -0.4810    0.2590 ha        1 LZJ      0.153500
     24 H10         2.1650    2.0660   -2.8840 ha        1 LZJ      0.144000
     25 H6          1.3220    3.1650   -5.0310 h4        1 LZJ      0.025100
     26 H131        1.3220   -3.3250   -2.7010 hn        1 LZJ      0.429300
     27 H132        2.2150   -2.4510   -1.5590 hn        1 LZJ      0.429300
     28 H111       -0.9800   -0.1140   -8.5240 hn        1 LZJ      0.437300
     29 H112       -0.7360    1.5530   -8.7430 hn        1 LZJ      0.437300
@<TRIPOS>BOND
     1    1    2 1   
     2    2    3 ar  
     3    2    8 ar  
     4    3    4 ar  
     5    3   21 1   
     6    4    5 ar  
     7    4   22 1   
     8    5    6 ar  
     9    5   23 1   
    10    6    7 1   
    11    6    8 ar  
    12    8    9 1   
    13    9   10 ar  
    14    9   14 ar  
    15   10   11 ar  
    16   10   24 1   
    17   11   12 ar  
    18   11   17 ar  
    19   12   13 ar  
    20   12   25 1   
    21   13   19 ar  
    22   14   15 1   
    23   14   16 ar  
    24   15   26 1   
    25   15   27 1   
    26   16   17 ar  
    27   17   18 ar  
    28   18   19 ar  
    29   19   20 1   
    30   20   28 1   
    31   20   29 1   
@<TRIPOS>SUBSTRUCTURE
     1 LZJ         1 TEMP              0 ****  ****    0 ROOT
