@<TRIPOS>MOLECULE
LZJ
   29    31     1     0     0
SMALL
bcc


@<TRIPOS>ATOM
      1 Br2         0.0170    0.3670   -0.0850 br        1 LZJ     -0.064600
      2 C18         1.8800    0.1660   -0.0310 ca        1 LZJ     -0.021900
      3 C17         2.5180    0.2090    1.2120 ca        1 LZJ     -0.097500
      4 C16         3.9010    0.0690    1.2920 ca        1 LZJ     -0.127000
      5 C15         4.6530   -0.1130    0.1340 ca        1 LZJ     -0.097500
      6 C14         4.0230   -0.1550   -1.1130 ca        1 LZJ     -0.021900
      7 Br1         5.0850   -0.3990   -2.6380 br        1 LZJ     -0.064600
      8 C12         2.6270   -0.0160   -1.2090 cp        1 LZJ      0.019000
      9 C9          1.9620   -0.0490   -2.5120 cp        1 LZJ     -0.253300
     10 C10         1.8700    1.0810   -3.2910 ca        1 LZJ      0.029000
     11 C5          1.2260    1.0220   -4.5430 ca        1 LZJ     -0.417600
     12 C6          1.0790    2.1450   -5.4130 ca        1 LZJ      0.513200
     13 N1          0.4800    2.0910   -6.5830 nb        1 LZJ     -0.751000
     14 C8          1.3820   -1.2900   -3.0220 ca        1 LZJ      0.727200
     15 N13         1.5400   -2.4510   -2.2830 nv        1 LZJ     -0.943500
     16 N7          0.7410   -1.3690   -4.2120 nb        1 LZJ     -0.741000
     17 C4          0.6670   -0.2320   -4.9900 ca        1 LZJ      0.757300
     18 N3          0.0250   -0.3210   -6.2150 nb        1 LZJ     -0.757000
     19 C2         -0.0250    0.8190   -6.9660 ca        1 LZJ      0.895900
     20 N11        -0.5750    0.7300   -8.2410 nv        1 LZJ     -0.937500
     21 H17         1.9310    0.3560    2.1330 ha        1 LZJ      0.153500
     22 H16         4.4000    0.1030    2.2720 ha        1 LZJ      0.146000
     23 H15         5.7470   -0.2220    0.2080 ha        1 LZJ      0.153500
     24 H10         2.2940    2.0380   -2.9470 ha        1 LZJ      0.144000
     25 H6          1.4790    3.1320   -5.1070 h4        1 LZJ      0.025100
     26 H131        1.0290   -3.2590   -2.5550 hn        1 LZJ      0.429300
     27 H132        1.7250   -2.3410   -1.3150 hn        1 LZJ      0.429300
     28 H111       -1.0930   -0.0850   -8.4670 hn        1 LZJ      0.437300
     29 H112       -0.8180    1.5740   -8.7010 hn        1 LZJ      0.437300
@<TRIPOS>BOND
     1    1    2 1   
     2    2    3 ar  
     3    2    8 ar  
     4    3    4 ar  
     5    3   21 1   
     6    4    5 ar  
     7    4   22 1   
     8    5    6 ar  
     9    5   23 1   
    10    6    7 1   
    11    6    8 ar  
    12    8    9 1   
    13    9   10 ar  
    14    9   14 ar  
    15   10   11 ar  
    16   10   24 1   
    17   11   12 ar  
    18   11   17 ar  
    19   12   13 ar  
    20   12   25 1   
    21   13   19 ar  
    22   14   15 1   
    23   14   16 ar  
    24   15   26 1   
    25   15   27 1   
    26   16   17 ar  
    27   17   18 ar  
    28   18   19 ar  
    29   19   20 1   
    30   20   28 1   
    31   20   29 1   
@<TRIPOS>SUBSTRUCTURE
     1 LZJ         1 TEMP              0 ****  ****    0 ROOT
