@<TRIPOS>MOLECULE
LZJ
   31    33     1     0     0
SMALL
bcc


@<TRIPOS>ATOM
      1 BR2         0.0350   -0.4380   -0.0050 br        1 LZJ     -0.037100
      2 C18         1.8940   -0.1510    0.0020 ca        1 LZJ     -0.030400
      3 C17         2.5450   -0.0300    1.2310 ca        1 LZJ     -0.067500
      4 C16         3.9290    0.1470    1.2710 ca        1 LZJ     -0.075000
      5 C15         4.6640    0.1910    0.0880 ca        1 LZJ     -0.067500
      6 C14         4.0160    0.0850   -1.1490 ca        1 LZJ     -0.030400
      7 BR1         5.0520    0.1240   -2.7090 br        1 LZJ     -0.037100
      8 C12         2.6190   -0.0650   -1.2010 cp        1 LZJ     -0.107000
      9 C9          1.9340   -0.0660   -2.4950 cp        1 LZJ     -0.093300
     10 C10         1.8890    1.0730   -3.2880 ca        1 LZJ      0.015000
     11 C5          1.2540    1.0250   -4.5460 ca        1 LZJ     -0.272600
     12 C6          1.1650    2.1560   -5.4380 ca        1 LZJ      0.536200
     13 N1          0.5760    2.0920   -6.6170 nb        1 LZJ     -0.657000
     14 C8          1.2890   -1.2440   -3.0130 ca        1 LZJ      0.544200
     15 N13         1.2640   -2.4470   -2.1500 n4        1 LZJ     -0.847300
     16 N7          0.6780   -1.3410   -4.2000 nb        1 LZJ     -0.601000
     17 C4          0.6580   -0.2090   -4.9900 ca        1 LZJ      0.680300
     18 N3          0.0330   -0.2900   -6.2410 nb        1 LZJ     -0.605000
     19 C2          0.0330    0.8410   -6.9580 ca        1 LZJ      0.739900
     20 N11        -0.6260    0.7890   -8.2980 n4        1 LZJ     -0.820300
     21 H17         1.9730   -0.0700    2.1760 ha        1 LZJ      0.190500
     22 H16         4.4420    0.2520    2.2440 ha        1 LZJ      0.189000
     23 H15         5.7620    0.3170    0.1320 ha        1 LZJ      0.190500
     24 H10         2.3510    2.0160   -2.9360 ha        1 LZJ      0.208000
     25 H6          1.6020    3.1400   -5.1520 h4        1 LZJ      0.097100
     26 H131        0.7290   -2.1890   -1.2820 hn        1 LZJ      0.489800
     27 H132        2.2300   -2.6940   -1.9000 hn        1 LZJ      0.489800
     28 H111       -1.0020   -0.1540   -8.4840 hn        1 LZJ      0.496133
     29 H112       -1.3950    1.4770   -8.3200 hn        1 LZJ      0.496133
     30 H133        0.8140   -3.2470   -2.6170 hn        1 LZJ      0.489800
     31 H113        0.0670    1.0340   -9.0220 hn        1 LZJ      0.496133
@<TRIPOS>BOND
     1    1    2 1   
     2    2    3 ar  
     3    2    8 ar  
     4    3    4 ar  
     5    3   21 1   
     6    4    5 ar  
     7    4   22 1   
     8    5    6 ar  
     9    5   23 1   
    10    6    7 1   
    11    6    8 ar  
    12    8    9 1   
    13    9   10 ar  
    14    9   14 ar  
    15   10   11 ar  
    16   10   24 1   
    17   11   12 ar  
    18   11   17 ar  
    19   12   13 ar  
    20   12   25 1   
    21   13   19 ar  
    22   14   15 1   
    23   14   16 ar  
    24   15   26 1   
    25   15   27 1   
    26   15   30 1   
    27   16   17 ar  
    28   17   18 ar  
    29   18   19 ar  
    30   19   20 1   
    31   20   28 1   
    32   20   29 1   
    33   20   31 1   
@<TRIPOS>SUBSTRUCTURE
     1 LZJ         1 TEMP              0 ****  ****    0 ROOT
