@<TRIPOS>MOLECULE
LZJ
   29    31     1     0     0
SMALL
bcc


@<TRIPOS>ATOM
      1 BR2         6.7160  -21.6830   26.8620 br        1 LZJ     -0.064600
      2 C18         5.9790  -20.3670   25.7500 ca        1 LZJ     -0.021900
      3 C17         6.4160  -19.0480   25.9020 ca        1 LZJ     -0.097500
      4 C16         5.8920  -18.0400   25.0970 ca        1 LZJ     -0.127000
      5 C15         4.9300  -18.3420   24.1360 ca        1 LZJ     -0.097500
      6 C14         4.4900  -19.6590   23.9760 ca        1 LZJ     -0.021900
      7 BR1         3.1880  -20.0120   22.6730 br        1 LZJ     -0.064600
      8 C12         5.0090  -20.6870   24.7830 cp        1 LZJ      0.019000
      9 C9          4.5400  -22.0640   24.6250 cp        1 LZJ     -0.252300
     10 C10         3.5410  -22.5690   25.4240 ca        1 LZJ      0.029000
     11 C5          3.1060  -23.8990   25.2510 ca        1 LZJ     -0.416600
     12 C6          2.0880  -24.5090   26.0440 ca        1 LZJ      0.512200
     13 N1          1.6750  -25.7480   25.8780 nb        1 LZJ     -0.750000
     14 C8          5.1260  -22.9400   23.6130 ca        1 LZJ      0.726200
     15 N13         6.1910  -22.4690   22.8610 nh        1 LZJ     -0.942500
     16 N7          4.7120  -24.2130   23.4110 nb        1 LZJ     -0.741000
     17 C4          3.7140  -24.7110   24.2230 ca        1 LZJ      0.756300
     18 N3          3.3030  -26.0190   24.0250 nb        1 LZJ     -0.756000
     19 C2          2.2990  -26.4770   24.8300 ca        1 LZJ      0.893900
     20 N11         1.8010  -27.7530   24.5820 nh        1 LZJ     -0.934500
     21 H17         7.1760  -18.7990   26.6600 ha        1 LZJ      0.153500
     22 H16         6.2380  -17.0020   25.2210 ha        1 LZJ      0.146000
     23 H15         4.5190  -17.5380   23.5060 ha        1 LZJ      0.153500
     24 H10         3.0720  -21.9450   26.2010 ha        1 LZJ      0.144000
     25 H6          1.6040  -23.9320   26.8560 h4        1 LZJ      0.025100
     26 H131        6.4920  -23.0060   22.0810 hn        1 LZJ      0.428800
     27 H132        6.2810  -21.4840   22.7870 hn        1 LZJ      0.428800
     28 H111        2.3340  -28.3500   23.9940 hn        1 LZJ      0.436300
     29 H112        1.2500  -28.1780   25.2880 hn        1 LZJ      0.436300
@<TRIPOS>BOND
     1    1    2 1   
     2    2    3 ar  
     3    2    8 ar  
     4    3    4 ar  
     5    3   21 1   
     6    4    5 ar  
     7    4   22 1   
     8    5    6 ar  
     9    5   23 1   
    10    6    7 1   
    11    6    8 ar  
    12    8    9 1   
    13    9   10 ar  
    14    9   14 ar  
    15   10   11 ar  
    16   10   24 1   
    17   11   12 ar  
    18   11   17 ar  
    19   12   13 ar  
    20   12   25 1   
    21   13   19 ar  
    22   14   15 1   
    23   14   16 ar  
    24   15   26 1   
    25   15   27 1   
    26   16   17 ar  
    27   17   18 ar  
    28   18   19 ar  
    29   19   20 1   
    30   20   28 1   
    31   20   29 1   
@<TRIPOS>SUBSTRUCTURE
     1 LZJ         1 TEMP              0 ****  ****    0 ROOT
