@<TRIPOS>MOLECULE
LZK
   37    39     1     0     0
SMALL
bcc


@<TRIPOS>ATOM
      1 N20         1.7440  -27.6740   24.6570 nh        1 LZK     -0.930500
      2 C19         2.1570  -26.3450   24.7740 ca        1 LZK      0.881900
      3 N17         3.2360  -25.9470   24.0390 nb        1 LZK     -0.753000
      4 N18         1.3710  -25.5130   25.6160 nb        1 LZK     -0.752000
      5 C16         1.7060  -24.2390   25.6430 ca        1 LZK      0.507200
      6 C11         2.7920  -23.6890   24.8990 ca        1 LZK     -0.408600
      7 C15         3.5580  -24.5990   24.0830 ca        1 LZK      0.746300
      8 N12         4.6320  -24.1610   23.3370 nb        1 LZK     -0.746000
      9 C6          4.9410  -22.8430   23.3670 ca        1 LZK      0.714200
     10 N13         5.9410  -22.3880   22.5120 nh        1 LZK     -0.926500
     11 C5          3.1540  -22.3250   24.9300 ca        1 LZK      0.011000
     12 C2          4.2250  -21.8740   24.1940 cp        1 LZK     -0.188300
     13 C1          4.6080  -20.4670   24.2350 cp        1 LZK     -0.081000
     14 C4          5.8710  -20.0460   24.7060 ca        1 LZK      0.155100
     15 O1          6.7470  -21.0590   25.0520 os        1 LZK     -0.327400
     16 C45         7.8750  -20.6770   25.8330 c3        1 LZK      0.113700
     17 C3          3.7000  -19.4590   23.8340 ca        1 LZK      0.155100
     18 O7          2.4610  -19.9080   23.4240 os        1 LZK     -0.327400
     19 C43         1.6260  -18.9540   22.7750 c3        1 LZK      0.113700
     20 C7          4.0430  -18.1000   23.8890 ca        1 LZK     -0.231500
     21 C14         5.2970  -17.7280   24.3610 ca        1 LZK     -0.060000
     22 C9          6.2150  -18.6890   24.7730 ca        1 LZK     -0.231500
     23 H201        2.3910  -28.3130   24.2560 hn        1 LZK      0.429300
     24 H202        1.1510  -28.0260   25.3700 hn        1 LZK      0.429300
     25 H16         1.0970  -23.5820   26.2930 h4        1 LZK      0.022100
     26 H5          2.5660  -21.6230   25.5430 ha        1 LZK      0.142000
     27 H131        6.5190  -23.0760   22.0840 hn        1 LZK      0.419300
     28 H132        6.4100  -21.5640   22.8090 hn        1 LZK      0.419300
     29 H9          7.2000  -18.3780   25.1470 ha        1 LZK      0.141500
     30 H451        8.5950  -20.0910   25.2110 h1        1 LZK      0.047200
     31 H452        7.5620  -20.0910   26.7300 h1        1 LZK      0.047200
     32 H453        8.3230  -21.6580   26.1360 h1        1 LZK      0.047200
     33 H7          3.3300  -17.3280   23.5680 ha        1 LZK      0.141500
     34 H431        1.2820  -18.1790   23.5030 h1        1 LZK      0.047200
     35 H432        2.1540  -18.4780   21.9140 h1        1 LZK      0.047200
     36 H433        0.7620  -19.5700   22.4190 h1        1 LZK      0.047200
     37 H14         5.5670  -16.6620   24.4090 ha        1 LZK      0.136000
@<TRIPOS>BOND
     1    1    2 1   
     2    1   23 1   
     3    1   24 1   
     4    2    3 ar  
     5    2    4 ar  
     6    3    7 ar  
     7    4    5 ar  
     8    5    6 ar  
     9    5   25 1   
    10    6    7 ar  
    11    6   11 ar  
    12    7    8 ar  
    13    8    9 ar  
    14    9   10 1   
    15    9   12 ar  
    16   10   27 1   
    17   10   28 1   
    18   11   12 ar  
    19   11   26 1   
    20   12   13 1   
    21   13   14 ar  
    22   13   17 ar  
    23   14   15 1   
    24   14   22 ar  
    25   15   16 1   
    26   16   30 1   
    27   16   31 1   
    28   16   32 1   
    29   17   18 1   
    30   17   20 ar  
    31   18   19 1   
    32   19   34 1   
    33   19   35 1   
    34   19   36 1   
    35   20   21 ar  
    36   20   33 1   
    37   21   22 ar  
    38   21   37 1   
    39   22   29 1   
@<TRIPOS>SUBSTRUCTURE
     1 LZK         1 TEMP              0 ****  ****    0 ROOT
