@<TRIPOS>MOLECULE
LZK
   37    39     1     0     0
SMALL
bcc


@<TRIPOS>ATOM
      1 N20        -0.0530    0.2490   -0.0430 nv        1 LZK     -0.928500
      2 C19         1.3370    0.1090    0.0150 ca        1 LZK      0.880900
      3 N17         1.9120   -0.0100    1.2460 nb        1 LZK     -0.752000
      4 N18         2.0280    0.1610   -1.2240 nb        1 LZK     -0.752000
      5 C16         3.3430    0.1380   -1.1530 ca        1 LZK      0.507200
      6 C11         4.0690    0.0530    0.0730 ca        1 LZK     -0.407600
      7 C15         3.2980   -0.0320    1.2890 ca        1 LZK      0.746300
      8 N12         3.9110   -0.1380    2.5200 nb        1 LZK     -0.746000
      9 C6          5.2630   -0.1710    2.5630 ca        1 LZK      0.713200
     10 N13         5.8710   -0.4070    3.7930 nv        1 LZK     -0.925500
     11 C5          5.4780    0.0450    0.1520 ca        1 LZK      0.010000
     12 C2          6.1040   -0.0490    1.3740 cp        1 LZK     -0.188300
     13 C1          7.5600   -0.0410    1.4590 cp        1 LZK     -0.081000
     14 C4          8.2650    0.9660    2.1540 ca        1 LZK      0.155100
     15 O1          7.4820    1.8970    2.8140 os        1 LZK     -0.327400
     16 C45         8.1360    3.0950    3.2220 c3        1 LZK      0.113700
     17 C3          8.3290   -1.0330    0.8070 ca        1 LZK      0.155100
     18 O7          7.6040   -1.9730    0.1010 os        1 LZK     -0.327400
     19 C43         8.3230   -3.1180   -0.3470 c3        1 LZK      0.113700
     20 C7          9.7300   -1.0250    0.8570 ca        1 LZK     -0.231500
     21 C14        10.3850   -0.0140    1.5510 ca        1 LZK     -0.060000
     22 C9          9.6660    0.9860    2.1990 ca        1 LZK     -0.231500
     23 H201       -0.5630   -0.0050    0.7710 hn        1 LZK      0.428300
     24 H202       -0.4850    0.0590   -0.9160 hn        1 LZK      0.428300
     25 H16         3.8910    0.1810   -2.1140 h4        1 LZK      0.022100
     26 H5          6.0720    0.1050   -0.7740 ha        1 LZK      0.142000
     27 H131        5.2990   -0.3220    4.6040 hn        1 LZK      0.419300
     28 H132        6.7930   -0.0460    3.8870 hn        1 LZK      0.419300
     29 H9         10.1990    1.7790    2.7400 ha        1 LZK      0.141500
     30 H451        7.2900    3.7500    3.5520 h1        1 LZK      0.047533
     31 H452        8.6890    3.5600    2.3710 h1        1 LZK      0.047533
     32 H453        8.8280    2.8860    4.0740 h1        1 LZK      0.047533
     33 H7         10.3140   -1.8060    0.3510 ha        1 LZK      0.141500
     34 H431        8.8530   -3.6150    0.5010 h1        1 LZK      0.047533
     35 H432        9.0460   -2.8340   -1.1510 h1        1 LZK      0.047533
     36 H433        7.5190   -3.7810   -0.7560 h1        1 LZK      0.047533
     37 H14        11.4850   -0.0030    1.5880 ha        1 LZK      0.136000
@<TRIPOS>BOND
     1    1    2 1   
     2    1   23 1   
     3    1   24 1   
     4    2    3 ar  
     5    2    4 ar  
     6    3    7 ar  
     7    4    5 ar  
     8    5    6 ar  
     9    5   25 1   
    10    6    7 ar  
    11    6   11 ar  
    12    7    8 ar  
    13    8    9 ar  
    14    9   10 1   
    15    9   12 ar  
    16   10   27 1   
    17   10   28 1   
    18   11   12 ar  
    19   11   26 1   
    20   12   13 1   
    21   13   14 ar  
    22   13   17 ar  
    23   14   15 1   
    24   14   22 ar  
    25   15   16 1   
    26   16   30 1   
    27   16   31 1   
    28   16   32 1   
    29   17   18 1   
    30   17   20 ar  
    31   18   19 1   
    32   19   34 1   
    33   19   35 1   
    34   19   36 1   
    35   20   21 ar  
    36   20   33 1   
    37   21   22 ar  
    38   21   37 1   
    39   22   29 1   
@<TRIPOS>SUBSTRUCTURE
     1 LZK         1 TEMP              0 ****  ****    0 ROOT
