@<TRIPOS>MOLECULE
LZK
   37    39     1     0     0
SMALL
bcc


@<TRIPOS>ATOM
      1 N20        -0.0560   -0.0590   -0.0650 nh        1 LZK     -0.930500
      2 C19         1.3350    0.0430    0.0110 ca        1 LZK      0.881900
      3 N17         1.9120   -0.0390    1.2450 nb        1 LZK     -0.753000
      4 N18         2.0270    0.1680   -1.2230 nb        1 LZK     -0.752000
      5 C16         3.3420    0.1620   -1.1500 ca        1 LZK      0.507200
      6 C11         4.0690    0.0510    0.0720 ca        1 LZK     -0.408600
      7 C15         3.2970   -0.0510    1.2880 ca        1 LZK      0.746300
      8 N12         3.9120   -0.1510    2.5180 nb        1 LZK     -0.746000
      9 C6          5.2640   -0.1760    2.5620 ca        1 LZK      0.714200
     10 N13         5.8730   -0.4090    3.7920 nh        1 LZK     -0.926500
     11 C5          5.4770    0.0490    0.1520 ca        1 LZK      0.011000
     12 C2          6.1040   -0.0480    1.3730 cp        1 LZK     -0.188300
     13 C1          7.5600   -0.0390    1.4580 cp        1 LZK     -0.081000
     14 C4          8.2660    0.9670    2.1540 ca        1 LZK      0.155100
     15 O1          7.4820    1.8970    2.8140 os        1 LZK     -0.327400
     16 C45         8.1380    3.0900    3.2320 c3        1 LZK      0.113700
     17 C3          8.3280   -1.0300    0.8040 ca        1 LZK      0.155100
     18 O7          7.6040   -1.9680    0.0950 os        1 LZK     -0.327400
     19 C43         8.3220   -3.1140   -0.3510 c3        1 LZK      0.113700
     20 C7          9.7290   -1.0230    0.8540 ca        1 LZK     -0.231500
     21 C14        10.3850   -0.0130    1.5510 ca        1 LZK     -0.060000
     22 C9          9.6660    0.9860    2.2000 ca        1 LZK     -0.231500
     23 H201       -0.4850    0.2630   -0.9000 hn        1 LZK      0.429300
     24 H202       -0.5640    0.0700    0.7790 hn        1 LZK      0.429300
     25 H16         3.8900    0.2560   -2.1080 h4        1 LZK      0.022100
     26 H5          6.0720    0.1150   -0.7740 ha        1 LZK      0.142000
     27 H131        6.7940   -0.0460    3.8860 hn        1 LZK      0.419300
     28 H132        5.3000   -0.3310    4.6030 hn        1 LZK      0.419300
     29 H9         10.2000    1.7780    2.7420 ha        1 LZK      0.141500
     30 H451        7.2940    3.7460    3.5640 h1        1 LZK      0.047200
     31 H452        8.6940    3.5600    2.3850 h1        1 LZK      0.047200
     32 H453        8.8280    2.8750    4.0840 h1        1 LZK      0.047200
     33 H7         10.3140   -1.8030    0.3470 ha        1 LZK      0.141500
     34 H431        9.0450   -2.8310   -1.1550 h1        1 LZK      0.047200
     35 H432        8.8490   -3.6120    0.4970 h1        1 LZK      0.047200
     36 H433        7.5170   -3.7760   -0.7610 h1        1 LZK      0.047200
     37 H14        11.4850   -0.0030    1.5880 ha        1 LZK      0.136000
@<TRIPOS>BOND
     1    1    2 1   
     2    1   23 1   
     3    1   24 1   
     4    2    3 ar  
     5    2    4 ar  
     6    3    7 ar  
     7    4    5 ar  
     8    5    6 ar  
     9    5   25 1   
    10    6    7 ar  
    11    6   11 ar  
    12    7    8 ar  
    13    8    9 ar  
    14    9   10 1   
    15    9   12 ar  
    16   10   27 1   
    17   10   28 1   
    18   11   12 ar  
    19   11   26 1   
    20   12   13 1   
    21   13   14 ar  
    22   13   17 ar  
    23   14   15 1   
    24   14   22 ar  
    25   15   16 1   
    26   16   30 1   
    27   16   31 1   
    28   16   32 1   
    29   17   18 1   
    30   17   20 ar  
    31   18   19 1   
    32   19   34 1   
    33   19   35 1   
    34   19   36 1   
    35   20   21 ar  
    36   20   33 1   
    37   21   22 ar  
    38   21   37 1   
    39   22   29 1   
@<TRIPOS>SUBSTRUCTURE
     1 LZK         1 TEMP              0 ****  ****    0 ROOT
