@<TRIPOS>MOLECULE
LZK
   37    31     1     0     0
SMALL
bcc


@<TRIPOS>ATOM
      1 N20        -2.1870    1.8230   -4.8540 n3        1 LZK     -0.328000
      2 C19        -1.1430    1.5230   -3.9200 c2        1 LZK      0.163000
      3 N17        -1.2730    2.0830   -2.6790 n2        1 LZK     -0.227000
      4 N18        -0.1840    0.5660   -4.1450 n1        1 LZK     -0.226000
      5 C16         0.6300    0.1760   -3.1430 c1        1 LZK      0.026500
      6 C11         0.5000    0.7440   -1.8820 c1        1 LZK     -0.278000
      7 C15        -0.4480    1.6900   -1.6600 c1        1 LZK      0.155000
      8 N12        -0.6470    2.1890   -0.3730 n1        1 LZK     -0.220000
      9 C6          0.1100    1.7260    0.6650 c1        1 LZK      0.193000
     10 N13         0.0990    3.0210    1.2850 n3        1 LZK     -0.324000
     11 C5          1.2750    0.2700   -0.8210 c1        1 LZK      0.026500
     12 C2          1.0790    0.7590    0.4410 c1        1 LZK     -0.123000
     13 C1          0.4160   -0.3800    0.9520 c1        1 LZK     -0.081000
     14 C4         -0.5950   -0.2280    1.8930 c1        1 LZK      0.100000
     15 O1         -0.7500    0.9920    2.5570 os        1 LZK     -0.219000
     16 C45        -0.7490    0.8830    3.9620 c3        1 LZK     -0.075000
     17 C3          0.6710   -1.6330    0.4050 c1        1 LZK      0.120000
     18 O7          1.7850   -1.8170   -0.4390 o         1 LZK     -0.202000
     19 C43         2.6800   -2.8180    0.0050 c3        1 LZK     -0.077000
     20 C7         -0.0830   -2.7250    0.7980 c2        1 LZK     -0.231000
     21 C14        -1.0920   -2.5710    1.7370 c1        1 LZK     -0.060000
     22 C9         -1.3480   -1.3240    2.2840 c1        1 LZK     -0.232000
     23 H201       -2.7590    2.5200   -4.6930 hn        1 LZK      0.224500
     24 H202       -2.2770    1.3220   -5.6180 hn        1 LZK      0.224500
     25 H16         1.3140   -0.5060   -3.3050 ha        1 LZK      0.150500
     26 H5          1.9530   -0.4070   -0.9800 ha        1 LZK      0.150500
     27 H131       -0.5990    3.5940    1.1370 hn        1 LZK      0.214500
     28 H132        0.7910    3.2740    1.8310 hn        1 LZK      0.214500
     29 H9         -2.0570   -1.2180    2.9440 ha        1 LZK      0.141000
     30 H451       -1.5420    0.3820    4.2520 h1        1 LZK      0.086667
     31 H452       -0.7650    1.7790    4.3580 h1        1 LZK      0.086667
     32 H453        0.0640    0.4090    4.2540 h1        1 LZK      0.086667
     33 H7          0.0950   -3.6020    0.4150 ha        1 LZK      0.142000
     34 H431        3.6010   -2.4910   -0.0760 h1        1 LZK      0.086333
     35 H432        2.5690   -3.6260   -0.5450 h1        1 LZK      0.086333
     36 H433        2.4910   -3.0340    0.9470 h1        1 LZK      0.086333
     37 H14        -1.6230   -3.3430    2.0140 ha        1 LZK      0.136000
@<TRIPOS>BOND
     1    1    2 1   
     2    1   23 1   
     3    1   24 1   
     4    2    3 1   
     5    2    4 1   
     6    3    7 1   
     7    5    6 1   
     8    5   25 1   
     9    6   11 1   
    10    7    8 1   
    11    9   10 1   
    12    9   12 1   
    13   10   27 1   
    14   10   28 1   
    15   11   26 1   
    16   13   17 1   
    17   14   15 1   
    18   14   22 1   
    19   15   16 1   
    20   16   30 1   
    21   16   31 1   
    22   16   32 1   
    23   17   20 1   
    24   18   19 1   
    25   19   34 1   
    26   19   35 1   
    27   19   36 1   
    28   20   21 1   
    29   20   33 1   
    30   21   37 1   
    31   22   29 1   
@<TRIPOS>SUBSTRUCTURE
     1 LZK         1 TEMP              0 ****  ****    0 ROOT
