@<TRIPOS>MOLECULE
LZK
   39    41     1     0     0
SMALL
bcc


@<TRIPOS>ATOM
      1 N20        -0.1130    0.0600   -0.1050 n4        1 LZK     -0.818300
      2 C19         1.3790    0.0420   -0.0090 ca        1 LZK      0.728900
      3 N17         1.9030   -0.0210    1.2200 nb        1 LZK     -0.603000
      4 N18         2.0480    0.0960   -1.2460 nb        1 LZK     -0.663000
      5 C16         3.3640    0.0820   -1.1810 ca        1 LZK      0.531200
      6 C11         4.0870    0.0160    0.0670 ca        1 LZK     -0.267600
      7 C15         3.3040   -0.0360    1.2760 ca        1 LZK      0.665300
      8 N12         3.9020   -0.1060    2.5140 nb        1 LZK     -0.609000
      9 C6          5.2430   -0.1140    2.5440 ca        1 LZK      0.531200
     10 N13         5.8690   -0.1960    3.8820 n4        1 LZK     -0.827300
     11 C5          5.4900    0.0050    0.1540 ca        1 LZK     -0.004000
     12 C2          6.1130   -0.0470    1.4000 cp        1 LZK     -0.018300
     13 C1          7.5590   -0.0620    1.5250 cp        1 LZK     -0.233000
     14 C4          8.2690    0.9290    2.2500 ca        1 LZK      0.182600
     15 O1          7.4920    1.8470    2.9330 os        1 LZK     -0.380400
     16 C45         8.1290    3.0820    3.2890 c3        1 LZK      0.111700
     17 C3          8.3230   -1.0330    0.8270 ca        1 LZK      0.182600
     18 O7          7.5880   -1.9560    0.1250 os        1 LZK     -0.380400
     19 C43         8.3180   -3.0020   -0.5290 c3        1 LZK      0.111700
     20 C7          9.7250   -1.0270    0.8790 ca        1 LZK     -0.218000
     21 C14        10.3820   -0.0360    1.6010 ca        1 LZK      0.000000
     22 C9          9.6640    0.9450    2.2880 ca        1 LZK     -0.218000
     23 H201       -0.5380    0.0190    0.8330 hn        1 LZK      0.493467
     24 H202       -0.4060    0.9270   -0.5790 hn        1 LZK      0.493467
     25 H16         3.9120    0.1240   -2.1490 h4        1 LZK      0.092100
     26 H5          6.1100    0.0250   -0.7630 ha        1 LZK      0.204000
     27 H131        6.7140   -0.7810    3.8040 hn        1 LZK      0.488800
     28 H132        6.1560    0.7590    4.1640 hn        1 LZK      0.488800
     29 H9         10.2050    1.7260    2.8440 ha        1 LZK      0.175500
     30 H451        8.6600    3.5180    2.4090 h1        1 LZK      0.070700
     31 H452        8.8320    2.9100    4.1390 h1        1 LZK      0.070700
     32 H453        7.2710    3.7320    3.6000 h1        1 LZK      0.070700
     33 H7         10.3100   -1.7910    0.3430 ha        1 LZK      0.175500
     34 H431        8.9840   -2.5740   -1.3170 h1        1 LZK      0.070700
     35 H432        8.9030   -3.5940    0.2150 h1        1 LZK      0.070700
     36 H433        7.5070   -3.6250   -0.9860 h1        1 LZK      0.070700
     37 H14        11.4860   -0.0220    1.6300 ha        1 LZK      0.178000
     38 H203       -0.4210   -0.7510   -0.6610 hn        1 LZK      0.493467
     39 H133        5.2270   -0.5880    4.5840 hn        1 LZK      0.488800
@<TRIPOS>BOND
     1    1    2 1   
     2    1   23 1   
     3    1   24 1   
     4    1   38 1   
     5    2    3 ar  
     6    2    4 ar  
     7    3    7 ar  
     8    4    5 ar  
     9    5    6 ar  
    10    5   25 1   
    11    6    7 ar  
    12    6   11 ar  
    13    7    8 ar  
    14    8    9 ar  
    15    9   10 1   
    16    9   12 ar  
    17   10   27 1   
    18   10   28 1   
    19   10   39 1   
    20   11   12 ar  
    21   11   26 1   
    22   12   13 1   
    23   13   14 ar  
    24   13   17 ar  
    25   14   15 1   
    26   14   22 ar  
    27   15   16 1   
    28   16   30 1   
    29   16   31 1   
    30   16   32 1   
    31   17   18 1   
    32   17   20 ar  
    33   18   19 1   
    34   19   34 1   
    35   19   35 1   
    36   19   36 1   
    37   20   21 ar  
    38   20   33 1   
    39   21   22 ar  
    40   21   37 1   
    41   22   29 1   
@<TRIPOS>SUBSTRUCTURE
     1 LZK         1 TEMP              0 ****  ****    0 ROOT
