@<TRIPOS>MOLECULE
LZL
   37    40     1     0     0
SMALL
bcc


@<TRIPOS>ATOM
      1 N22        -0.0220   -0.0200   -0.0020 nv        1 LZL     -0.932500
      2 C21         1.3710   -0.0440   -0.0220 ca        1 LZL      0.886900
      3 N20         2.0240    0.2110    1.2140 nb        1 LZL     -0.743000
      4 C15         3.3380    0.2800    1.1710 ca        1 LZL      0.506200
      5 C9          4.1010    0.1040   -0.0240 ca        1 LZL     -0.398600
      6 C4          5.5080    0.1600   -0.0800 ca        1 LZL     -0.014000
      7 N18         1.9870   -0.2590   -1.2210 nb        1 LZL     -0.750000
      8 C12         3.3700   -0.1710   -1.2340 ca        1 LZL      0.739300
      9 N6          4.0240   -0.3410   -2.4380 nb        1 LZL     -0.729000
     10 C2          5.3700   -0.2800   -2.4710 ca        1 LZL      0.691200
     11 N5          6.0430   -0.5390   -3.6890 nh        1 LZL     -0.729300
     12 C11         7.1000    0.4190   -4.0790 c3        1 LZL      0.197500
     13 C17         6.9180    0.6700   -5.5590 c2        1 LZL     -0.189200
     14 C16         5.8880   -0.0560   -6.0260 c2        1 LZL     -0.189200
     15 C10         5.2590   -0.8530   -4.9030 c3        1 LZL      0.197500
     16 C1          6.1700   -0.0430   -1.2710 cp        1 LZL     -0.198300
     17 C3          7.6320   -0.0600   -1.2680 cp        1 LZL     -0.036000
     18 C8          8.3410    1.0610   -0.8120 ca        1 LZL     -0.116500
     19 C14         9.7330    1.0330   -0.7490 ca        1 LZL     -0.134500
     20 C19        10.4290   -0.1130   -1.1320 ca        1 LZL     -0.127000
     21 C13         9.7290   -1.2330   -1.5810 ca        1 LZL     -0.134500
     22 C7          8.3370   -1.2100   -1.6500 ca        1 LZL     -0.116500
     23 H221       -0.4980   -0.3870   -0.7930 hn        1 LZL      0.434800
     24 H222       -0.4690   -0.1080    0.8800 hn        1 LZL      0.434800
     25 H15         3.8560    0.4790    2.1290 h4        1 LZL      0.026100
     26 H4          6.0760    0.3540    0.8450 ha        1 LZL      0.143000
     27 H111        7.0520    1.3760   -3.4920 h1        1 LZL      0.073700
     28 H112        8.0940   -0.0710   -3.8820 h1        1 LZL      0.073700
     29 H101        4.1660   -0.6080   -4.8270 h1        1 LZL      0.073700
     30 H102        5.3660   -1.9570   -5.0860 h1        1 LZL      0.073700
     31 H17         7.5790    1.3530   -6.0910 ha        1 LZL      0.151500
     32 H16         5.4930   -0.1170   -7.0390 ha        1 LZL      0.151500
     33 H8          7.7930    1.9640   -0.5050 ha        1 LZL      0.141000
     34 H7          7.7860   -2.0940   -2.0070 ha        1 LZL      0.141000
     35 H14        10.2820    1.9170   -0.3930 ha        1 LZL      0.133500
     36 H19        11.5270   -0.1350   -1.0780 ha        1 LZL      0.133000
     37 H13        10.2750   -2.1400   -1.8810 ha        1 LZL      0.133500
@<TRIPOS>BOND
     1    1    2 1   
     2    1   23 1   
     3    1   24 1   
     4    2    3 ar  
     5    2    7 ar  
     6    3    4 ar  
     7    4    5 ar  
     8    4   25 1   
     9    5    6 ar  
    10    5    8 ar  
    11    6   16 ar  
    12    6   26 1   
    13    7    8 ar  
    14    8    9 ar  
    15    9   10 ar  
    16   10   11 1   
    17   10   16 ar  
    18   11   12 1   
    19   11   15 1   
    20   12   13 1   
    21   12   27 1   
    22   12   28 1   
    23   13   14 2   
    24   13   31 1   
    25   14   15 1   
    26   14   32 1   
    27   15   29 1   
    28   15   30 1   
    29   16   17 1   
    30   17   18 ar  
    31   17   22 ar  
    32   18   19 ar  
    33   18   33 1   
    34   19   20 ar  
    35   19   35 1   
    36   20   21 ar  
    37   20   36 1   
    38   21   22 ar  
    39   21   37 1   
    40   22   34 1   
@<TRIPOS>SUBSTRUCTURE
     1 LZL         1 TEMP              0 ****  ****    0 ROOT
