@<TRIPOS>MOLECULE
LZL
   37    40     1     0     0
SMALL
bcc


@<TRIPOS>ATOM
      1 N22        -0.0080   -0.2530    0.0440 nh        1 LZL     -0.934500
      2 C21         1.3700   -0.0610   -0.0200 ca        1 LZL      0.887900
      3 N20         2.0170    0.2850    1.1980 nb        1 LZL     -0.744000
      4 C15         3.3290    0.3680    1.1530 ca        1 LZL      0.506200
      5 C9          4.0970    0.1430   -0.0310 ca        1 LZL     -0.398600
      6 C4          5.5030    0.2030   -0.0850 ca        1 LZL     -0.013000
      7 N18         1.9870   -0.2660   -1.2210 nb        1 LZL     -0.751000
      8 C12         3.3690   -0.1710   -1.2340 ca        1 LZL      0.739300
      9 N6          4.0260   -0.3610   -2.4330 nb        1 LZL     -0.730000
     10 C2          5.3720   -0.2950   -2.4660 ca        1 LZL      0.691200
     11 N5          6.0480   -0.5780   -3.6760 nh        1 LZL     -0.729300
     12 C11         7.1010    0.3760   -4.0860 c3        1 LZL      0.197500
     13 C17         6.9210    0.5910   -5.5720 c2        1 LZL     -0.189200
     14 C16         5.8960   -0.1510   -6.0240 c2        1 LZL     -0.189200
     15 C10         5.2690   -0.9250   -4.8840 c3        1 LZL      0.197500
     16 C1          6.1690   -0.0280   -1.2700 cp        1 LZL     -0.198300
     17 C3          7.6300   -0.0420   -1.2630 cp        1 LZL     -0.036000
     18 C8          8.3380    1.0890   -0.8310 ca        1 LZL     -0.116000
     19 C14         9.7290    1.0650   -0.7650 ca        1 LZL     -0.134500
     20 C19        10.4280   -0.0880   -1.1210 ca        1 LZL     -0.127000
     21 C13         9.7300   -1.2180   -1.5470 ca        1 LZL     -0.134500
     22 C7          8.3380   -1.2000   -1.6190 ca        1 LZL     -0.116000
     23 H221       -0.5050   -0.3030   -0.8140 hn        1 LZL      0.435300
     24 H222       -0.4870    0.1160    0.8300 hn        1 LZL      0.435300
     25 H15         3.8420    0.6320    2.0980 h4        1 LZL      0.026100
     26 H4          6.0690    0.4220    0.8360 ha        1 LZL      0.143000
     27 H111        8.0980   -0.1040   -3.8750 h1        1 LZL      0.073950
     28 H112        7.0460    1.3460   -3.5220 h1        1 LZL      0.073950
     29 H101        5.3830   -2.0330   -5.0400 h1        1 LZL      0.073950
     30 H102        4.1740   -0.6850   -4.8150 h1        1 LZL      0.073950
     31 H17         7.5790    1.2650   -6.1180 ha        1 LZL      0.151500
     32 H16         5.5040   -0.2380   -7.0360 ha        1 LZL      0.151500
     33 H8          7.7880    1.9980   -0.5450 ha        1 LZL      0.141000
     34 H7          7.7890   -2.0920   -1.9570 ha        1 LZL      0.141000
     35 H14        10.2770    1.9580   -0.4280 ha        1 LZL      0.134000
     36 H19        11.5260   -0.1070   -1.0650 ha        1 LZL      0.133000
     37 H13        10.2780   -2.1310   -1.8250 ha        1 LZL      0.134000
@<TRIPOS>BOND
     1    1    2 1   
     2    1   23 1   
     3    1   24 1   
     4    2    3 ar  
     5    2    7 ar  
     6    3    4 ar  
     7    4    5 ar  
     8    4   25 1   
     9    5    6 ar  
    10    5    8 ar  
    11    6   16 ar  
    12    6   26 1   
    13    7    8 ar  
    14    8    9 ar  
    15    9   10 ar  
    16   10   11 1   
    17   10   16 ar  
    18   11   12 1   
    19   11   15 1   
    20   12   13 1   
    21   12   27 1   
    22   12   28 1   
    23   13   14 2   
    24   13   31 1   
    25   14   15 1   
    26   14   32 1   
    27   15   29 1   
    28   15   30 1   
    29   16   17 1   
    30   17   18 ar  
    31   17   22 ar  
    32   18   19 ar  
    33   18   33 1   
    34   19   20 ar  
    35   19   35 1   
    36   20   21 ar  
    37   20   36 1   
    38   21   22 ar  
    39   21   37 1   
    40   22   34 1   
@<TRIPOS>SUBSTRUCTURE
     1 LZL         1 TEMP              0 ****  ****    0 ROOT
