@<TRIPOS>MOLECULE
LZL
   38    41     1     0     0
SMALL
bcc


@<TRIPOS>ATOM
      1 N22        -0.0850   -0.2670    0.1370 n4        1 LZL     -0.819300
      2 C21         1.4110   -0.1910    0.0780 ca        1 LZL      0.716900
      3 N20         2.0370   -0.1110    1.3190 nb        1 LZL     -0.730000
      4 C15         3.3690   -0.0440    1.2580 ca        1 LZL      0.527200
      5 C9          4.0870   -0.0530    0.0380 ca        1 LZL     -0.357600
      6 C4          5.5020    0.0180   -0.0530 ca        1 LZL     -0.021000
      7 N18         1.9430   -0.2100   -1.1530 nb        1 LZL     -0.662000
      8 C12         3.3430   -0.1390   -1.2020 ca        1 LZL      0.738300
      9 N6          3.9410   -0.1540   -2.4210 nb        1 LZL     -0.757000
     10 C2          5.3150   -0.0850   -2.4890 ca        1 LZL      0.759200
     11 N5          5.8520   -0.1040   -3.7360 nh        1 LZL     -0.738300
     12 C11         7.2740   -0.0430   -4.0890 c3        1 LZL      0.231000
     13 C17         7.2990   -0.1000   -5.6030 c2        1 LZL     -0.177200
     14 C16         6.0500   -0.1840   -6.0920 c2        1 LZL     -0.177200
     15 C10         5.0410   -0.1940   -4.9650 c3        1 LZL      0.231000
     16 C1          6.1340    0.0040   -1.2690 cp        1 LZL     -0.153300
     17 C3          7.5970    0.0800   -1.2850 cp        1 LZL     -0.085000
     18 C8          8.2370    1.3280   -1.2930 ca        1 LZL     -0.117000
     19 C14         9.6270    1.3990   -1.2300 ca        1 LZL     -0.125000
     20 C19        10.3870    0.2310   -1.1520 ca        1 LZL     -0.106000
     21 C13         9.7540   -1.0120   -1.1380 ca        1 LZL     -0.125000
     22 C7          8.3630   -1.0910   -1.2010 ca        1 LZL     -0.117000
     23 H221       -0.4750   -0.3240   -0.8130 hn        1 LZL      0.476800
     24 H222       -0.4400    0.5720    0.6090 hn        1 LZL      0.476800
     25 H15         3.8940    0.0210    2.2330 h4        1 LZL      0.062100
     26 H4          6.0900    0.0840    0.8790 ha        1 LZL      0.167000
     27 H111        7.8260   -0.9170   -3.6430 h1        1 LZL      0.082700
     28 H112        7.7310    0.9140   -3.7130 h1        1 LZL      0.082700
     29 H101        4.3410    0.6840   -5.0330 h1        1 LZL      0.082700
     30 H102        4.4360   -1.1420   -4.9630 h1        1 LZL      0.082700
     31 H17         8.2500   -0.0700   -6.1360 ha        1 LZL      0.172000
     32 H16         5.7190   -0.2410   -7.1290 ha        1 LZL      0.172000
     33 H8          7.6410    2.2520   -1.3470 ha        1 LZL      0.141000
     34 H7          7.8670   -2.0730   -1.1820 ha        1 LZL      0.141000
     35 H14        10.1250    2.3810   -1.2360 ha        1 LZL      0.149000
     36 H19        11.4850    0.2910   -1.0980 ha        1 LZL      0.150000
     37 H13        10.3510   -1.9340   -1.0720 ha        1 LZL      0.149000
     38 H223       -0.3530   -1.1000    0.6730 hn        1 LZL      0.476800
@<TRIPOS>BOND
     1    1    2 1   
     2    1   23 1   
     3    1   24 1   
     4    1   38 1   
     5    2    3 ar  
     6    2    7 ar  
     7    3    4 ar  
     8    4    5 ar  
     9    4   25 1   
    10    5    6 ar  
    11    5    8 ar  
    12    6   16 ar  
    13    6   26 1   
    14    7    8 ar  
    15    8    9 ar  
    16    9   10 ar  
    17   10   11 1   
    18   10   16 ar  
    19   11   12 1   
    20   11   15 1   
    21   12   13 1   
    22   12   27 1   
    23   12   28 1   
    24   13   14 2   
    25   13   31 1   
    26   14   15 1   
    27   14   32 1   
    28   15   29 1   
    29   15   30 1   
    30   16   17 1   
    31   17   18 ar  
    32   17   22 ar  
    33   18   19 ar  
    34   18   33 1   
    35   19   20 ar  
    36   19   35 1   
    37   20   21 ar  
    38   20   36 1   
    39   21   22 ar  
    40   21   37 1   
    41   22   34 1   
@<TRIPOS>SUBSTRUCTURE
     1 LZL         1 TEMP              0 ****  ****    0 ROOT
