@<TRIPOS>MOLECULE
LZL
   37    40     1     0     0
SMALL
bcc


@<TRIPOS>ATOM
      1 N22         1.7770  -27.7080   24.4890 nh        1 LZL     -0.932500
      2 C21         2.2560  -26.4130   24.6750 ca        1 LZL      0.886900
      3 N20         1.3850  -25.5060   25.3380 nb        1 LZL     -0.743000
      4 C15         1.8050  -24.2620   25.4280 ca        1 LZL      0.506200
      5 C9          3.0590  -23.8090   24.9130 ca        1 LZL     -0.398600
      6 C4          3.5240  -22.4840   25.0160 ca        1 LZL     -0.014000
      7 N18         3.4880  -26.1110   24.1680 nb        1 LZL     -0.750000
      8 C12         3.8960  -24.7910   24.2710 ca        1 LZL      0.739300
      9 N6          5.1170  -24.4400   23.7310 nb        1 LZL     -0.730000
     10 C2          5.5440  -23.1650   23.8370 ca        1 LZL      0.691200
     11 N5          6.8320  -22.8270   23.3590 nh        1 LZL     -0.729300
     12 C11         6.9290  -21.6160   22.5160 c3        1 LZL      0.197500
     13 C17         7.8520  -21.9710   21.3720 c2        1 LZL     -0.189200
     14 C16         8.2830  -23.2370   21.5040 c2        1 LZL     -0.189200
     15 C10         7.6770  -23.8690   22.7380 c3        1 LZL      0.197500
     16 C1          4.7580  -22.1340   24.5110 cp        1 LZL     -0.198300
     17 C3          5.2380  -20.7680   24.7150 cp        1 LZL     -0.036000
     18 C8          4.4890  -19.6860   24.2310 ca        1 LZL     -0.116500
     19 C14         4.9070  -18.3780   24.4720 ca        1 LZL     -0.134500
     20 C19         6.0710  -18.1380   25.2030 ca        1 LZL     -0.127000
     21 C13         6.8170  -19.2100   25.6910 ca        1 LZL     -0.134500
     22 C7          6.4060  -20.5210   25.4510 ca        1 LZL     -0.116500
     23 H221        2.4300  -28.4030   24.2140 hn        1 LZL      0.434800
     24 H222        1.0130  -27.9980   25.0520 hn        1 LZL      0.434800
     25 H15         1.1330  -23.5480   25.9430 h4        1 LZL      0.026100
     26 H4          2.8970  -21.7300   25.5200 ha        1 LZL      0.143000
     27 H111        5.9280  -21.2700   22.1420 h1        1 LZL      0.073700
     28 H112        7.3780  -20.7970   23.1450 h1        1 LZL      0.073700
     29 H101        8.4740  -24.1340   23.4860 h1        1 LZL      0.073700
     30 H102        7.1270  -24.8070   22.4560 h1        1 LZL      0.073700
     31 H17         8.0840  -21.2400   20.5990 ha        1 LZL      0.151500
     32 H16         8.9590  -23.8040   20.8640 ha        1 LZL      0.151500
     33 H8          3.5690  -19.8730   23.6590 ha        1 LZL      0.141000
     34 H7          6.9980  -21.3660   25.8350 ha        1 LZL      0.141000
     35 H14         4.3160  -17.5350   24.0860 ha        1 LZL      0.133500
     36 H19         6.3980  -17.1060   25.3950 ha        1 LZL      0.133000
     37 H13         7.7340  -19.0240   26.2700 ha        1 LZL      0.133500
@<TRIPOS>BOND
     1    1    2 1   
     2    1   23 1   
     3    1   24 1   
     4    2    3 ar  
     5    2    7 ar  
     6    3    4 ar  
     7    4    5 ar  
     8    4   25 1   
     9    5    6 ar  
    10    5    8 ar  
    11    6   16 ar  
    12    6   26 1   
    13    7    8 ar  
    14    8    9 ar  
    15    9   10 ar  
    16   10   11 1   
    17   10   16 ar  
    18   11   12 1   
    19   11   15 1   
    20   12   13 1   
    21   12   27 1   
    22   12   28 1   
    23   13   14 2   
    24   13   31 1   
    25   14   15 1   
    26   14   32 1   
    27   15   29 1   
    28   15   30 1   
    29   16   17 1   
    30   17   18 ar  
    31   17   22 ar  
    32   18   19 ar  
    33   18   33 1   
    34   19   20 ar  
    35   19   35 1   
    36   20   21 ar  
    37   20   36 1   
    38   21   22 ar  
    39   21   37 1   
    40   22   34 1   
@<TRIPOS>SUBSTRUCTURE
     1 LZL         1 TEMP              0 ****  ****    0 ROOT
