@<TRIPOS>MOLECULE
LZL
   37    32     1     0     0
SMALL
bcc


@<TRIPOS>ATOM
      1 N22        -5.8100    0.1710    1.7000 n3        1 LZL     -0.330000
      2 C21        -4.3800    0.1540    1.6680 c2        1 LZL      0.168000
      3 N20        -3.7080    0.1170    2.8680 n2        1 LZL     -0.217000
      4 C15        -2.3610    0.0440    2.8860 c1        1 LZL      0.041000
      5 C9         -1.6510    0.0050    1.6900 c1        1 LZL     -0.200500
      6 C4         -0.2540   -0.0510    1.7050 c2        1 LZL     -0.014000
      7 N18        -3.6830    0.1150    0.4880 n1        1 LZL     -0.224000
      8 C12        -2.3180    0.0410    0.5020 c1        1 LZL      0.159000
      9 N6         -1.6060    0.0220   -0.7000 n2        1 LZL     -0.204000
     10 C2         -0.2420   -0.0340   -0.6860 c1        1 LZL      0.159000
     11 N5         -0.6740    0.1270   -2.0530 n2        1 LZL     -0.220000
     12 C11         0.1000    1.3810   -2.7210 c3        1 LZL     -0.041000
     13 C17         0.8690    0.7310   -3.6510 c2        1 LZL     -0.192000
     14 C16         0.4790   -0.5650   -3.9070 c1        1 LZL     -0.178000
     15 C10        -0.2220   -1.1630   -2.9170 c2        1 LZL     -0.046000
     16 C1          0.4420   -0.0700    0.5250 c1        1 LZL     -0.200500
     17 C3          1.8200   -0.1090    0.8060 c1        1 LZL     -0.036000
     18 C8          2.4660   -1.3320    0.9560 c1        1 LZL     -0.125500
     19 C14         3.8280   -1.3700    1.2310 c1        1 LZL     -0.125500
     20 C19         4.5460   -0.1850    1.3570 c1        1 LZL     -0.125500
     21 C13         3.9000    1.0380    1.2080 c1        1 LZL     -0.125500
     22 C7          2.5380    1.0760    0.9320 c1        1 LZL     -0.127000
     23 H221       -6.2520    0.0600    2.4960 hn        1 LZL      0.230000
     24 H222       -6.2850    0.2810    0.9240 hn        1 LZL      0.230000
     25 H15        -1.8830    0.0180    3.7430 ha        1 LZL      0.163000
     26 H4          0.2280   -0.0770    2.5610 ha        1 LZL      0.143000
     27 H111        0.5840    2.0620   -2.2070 h1        1 LZL      0.107000
     28 H112       -0.5960    1.9290   -3.1480 h1        1 LZL      0.107000
     29 H101        0.1680   -1.9320   -2.4480 h4        1 LZL      0.119000
     30 H102       -1.0230   -1.5750   -3.3110 h4        1 LZL      0.119000
     31 H17         1.8040    0.9980   -3.7890 ha        1 LZL      0.151000
     32 H16         0.9330   -1.1100   -4.5860 ha        1 LZL      0.152000
     33 H8          1.9610   -2.1670    0.8670 ha        1 LZL      0.137000
     34 H7          2.0830    1.9380    0.8270 ha        1 LZL      0.134000
     35 H14         4.2840   -2.2320    1.3360 ha        1 LZL      0.137000
     36 H19         5.5070   -0.2120    1.5510 ha        1 LZL      0.137000
     37 H13         4.4060    1.8740    1.2960 ha        1 LZL      0.137000
@<TRIPOS>BOND
     1    1    2 1   
     2    1   23 1   
     3    1   24 1   
     4    2    3 1   
     5    2    7 1   
     6    3    4 1   
     7    4   25 1   
     8    5    6 1   
     9    5    8 1   
    10    6   16 1   
    11    6   26 1   
    12    8    9 1   
    13    9   10 1   
    14   10   16 1   
    15   11   12 1   
    16   11   15 1   
    17   12   13 1   
    18   12   27 1   
    19   12   28 1   
    20   13   14 1   
    21   13   31 1   
    22   14   32 1   
    23   15   29 1   
    24   15   30 1   
    25   17   22 1   
    26   18   19 1   
    27   18   33 1   
    28   19   35 1   
    29   20   21 1   
    30   20   36 1   
    31   21   37 1   
    32   22   34 1   
@<TRIPOS>SUBSTRUCTURE
     1 LZL         1 TEMP              0 ****  ****    0 ROOT
