@<TRIPOS>MOLECULE
LZM
   15    16     1     0     0
SMALL
bcc


@<TRIPOS>ATOM
      1 N1         -1.5680   -0.0060   -2.1060 n1        1 LZM     -0.366800
      2 C2         -0.8770    0.0020   -1.1690 cg        1 LZM      0.242500
      3 C3         -0.0430    0.0110   -0.0490 cc        1 LZM     -0.175300
      4 C4          1.3990    0.0250   -0.0330 cc        1 LZM      0.423500
      5 N5          1.8870    0.0310    1.2350 nd        1 LZM     -0.554100
      6 N6          0.8210    0.0210    2.0550 na        1 LZM      0.042200
      7 C7          0.7740    0.0220    3.4390 cc        1 LZM      0.006700
      8 C8         -0.4560    0.0100    4.0620 cd        1 LZM     -0.303300
      9 C9         -1.6510   -0.0030    3.2640 cd        1 LZM      0.441200
     10 N10        -1.6600   -0.0040    1.9420 nd        1 LZM     -0.620000
     11 C11        -0.4320    0.0080    1.3190 cd        1 LZM      0.398500
     12 H4          2.0650    0.0310   -0.9000 h4        1 LZM      0.067800
     13 H7          1.7380    0.0320    3.9800 h4        1 LZM      0.186000
     14 H8         -0.5270    0.0100    5.1570 ha        1 LZM      0.168000
     15 H9         -2.6400   -0.0120    3.7610 h4        1 LZM      0.041100
@<TRIPOS>BOND
     1    1    2 3   
     2    2    3 1   
     3    3    4 1   
     4    3   11 2   
     5    4    5 2   
     6    4   12 1   
     7    5    6 1   
     8    6    7 1   
     9    6   11 1   
    10    7    8 2   
    11    7   13 1   
    12    8    9 1   
    13    8   14 1   
    14    9   10 2   
    15    9   15 1   
    16   10   11 1   
@<TRIPOS>SUBSTRUCTURE
     1 LZM         1 TEMP              0 ****  ****    0 ROOT
