@<TRIPOS>MOLECULE
LZM
   15    16     1     0     0
SMALL
bcc


@<TRIPOS>ATOM
      1 N1         -1.5500    0.0870   -2.1200 n1        1 LZM     -0.366800
      2 C2         -0.8650    0.0600   -1.1790 cg        1 LZM      0.242500
      3 C3         -0.0400    0.0290   -0.0530 cc        1 LZM     -0.175300
      4 C4          1.4020    0.0290   -0.0260 cc        1 LZM      0.423500
      5 N5          1.8810   -0.0060    1.2440 nd        1 LZM     -0.554100
      6 N6          0.8100   -0.0300    2.0560 na        1 LZM      0.042200
      7 C7          0.7530   -0.0700    3.4400 cc        1 LZM      0.006700
      8 C8         -0.4820   -0.0880    4.0530 cd        1 LZM     -0.303300
      9 C9         -1.6720   -0.0660    3.2470 cd        1 LZM      0.441200
     10 N10        -1.6710   -0.0290    1.9250 nd        1 LZM     -0.620000
     11 C11        -0.4390   -0.0100    1.3120 cd        1 LZM      0.398500
     12 H4          2.0750    0.0540   -0.8880 h4        1 LZM      0.067800
     13 H7          1.7130   -0.0850    3.9870 h4        1 LZM      0.186000
     14 H8         -0.5600   -0.1200    5.1470 ha        1 LZM      0.168000
     15 H9         -2.6640   -0.0810    3.7370 h4        1 LZM      0.041100
@<TRIPOS>BOND
     1    1    2 3   
     2    2    3 1   
     3    3    4 1   
     4    3   11 2   
     5    4    5 2   
     6    4   12 1   
     7    5    6 1   
     8    6    7 1   
     9    6   11 1   
    10    7    8 2   
    11    7   13 1   
    12    8    9 1   
    13    8   14 1   
    14    9   10 2   
    15    9   15 1   
    16   10   11 1   
@<TRIPOS>SUBSTRUCTURE
     1 LZM         1 TEMP              0 ****  ****    0 ROOT
