@<TRIPOS>MOLECULE
LZM
   15    16     1     0     0
SMALL
bcc


@<TRIPOS>ATOM
      1 N1         24.2490    4.3470   62.8110 n1        1 LZM     -0.366800
      2 C2         25.2090    4.3670   63.4690 cg        1 LZM      0.242500
      3 C3         26.3590    4.3870   64.2600 cc        1 LZM     -0.175300
      4 C4         26.9740    3.2720   64.9370 cc        1 LZM      0.423500
      5 N5         28.0850    3.6480   65.6200 nd        1 LZM     -0.554100
      6 N6         28.2270    4.9710   65.4190 na        1 LZM      0.042200
      7 C7         29.1990    5.8350   65.8950 cc        1 LZM      0.006700
      8 C8         29.1310    7.1670   65.5470 cd        1 LZM     -0.303300
      9 C9         28.0600    7.6230   64.7040 cd        1 LZM      0.441200
     10 N10        27.1090    6.8390   64.2240 nd        1 LZM     -0.620000
     11 C11        27.1770    5.5090   64.5710 cd        1 LZM      0.398500
     12 H4         26.6310    2.2330   64.9350 h4        1 LZM      0.067800
     13 H7         29.9890    5.4060   66.5380 h4        1 LZM      0.186000
     14 H8         29.8860    7.8770   65.9080 ha        1 LZM      0.168000
     15 H9         28.0030    8.6920   64.4230 h4        1 LZM      0.041100
@<TRIPOS>BOND
     1    1    2 3   
     2    2    3 1   
     3    3    4 1   
     4    3   11 2   
     5    4    5 2   
     6    4   12 1   
     7    5    6 1   
     8    6    7 1   
     9    6   11 1   
    10    7    8 2   
    11    7   13 1   
    12    8    9 1   
    13    8   14 1   
    14    9   10 2   
    15    9   15 1   
    16   10   11 1   
@<TRIPOS>SUBSTRUCTURE
     1 LZM         1 TEMP              0 ****  ****    0 ROOT
