@<TRIPOS>MOLECULE
LZP
   82    86     1     0     0
SMALL
bcc


@<TRIPOS>ATOM
      1 C1          2.5580    0.8850    2.9670 ca        1 LZP     -0.130000
      2 C2          3.4510    1.4790    3.8600 ca        1 LZP     -0.123000
      3 C3          2.9670    2.2060    4.9470 ca        1 LZP     -0.130000
      4 C4          1.5930    2.3360    5.1470 ca        1 LZP     -0.111000
      5 C5          0.6980    1.7410    4.2540 ca        1 LZP     -0.097300
      6 C6          1.1850    1.0180    3.1590 ca        1 LZP     -0.111000
      7 C7         -0.7780    1.8310    4.4590 c3        1 LZP      0.175700
      8 C8         -2.3820    3.3320    5.3850 ca        1 LZP      0.118100
      9 C9         -3.4420    2.4700    5.0830 ca        1 LZP     -0.175000
     10 C10        -4.7430    2.8530    5.4130 ca        1 LZP     -0.105000
     11 C11        -4.9930    4.0740    6.0300 ca        1 LZP     -0.128000
     12 C12        -3.9300    4.9380    6.3320 ca        1 LZP     -0.147600
     13 C13        -2.6210    4.5700    6.0140 ca        1 LZP     -0.096000
     14 C14        -4.1490    6.2440    6.9900 c         1 LZP      0.599700
     15 C15        -5.5700    6.7350    7.0390 c3        1 LZP     -0.286400
     16 C16        -5.6950    8.1350    7.5710 c         1 LZP      0.530100
     17 C17        -5.7560    8.2190    9.0920 c         1 LZP      0.573100
     18 C18        -3.6740    9.5700    9.1420 c3        1 LZP      0.062500
     19 C19        -2.3490    9.0670    9.7660 c3        1 LZP      0.062500
     20 C20        -3.5270    8.5350   11.8360 c3        1 LZP      0.062500
     21 C21        -4.8490    9.0400   11.2140 c3        1 LZP      0.062500
     22 N1         -4.8520    9.0100    9.7660 n         1 LZP     -0.435800
     23 N2         -2.3470    9.0970   11.2120 n         1 LZP     -0.435800
     24 O1         -1.0520    3.0780    5.1190 os        1 LZP     -0.321900
     25 O2         -3.2160    6.9020    7.4660 o         1 LZP     -0.540100
     26 O3         -5.8320    9.1220    6.8540 o         1 LZP     -0.480100
     27 O4         -6.6670    7.5980    9.6800 o         1 LZP     -0.604100
     28 C22        -1.4780    9.8720   11.9470 c         1 LZP      0.573100
     29 C23        -0.2830   10.5220   11.2590 c         1 LZP      0.530100
     30 C24        -0.2080   12.0120   11.4400 c3        1 LZP     -0.286400
     31 C25        -1.0320   12.7740   10.4370 c         1 LZP      0.599700
     32 C26        -1.4050   14.9710    9.3770 ca        1 LZP     -0.096000
     33 C27        -0.8860   14.2450   10.4520 ca        1 LZP     -0.147600
     34 C28        -0.2500   14.9150   11.5070 ca        1 LZP     -0.128000
     35 C29        -0.1360   16.3020   11.4820 ca        1 LZP     -0.105000
     36 C30        -0.6440   17.0430   10.4150 ca        1 LZP     -0.175000
     37 C31        -1.2790   16.3730    9.3630 ca        1 LZP      0.118100
     38 C32        -1.6980   18.4120    8.1990 c3        1 LZP      0.175700
     39 C33        -3.4260   18.1980    6.3770 ca        1 LZP     -0.111000
     40 C34        -2.3410   18.8790    6.9360 ca        1 LZP     -0.097300
     41 C35        -1.8600   20.0420    6.3230 ca        1 LZP     -0.111000
     42 C36        -2.4680   20.5220    5.1650 ca        1 LZP     -0.130000
     43 C37        -3.5520   19.8410    4.6090 ca        1 LZP     -0.123000
     44 C38        -4.0270   18.6780    5.2140 ca        1 LZP     -0.130000
     45 O5         -1.6020   10.0250   13.1810 o         1 LZP     -0.604100
     46 O6          0.5840    9.8650   10.6910 o         1 LZP     -0.480100
     47 O7         -1.7820   12.1970    9.6400 o         1 LZP     -0.540100
     48 O8         -1.8270   16.9820    8.2520 os        1 LZP     -0.321900
     49 H1          2.9380    0.3130    2.1070 ha        1 LZP      0.134500
     50 H2          4.5350    1.3750    3.7040 ha        1 LZP      0.133000
     51 H3          3.6690    2.6790    5.6500 ha        1 LZP      0.134500
     52 H4          1.2070    2.9150    6.0000 ha        1 LZP      0.139500
     53 H6          0.4840    0.5540    2.4490 ha        1 LZP      0.139500
     54 H7         -1.3240    1.8060    3.4770 h1        1 LZP      0.048700
     55 H7A        -1.1300    0.9860    5.1110 h1        1 LZP      0.048700
     56 H9         -3.2680    1.5010    4.5940 ha        1 LZP      0.143000
     57 H10        -5.5800    2.1760    5.1800 ha        1 LZP      0.140000
     58 H11        -6.0280    4.3490    6.2820 ha        1 LZP      0.138000
     59 H13        -1.7770    5.2370    6.2530 ha        1 LZP      0.173000
     60 H15        -6.1720    6.0500    7.7000 hc        1 LZP      0.109700
     61 H15A       -6.0020    6.6970    6.0010 hc        1 LZP      0.109700
     62 H18        -3.6420    9.3100    8.0460 h1        1 LZP      0.078200
     63 H18A       -3.7250   10.6930    9.2440 h1        1 LZP      0.078200
     64 H19        -1.5240    9.7140    9.3540 h1        1 LZP      0.078200
     65 H19A       -2.1690    8.0020    9.4380 h1        1 LZP      0.078200
     66 H20        -3.4690    7.4140   11.7260 h1        1 LZP      0.078200
     67 H20A       -3.5380    8.7870   12.9340 h1        1 LZP      0.078200
     68 H21        -5.0260   10.1070   11.5320 h1        1 LZP      0.078200
     69 H21A       -5.6890    8.4040   11.6130 h1        1 LZP      0.078200
     70 H24        -0.5710   12.2610   12.4770 hc        1 LZP      0.109700
     71 H24A        0.8640   12.3390   11.3500 hc        1 LZP      0.109700
     72 H26        -1.9130   14.4560    8.5460 ha        1 LZP      0.173000
     73 H28         0.1570   14.3560   12.3620 ha        1 LZP      0.138000
     74 H29         0.3610   16.8240   12.3140 ha        1 LZP      0.140000
     75 H30        -0.5410   18.1370   10.4160 ha        1 LZP      0.143000
     76 H32        -0.6080   18.6840    8.2220 h1        1 LZP      0.048700
     77 H32A       -2.2200   18.8610    9.0880 h1        1 LZP      0.048700
     78 H35        -1.0020   20.5780    6.7550 ha        1 LZP      0.139500
     79 H36        -2.0900   21.4380    4.6870 ha        1 LZP      0.134500
     80 H37        -4.0280   20.2200    3.6930 ha        1 LZP      0.133000
     81 H38        -4.8780   18.1370    4.7750 ha        1 LZP      0.134500
     82 H33        -3.7940   17.2760    6.8550 ha        1 LZP      0.139500
@<TRIPOS>BOND
     1    1    2 ar  
     2    1    6 ar  
     3    1   49 1   
     4    2    3 ar  
     5    2   50 1   
     6    3    4 ar  
     7    3   51 1   
     8    4    5 ar  
     9    4   52 1   
    10    5    6 ar  
    11    5    7 1   
    12    6   53 1   
    13    7   24 1   
    14    7   54 1   
    15    7   55 1   
    16    8    9 ar  
    17    8   13 ar  
    18    8   24 1   
    19    9   10 ar  
    20    9   56 1   
    21   10   11 ar  
    22   10   57 1   
    23   11   12 ar  
    24   11   58 1   
    25   12   13 ar  
    26   12   14 1   
    27   13   59 1   
    28   14   15 1   
    29   14   25 2   
    30   15   16 1   
    31   15   60 1   
    32   15   61 1   
    33   16   17 1   
    34   16   26 2   
    35   17   22 1   
    36   17   27 2   
    37   18   19 1   
    38   18   22 1   
    39   18   62 1   
    40   18   63 1   
    41   19   23 1   
    42   19   64 1   
    43   19   65 1   
    44   20   21 1   
    45   20   23 1   
    46   20   66 1   
    47   20   67 1   
    48   21   22 1   
    49   21   68 1   
    50   21   69 1   
    51   23   28 1   
    52   28   29 1   
    53   28   45 2   
    54   29   30 1   
    55   29   46 2   
    56   30   31 1   
    57   30   70 1   
    58   30   71 1   
    59   31   33 1   
    60   31   47 2   
    61   32   33 ar  
    62   32   37 ar  
    63   32   72 1   
    64   33   34 ar  
    65   34   35 ar  
    66   34   73 1   
    67   35   36 ar  
    68   35   74 1   
    69   36   37 ar  
    70   36   75 1   
    71   37   48 1   
    72   38   40 1   
    73   38   48 1   
    74   38   76 1   
    75   38   77 1   
    76   39   40 ar  
    77   39   44 ar  
    78   39   82 1   
    79   40   41 ar  
    80   41   42 ar  
    81   41   78 1   
    82   42   43 ar  
    83   42   79 1   
    84   43   44 ar  
    85   43   80 1   
    86   44   81 1   
@<TRIPOS>SUBSTRUCTURE
     1 LZP         1 TEMP              0 ****  ****    0 ROOT
