@<TRIPOS>MOLECULE
LZP
   82    86     1     0     0
SMALL
bcc


@<TRIPOS>ATOM
      1 C1          2.4110    0.9520    2.7880 ca        1 LZP     -0.130000
      2 C2          3.3250    1.5330    3.6680 ca        1 LZP     -0.123000
      3 C3          2.8670    2.2440    4.7770 ca        1 LZP     -0.130000
      4 C4          1.4980    2.3700    5.0120 ca        1 LZP     -0.111000
      5 C5          0.5810    1.7880    4.1330 ca        1 LZP     -0.097300
      6 C6          1.0420    1.0810    3.0150 ca        1 LZP     -0.111000
      7 C7         -0.8890    1.8740    4.3750 c3        1 LZP      0.175700
      8 C8         -2.4710    3.3620    5.3570 ca        1 LZP      0.118100
      9 C9         -3.5370    2.5020    5.0710 ca        1 LZP     -0.175000
     10 C10        -4.8300    2.8800    5.4350 ca        1 LZP     -0.105000
     11 C11        -5.0670    4.0950    6.0700 ca        1 LZP     -0.128000
     12 C12        -3.9980    4.9560    6.3560 ca        1 LZP     -0.147600
     13 C13        -2.6960    4.5930    6.0050 ca        1 LZP     -0.096000
     14 C14        -4.2020    6.2550    7.0320 c         1 LZP      0.599700
     15 C15        -5.6210    6.7520    7.1050 c3        1 LZP     -0.286400
     16 C16        -5.7320    8.1490    7.6450 c         1 LZP      0.530100
     17 C17        -5.7750    8.2270    9.1670 c         1 LZP      0.573100
     18 C18        -3.6850    9.5650    9.1990 c3        1 LZP      0.062500
     19 C19        -2.3560    9.0510    9.8070 c3        1 LZP      0.062500
     20 C20        -3.5150    8.5180   11.8870 c3        1 LZP      0.062500
     21 C21        -4.8410    9.0350   11.2820 c3        1 LZP      0.062500
     22 N1         -4.8600    9.0100    9.8340 n         1 LZP     -0.435800
     23 N2         -2.3380    9.0750   11.2520 n         1 LZP     -0.435800
     24 O1         -1.1480    3.1110    5.0580 os        1 LZP     -0.321900
     25 O2         -3.2600    6.9050    7.5030 o         1 LZP     -0.540100
     26 O3         -5.8720    9.1400    6.9340 o         1 LZP     -0.480100
     27 O4         -6.6830    7.6090    9.7630 o         1 LZP     -0.604100
     28 C22        -1.4560    9.8410   11.9810 c         1 LZP      0.573100
     29 C23        -0.2640   10.4860   11.2820 c         1 LZP      0.530100
     30 C24        -0.1770   11.9740   11.4660 c3        1 LZP     -0.286400
     31 C25        -1.0020   12.7450   10.4710 c         1 LZP      0.599700
     32 C26        -1.3450   14.9440    9.4050 ca        1 LZP     -0.096000
     33 C27        -0.8380   14.2140   10.4820 ca        1 LZP     -0.147600
     34 C28        -0.1960   14.8780   11.5380 ca        1 LZP     -0.128000
     35 C29        -0.0640   16.2630   11.5110 ca        1 LZP     -0.105000
     36 C30        -0.5600   17.0080   10.4400 ca        1 LZP     -0.175000
     37 C31        -1.2000   16.3450    9.3880 ca        1 LZP      0.118100
     38 C32        -1.5830   18.3840    8.2150 c3        1 LZP      0.175700
     39 C33        -3.3060   18.1930    6.3860 ca        1 LZP     -0.111000
     40 C34        -2.2110   18.8570    6.9460 ca        1 LZP     -0.097300
     41 C35        -1.7050   20.0070    6.3290 ca        1 LZP     -0.111000
     42 C36        -2.2990   20.4910    5.1650 ca        1 LZP     -0.130000
     43 C37        -3.3930   19.8280    4.6080 ca        1 LZP     -0.123000
     44 C38        -3.8930   18.6780    5.2180 ca        1 LZP     -0.130000
     45 O5         -1.5660    9.9910   13.2160 o         1 LZP     -0.604100
     46 O6          0.5930    9.8240   10.7020 o         1 LZP     -0.480100
     47 O7         -1.7670   12.1770    9.6820 o         1 LZP     -0.540100
     48 O8         -1.7380   16.9580    8.2750 os        1 LZP     -0.321900
     49 H1          2.7700    0.3940    1.9110 ha        1 LZP      0.134500
     50 H2          4.4040    1.4330    3.4850 ha        1 LZP      0.133000
     51 H3          3.5860    2.7070    5.4700 ha        1 LZP      0.134500
     52 H4          1.1330    2.9360    5.8830 ha        1 LZP      0.139500
     53 H6          0.3240    0.6280    2.3160 ha        1 LZP      0.139500
     54 H7         -1.4580    1.8610    3.4060 h1        1 LZP      0.048700
     55 H7A        -1.2240    1.0190    5.0230 h1        1 LZP      0.048700
     56 H9         -3.3740    1.5390    4.5680 ha        1 LZP      0.143000
     57 H10        -5.6720    2.2050    5.2150 ha        1 LZP      0.140000
     58 H11        -6.0960    4.3670    6.3490 ha        1 LZP      0.138000
     59 H13        -1.8470    5.2580    6.2310 ha        1 LZP      0.173000
     60 H15        -6.0690    6.7190    6.0740 hc        1 LZP      0.109700
     61 H15A       -6.2150    6.0660    7.7730 hc        1 LZP      0.109700
     62 H18        -3.7270   10.6880    9.3070 h1        1 LZP      0.078200
     63 H18A       -3.6670    9.3100    8.1020 h1        1 LZP      0.078200
     64 H19        -2.1880    7.9860    9.4720 h1        1 LZP      0.078200
     65 H19A       -1.5310    9.6940    9.3870 h1        1 LZP      0.078200
     66 H20        -3.4660    7.3980   11.7720 h1        1 LZP      0.078200
     67 H20A       -3.5130    8.7660   12.9860 h1        1 LZP      0.078200
     68 H21        -5.6800    8.4030   11.6880 h1        1 LZP      0.078200
     69 H21A       -5.0060   10.1020   11.6060 h1        1 LZP      0.078200
     70 H24         0.8960   12.2940   11.3700 hc        1 LZP      0.109700
     71 H24A       -0.5310   12.2240   12.5060 hc        1 LZP      0.109700
     72 H26        -1.8570   14.4340    8.5740 ha        1 LZP      0.173000
     73 H28         0.2010   14.3150   12.3950 ha        1 LZP      0.138000
     74 H29         0.4370   16.7810   12.3430 ha        1 LZP      0.140000
     75 H30        -0.4430   18.1010   10.4390 ha        1 LZP      0.143000
     76 H32        -0.4890   18.6380    8.2410 h1        1 LZP      0.048700
     77 H32A       -2.1010   18.8480    9.0980 h1        1 LZP      0.048700
     78 H35        -0.8390   20.5280    6.7610 ha        1 LZP      0.139500
     79 H36        -1.9010   21.3970    4.6840 ha        1 LZP      0.134500
     80 H37        -3.8580   20.2100    3.6870 ha        1 LZP      0.133000
     81 H38        -4.7520   18.1500    4.7780 ha        1 LZP      0.134500
     82 H33        -3.6940   17.2820    6.8680 ha        1 LZP      0.139500
@<TRIPOS>BOND
     1    1    2 ar  
     2    1    6 ar  
     3    1   49 1   
     4    2    3 ar  
     5    2   50 1   
     6    3    4 ar  
     7    3   51 1   
     8    4    5 ar  
     9    4   52 1   
    10    5    6 ar  
    11    5    7 1   
    12    6   53 1   
    13    7   24 1   
    14    7   54 1   
    15    7   55 1   
    16    8    9 ar  
    17    8   13 ar  
    18    8   24 1   
    19    9   10 ar  
    20    9   56 1   
    21   10   11 ar  
    22   10   57 1   
    23   11   12 ar  
    24   11   58 1   
    25   12   13 ar  
    26   12   14 1   
    27   13   59 1   
    28   14   15 1   
    29   14   25 2   
    30   15   16 1   
    31   15   60 1   
    32   15   61 1   
    33   16   17 1   
    34   16   26 2   
    35   17   22 1   
    36   17   27 2   
    37   18   19 1   
    38   18   22 1   
    39   18   62 1   
    40   18   63 1   
    41   19   23 1   
    42   19   64 1   
    43   19   65 1   
    44   20   21 1   
    45   20   23 1   
    46   20   66 1   
    47   20   67 1   
    48   21   22 1   
    49   21   68 1   
    50   21   69 1   
    51   23   28 1   
    52   28   29 1   
    53   28   45 2   
    54   29   30 1   
    55   29   46 2   
    56   30   31 1   
    57   30   70 1   
    58   30   71 1   
    59   31   33 1   
    60   31   47 2   
    61   32   33 ar  
    62   32   37 ar  
    63   32   72 1   
    64   33   34 ar  
    65   34   35 ar  
    66   34   73 1   
    67   35   36 ar  
    68   35   74 1   
    69   36   37 ar  
    70   36   75 1   
    71   37   48 1   
    72   38   40 1   
    73   38   48 1   
    74   38   76 1   
    75   38   77 1   
    76   39   40 ar  
    77   39   44 ar  
    78   39   82 1   
    79   40   41 ar  
    80   41   42 ar  
    81   41   78 1   
    82   42   43 ar  
    83   42   79 1   
    84   43   44 ar  
    85   43   80 1   
    86   44   81 1   
@<TRIPOS>SUBSTRUCTURE
     1 LZP         1 TEMP              0 ****  ****    0 ROOT
