@<TRIPOS>MOLECULE
LZP
   82    86     1     0     0
SMALL
bcc


@<TRIPOS>ATOM
      1 C1          9.8960    4.5090    2.5180 ca        1 LZP     -0.130000
      2 C2          9.1410    4.3080    3.6740 ca        1 LZP     -0.123000
      3 C3          8.1640    3.3130    3.7020 ca        1 LZP     -0.130000
      4 C4          7.9440    2.5160    2.5790 ca        1 LZP     -0.111000
      5 C5          8.7000    2.7150    1.4210 ca        1 LZP     -0.097300
      6 C6          9.6760    3.7190    1.3920 ca        1 LZP     -0.111000
      7 C7          8.5140    1.8570    0.2140 c3        1 LZP      0.175700
      8 C8          6.7850    0.6330   -0.8800 ca        1 LZP      0.118100
      9 C9          7.6580    0.1950   -1.8820 ca        1 LZP     -0.175000
     10 C10         7.1650   -0.6240   -2.9000 ca        1 LZP     -0.105000
     11 C11         5.8260   -0.9990   -2.9290 ca        1 LZP     -0.128000
     12 C12         4.9520   -0.5580   -1.9240 ca        1 LZP     -0.147600
     13 C13         5.4280    0.2570   -0.8950 ca        1 LZP     -0.096000
     14 C14         3.5220   -0.9340   -1.9130 c         1 LZP      0.599700
     15 C15         2.9860   -1.5510   -3.1760 c3        1 LZP     -0.286400
     16 C16         1.4980   -1.7580   -3.1500 c         1 LZP      0.530100
     17 C17         1.0630   -3.0600   -2.4870 c         1 LZP      0.573100
     18 C18        -0.1940   -1.8060   -0.7520 c3        1 LZP      0.062500
     19 C19         0.1940   -1.8080    0.7470 c3        1 LZP      0.062500
     20 C20         0.1950   -4.2490    0.7420 c3        1 LZP      0.062500
     21 C21        -0.1970   -4.2470   -0.7540 c3        1 LZP      0.062500
     22 N1          0.1670   -3.0250   -1.4420 n         1 LZP     -0.435800
     23 N2         -0.1690   -3.0290    1.4330 n         1 LZP     -0.435800
     24 O1          7.1400    1.4400    0.1820 os        1 LZP     -0.321900
     25 O2          2.8020   -0.7460   -0.9250 o         1 LZP     -0.540100
     26 O3          0.6990   -0.9990   -3.6920 o         1 LZP     -0.480100
     27 O4          1.5000   -4.1330   -2.9550 o         1 LZP     -0.604100
     28 C22        -1.0640   -3.0660    2.4790 c         1 LZP      0.573100
     29 C23        -1.4980   -1.7650    3.1450 c         1 LZP      0.530100
     30 C24        -2.9860   -1.5580    3.1720 c3        1 LZP     -0.286400
     31 C25        -3.5230   -0.9380    1.9110 c         1 LZP      0.599700
     32 C26        -5.4280    0.2570    0.8960 ca        1 LZP     -0.096000
     33 C27        -4.9520   -0.5610    1.9230 ca        1 LZP     -0.147600
     34 C28        -5.8260   -1.0040    2.9260 ca        1 LZP     -0.128000
     35 C29        -7.1650   -0.6280    2.8990 ca        1 LZP     -0.105000
     36 C30        -7.6580    0.1930    1.8830 ca        1 LZP     -0.175000
     37 C31        -6.7850    0.6340    0.8820 ca        1 LZP      0.118100
     38 C32        -8.5140    1.8600   -0.2090 c3        1 LZP      0.175700
     39 C33        -7.9430    2.5250   -2.5720 ca        1 LZP     -0.111000
     40 C34        -8.6990    2.7230   -1.4130 ca        1 LZP     -0.097300
     41 C35        -9.6740    3.7270   -1.3820 ca        1 LZP     -0.111000
     42 C36        -9.8950    4.5200   -2.5060 ca        1 LZP     -0.130000
     43 C37        -9.1390    4.3210   -3.6620 ca        1 LZP     -0.123000
     44 C38        -8.1630    3.3260   -3.6930 ca        1 LZP     -0.130000
     45 O5         -1.5020   -4.1400    2.9440 o         1 LZP     -0.604100
     46 O6         -0.6990   -1.0080    3.6890 o         1 LZP     -0.480100
     47 O7         -2.8030   -0.7470    0.9230 o         1 LZP     -0.540100
     48 O8         -7.1400    1.4430   -0.1780 os        1 LZP     -0.321900
     49 H1         10.6660    5.2940    2.4940 ha        1 LZP      0.134500
     50 H2          9.3150    4.9340    4.5610 ha        1 LZP      0.133000
     51 H3          7.5630    3.1560    4.6100 ha        1 LZP      0.134500
     52 H4          7.1680    1.7340    2.5940 ha        1 LZP      0.139500
     53 H6         10.2680    3.8850    0.4800 ha        1 LZP      0.139500
     54 H7          8.7500    2.4250   -0.7250 h1        1 LZP      0.048700
     55 H7A         9.1720    0.9470    0.2820 h1        1 LZP      0.048700
     56 H9          8.7190    0.4800   -1.8810 ha        1 LZP      0.143000
     57 H10         7.8480   -0.9740   -3.6890 ha        1 LZP      0.140000
     58 H11         5.4650   -1.6470   -3.7410 ha        1 LZP      0.138000
     59 H13         4.7530    0.6040   -0.0960 ha        1 LZP      0.173000
     60 H15         3.2480   -0.8850   -4.0430 hc        1 LZP      0.109700
     61 H15A        3.4790   -2.5510   -3.3340 hc        1 LZP      0.109700
     62 H18        -1.3120   -1.6730   -0.8420 h1        1 LZP      0.078200
     63 H18A        0.3120   -0.9170   -1.2230 h1        1 LZP      0.078200
     64 H19         1.3110   -1.6760    0.8370 h1        1 LZP      0.078200
     65 H19A       -0.3130   -0.9200    1.2200 h1        1 LZP      0.078200
     66 H20        -0.3050   -5.1310    1.2330 h1        1 LZP      0.078200
     67 H20A        1.3110   -4.3720    0.8340 h1        1 LZP      0.078200
     68 H21         0.3020   -5.1280   -1.2470 h1        1 LZP      0.078200
     69 H21A       -1.3140   -4.3690   -0.8460 h1        1 LZP      0.078200
     70 H24        -3.4800   -2.5590    3.3280 hc        1 LZP      0.109700
     71 H24A       -3.2480   -0.8940    4.0410 hc        1 LZP      0.109700
     72 H26        -4.7530    0.6060    0.0980 ha        1 LZP      0.173000
     73 H28        -5.4650   -1.6550    3.7370 ha        1 LZP      0.138000
     74 H29        -7.8480   -0.9810    3.6870 ha        1 LZP      0.140000
     75 H30        -8.7190    0.4790    1.8830 ha        1 LZP      0.143000
     76 H32        -8.7490    2.4260    0.7320 h1        1 LZP      0.048700
     77 H32A       -9.1720    0.9520   -0.2790 h1        1 LZP      0.048700
     78 H35       -10.2660    3.8910   -0.4690 ha        1 LZP      0.139500
     79 H36       -10.6630    5.3060   -2.4790 ha        1 LZP      0.134500
     80 H37        -9.3130    4.9500   -4.5480 ha        1 LZP      0.133000
     81 H38        -7.5630    3.1700   -4.6020 ha        1 LZP      0.134500
     82 H33        -7.1690    1.7430   -2.5900 ha        1 LZP      0.139500
@<TRIPOS>BOND
     1    1    2 ar  
     2    1    6 ar  
     3    1   49 1   
     4    2    3 ar  
     5    2   50 1   
     6    3    4 ar  
     7    3   51 1   
     8    4    5 ar  
     9    4   52 1   
    10    5    6 ar  
    11    5    7 1   
    12    6   53 1   
    13    7   24 1   
    14    7   54 1   
    15    7   55 1   
    16    8    9 ar  
    17    8   13 ar  
    18    8   24 1   
    19    9   10 ar  
    20    9   56 1   
    21   10   11 ar  
    22   10   57 1   
    23   11   12 ar  
    24   11   58 1   
    25   12   13 ar  
    26   12   14 1   
    27   13   59 1   
    28   14   15 1   
    29   14   25 2   
    30   15   16 1   
    31   15   60 1   
    32   15   61 1   
    33   16   17 1   
    34   16   26 2   
    35   17   22 1   
    36   17   27 2   
    37   18   19 1   
    38   18   22 1   
    39   18   62 1   
    40   18   63 1   
    41   19   23 1   
    42   19   64 1   
    43   19   65 1   
    44   20   21 1   
    45   20   23 1   
    46   20   66 1   
    47   20   67 1   
    48   21   22 1   
    49   21   68 1   
    50   21   69 1   
    51   23   28 1   
    52   28   29 1   
    53   28   45 2   
    54   29   30 1   
    55   29   46 2   
    56   30   31 1   
    57   30   70 1   
    58   30   71 1   
    59   31   33 1   
    60   31   47 2   
    61   32   33 ar  
    62   32   37 ar  
    63   32   72 1   
    64   33   34 ar  
    65   34   35 ar  
    66   34   73 1   
    67   35   36 ar  
    68   35   74 1   
    69   36   37 ar  
    70   36   75 1   
    71   37   48 1   
    72   38   40 1   
    73   38   48 1   
    74   38   76 1   
    75   38   77 1   
    76   39   40 ar  
    77   39   44 ar  
    78   39   82 1   
    79   40   41 ar  
    80   41   42 ar  
    81   41   78 1   
    82   42   43 ar  
    83   42   79 1   
    84   43   44 ar  
    85   43   80 1   
    86   44   81 1   
@<TRIPOS>SUBSTRUCTURE
     1 LZP         1 TEMP              0 ****  ****    0 ROOT
