@<TRIPOS>MOLECULE
LZP
   82    74     1     0     0
SMALL
bcc


@<TRIPOS>ATOM
      1 C1          0.6380   -7.4070  -12.0760 c1        1 LZP     -0.070667
      2 C2          1.2610   -8.4800  -12.6600 c1        1 LZP     -0.070667
      3 C3          1.9100   -9.4440  -11.8560 c1        1 LZP     -0.070667
      4 C4          1.9160   -9.3070  -10.4880 c1        1 LZP     -0.065500
      5 C5          1.2790   -8.2110   -9.8910 c1        1 LZP     -0.063100
      6 C6          0.6440   -7.2660  -10.6800 c1        1 LZP     -0.070667
      7 C7          1.1020   -8.1710   -8.3690 c3        1 LZP      0.141500
      8 C8          1.9260   -7.1010   -6.3910 c1        1 LZP      0.105600
      9 C9          2.2230   -8.2730   -5.7250 c1        1 LZP     -0.070667
     10 C10         2.2690   -8.2900   -4.3140 c1        1 LZP     -0.070667
     11 C11         2.0160   -7.1330   -3.6000 c1        1 LZP     -0.081000
     12 C12         1.7150   -5.9480   -4.2740 cg        1 LZP     -0.090200
     13 C13         1.6700   -5.9320   -5.6690 c1        1 LZP     -0.044500
     14 C14         1.3260   -4.6760   -3.4760 c         1 LZP      0.533800
     15 C15         1.2720   -4.7210   -1.9210 c3        1 LZP     -0.281900
     16 C16         1.1720   -3.2530   -1.3540 c         1 LZP      0.527600
     17 C17         2.0060   -2.8440   -0.1260 c         1 LZP      0.563100
     18 C18         2.4520   -1.0830    1.7010 c3        1 LZP      0.065000
     19 C19         1.6450   -0.8500    2.9830 c3        1 LZP      0.065000
     20 C20        -0.3360   -0.6360    1.6860 c3        1 LZP      0.065000
     21 C21         0.4730   -0.8690    0.4030 c3        1 LZP      0.065000
     22 N1          1.6430   -1.6130    0.6450 n         1 LZP     -0.452300
     23 N2          0.4730   -0.1060    2.7420 n         1 LZP     -0.452300
     24 O1          1.8320   -7.0940   -7.8410 os        1 LZP     -0.306400
     25 O2          1.1730   -3.6470   -4.0440 o         1 LZP     -0.490600
     26 O3          0.4610   -2.4430   -1.8980 o         1 LZP     -0.472600
     27 O4          3.0340   -3.4440    0.1360 o         1 LZP     -0.588100
     28 C22         0.1120    1.1100    3.5110 c         1 LZP      0.563100
     29 C23        -1.2300    1.7990    3.2650 c         1 LZP      0.527600
     30 C24        -2.0050    2.4460    4.4580 c3        1 LZP     -0.281900
     31 C25        -1.8240    3.9400    4.4250 c         1 LZP      0.533800
     32 C26        -2.2830    6.1840    5.5030 c1        1 LZP     -0.044500
     33 C27        -2.3510    4.8050    5.5870 cg        1 LZP     -0.090200
     34 C28        -2.7660    4.1930    6.7880 c1        1 LZP     -0.081000
     35 C29        -3.1080    4.9770    7.8880 c1        1 LZP     -0.070667
     36 C30        -3.0380    6.3720    7.8000 c1        1 LZP     -0.070667
     37 C31        -2.6280    6.9770    6.6150 c1        1 LZP      0.105600
     38 C32        -2.7130    9.3410    7.0160 c3        1 LZP      0.141500
     39 C33        -2.8570   11.5480    5.8300 c1        1 LZP     -0.070667
     40 C34        -2.1010   10.6400    6.5650 c1        1 LZP     -0.063100
     41 C35        -0.7860   10.9490    6.9140 c1        1 LZP     -0.065500
     42 C36        -0.2290   12.1690    6.5260 c1        1 LZP     -0.070667
     43 C37        -0.9770   13.0670    5.8000 c1        1 LZP     -0.070667
     44 C38        -2.3050   12.7560    5.4470 c1        1 LZP     -0.070667
     45 O5          0.8590    1.5150    4.4140 o         1 LZP     -0.588100
     46 O6         -1.6830    1.8500    2.1560 o         1 LZP     -0.472600
     47 O7         -1.3540    4.4690    3.4450 o         1 LZP     -0.490600
     48 O8         -2.3350    8.3070    6.1270 os        1 LZP     -0.306400
     49 H1          0.1750   -6.7200  -12.6500 ha        1 LZP      0.080667
     50 H2          1.2570   -8.5740  -13.6010 ha        1 LZP      0.080667
     51 H3          2.3600  -10.2200  -12.2790 ha        1 LZP      0.080667
     52 H4          2.3470   -9.9470   -9.9560 ha        1 LZP      0.072500
     53 H6          0.2030   -6.5090  -10.2690 ha        1 LZP      0.080667
     54 H7          1.4310   -9.0120   -7.9790 h1        1 LZP      0.048700
     55 H7A         0.1520   -8.0580   -8.1540 h1        1 LZP      0.048700
     56 H9          2.4030   -9.0950   -6.2330 ha        1 LZP      0.080667
     57 H10         2.4750   -9.0990   -3.8540 ha        1 LZP      0.080667
     58 H11         2.0490   -7.1460   -2.6040 ha        1 LZP      0.078000
     59 H13         1.4610   -5.1060   -6.1390 ha        1 LZP      0.113500
     60 H15         2.0780   -5.1440   -1.5810 hc        1 LZP      0.109450
     61 H15A        0.4790   -5.2400   -1.6340 hc        1 LZP      0.109450
     62 H18         2.8370   -0.2310    1.4100 h1        1 LZP      0.073450
     63 H18A        3.1730   -1.7080    1.8900 h1        1 LZP      0.073450
     64 H19         2.2020   -0.3650    3.6250 h1        1 LZP      0.073450
     65 H19A        1.4020   -1.7050    3.3610 h1        1 LZP      0.073450
     66 H20        -1.0560   -0.0110    1.4950 h1        1 LZP      0.073450
     67 H20A       -0.7220   -1.4890    1.9770 h1        1 LZP      0.073450
     68 H21         0.7220    0.0070    0.0180 h1        1 LZP      0.073450
     69 H21A       -0.0830   -1.3540   -0.2410 h1        1 LZP      0.073450
     70 H24        -2.9570    2.2300    4.3830 hc        1 LZP      0.109450
     71 H24A       -1.6570    2.0960    5.2970 hc        1 LZP      0.109450
     72 H26        -1.9850    6.6240    4.6410 ha        1 LZP      0.113500
     73 H28        -2.8150    3.2190    6.8480 ha        1 LZP      0.078000
     74 H29        -3.4030    4.5420    8.7420 ha        1 LZP      0.080667
     75 H30        -3.2830    6.9330    8.5870 ha        1 LZP      0.080667
     76 H32        -3.7060    9.4260    7.0240 h1        1 LZP      0.048700
     77 H32A       -2.4070    9.1350    7.8900 h1        1 LZP      0.048700
     78 H33        -3.7660   11.3350    5.5890 ha        1 LZP      0.080667
     79 H35        -0.2520   10.3080    7.4330 ha        1 LZP      0.072500
     80 H36         0.7130   12.3910    6.7770 ha        1 LZP      0.080667
     81 H37        -0.5880   13.9170    5.5310 ha        1 LZP      0.080667
     82 H38        -2.8380   13.3990    4.9270 ha        1 LZP      0.080667
@<TRIPOS>BOND
     1    1    6 3   
     2    1   49 1   
     3    2    3 3   
     4    2   50 1   
     5    3   51 1   
     6    4    5 3   
     7    4   52 1   
     8    5    7 1   
     9    6   53 1   
    10    7   24 1   
    11    7   54 1   
    12    7   55 1   
    13    8   13 3   
    14    8   24 1   
    15    9   10 3   
    16    9   56 1   
    17   10   57 1   
    18   11   12 3   
    19   11   58 1   
    20   12   14 1   
    21   13   59 1   
    22   14   15 1   
    23   14   25 2   
    24   15   16 1   
    25   15   60 1   
    26   15   61 1   
    27   16   17 1   
    28   16   26 2   
    29   17   22 1   
    30   17   27 2   
    31   18   19 1   
    32   18   22 1   
    33   18   62 1   
    34   18   63 1   
    35   19   23 1   
    36   19   64 1   
    37   19   65 1   
    38   20   21 1   
    39   20   23 1   
    40   20   66 1   
    41   20   67 1   
    42   21   22 1   
    43   21   68 1   
    44   21   69 1   
    45   23   28 1   
    46   28   29 1   
    47   28   45 2   
    48   29   30 1   
    49   29   46 2   
    50   30   31 1   
    51   30   70 1   
    52   30   71 1   
    53   31   33 1   
    54   31   47 2   
    55   32   37 3   
    56   32   72 1   
    57   33   34 3   
    58   34   73 1   
    59   35   36 3   
    60   35   74 1   
    61   36   75 1   
    62   37   48 1   
    63   38   40 1   
    64   38   48 1   
    65   38   76 1   
    66   38   77 1   
    67   39   44 3   
    68   39   78 1   
    69   40   41 3   
    70   41   79 1   
    71   42   43 3   
    72   42   80 1   
    73   43   81 1   
    74   44   82 1   
@<TRIPOS>SUBSTRUCTURE
     1 LZP         1 TEMP              0 ****  ****    0 ROOT
