@<TRIPOS>MOLECULE
LZP
   82    86     1     0     0
SMALL
bcc


@<TRIPOS>ATOM
      1 C1          2.4320    0.8500    2.8970 ca        1 LZP     -0.130000
      2 C2          3.3350    1.4270    3.7910 ca        1 LZP     -0.123000
      3 C3          2.8640    2.1550    4.8830 ca        1 LZP     -0.130000
      4 C4          1.4920    2.3030    5.0880 ca        1 LZP     -0.111000
      5 C5          0.5860    1.7240    4.1940 ca        1 LZP     -0.097300
      6 C6          1.0600    1.0000    3.0940 ca        1 LZP     -0.111000
      7 C7         -0.8880    1.8340    4.4030 c3        1 LZP      0.175700
      8 C8         -2.4690    3.3510    5.3430 ca        1 LZP      0.118100
      9 C9         -3.5410    2.5050    5.0380 ca        1 LZP     -0.175000
     10 C10        -4.8360    2.9020    5.3740 ca        1 LZP     -0.105000
     11 C11        -5.0680    4.1230    5.9990 ca        1 LZP     -0.128000
     12 C12        -3.9930    4.9710    6.3040 ca        1 LZP     -0.147600
     13 C13        -2.6890    4.5870    5.9800 ca        1 LZP     -0.096000
     14 C14        -4.1920    6.2760    6.9700 c         1 LZP      0.599700
     15 C15        -5.6070    6.7840    7.0290 c3        1 LZP     -0.286400
     16 C16        -5.7120    8.1810    7.5720 c         1 LZP      0.530100
     17 C17        -5.7630    8.2550    9.0940 c         1 LZP      0.573100
     18 C18        -3.6660    9.5810    9.1420 c3        1 LZP      0.062500
     19 C19        -2.3430    9.0590    9.7550 c3        1 LZP      0.062500
     20 C20        -3.5160    8.5240   11.8270 c3        1 LZP      0.062500
     21 C21        -4.8350    9.0500   11.2170 c3        1 LZP      0.062500
     22 N1         -4.8470    9.0300    9.7680 n         1 LZP     -0.435800
     23 N2         -2.3320    9.0770   11.2010 n         1 LZP     -0.435800
     24 O1         -1.1440    3.0800    5.0710 os        1 LZP     -0.321900
     25 O2         -3.2490    6.9200    7.4450 o         1 LZP     -0.540100
     26 O3         -5.8410    9.1760    6.8630 o         1 LZP     -0.480100
     27 O4         -6.6780    7.6410    9.6820 o         1 LZP     -0.604100
     28 C22        -1.4500    9.8370   11.9370 c         1 LZP      0.573100
     29 C23        -0.2520   10.4790   11.2480 c         1 LZP      0.530100
     30 C24        -0.1590   11.9660   11.4390 c3        1 LZP     -0.286400
     31 C25        -0.9800   12.7450   10.4480 c         1 LZP      0.599700
     32 C26        -1.3360   14.9540    9.4090 ca        1 LZP     -0.096000
     33 C27        -0.8180   14.2140   10.4730 ca        1 LZP     -0.147600
     34 C28        -0.1680   14.8690   11.5300 ca        1 LZP     -0.128000
     35 C29        -0.0380   16.2530   11.5160 ca        1 LZP     -0.105000
     36 C30        -0.5460   17.0090   10.4580 ca        1 LZP     -0.175000
     37 C31        -1.1950   16.3560    9.4050 ca        1 LZP      0.118100
     38 C32        -1.5990   18.4080    8.2610 c3        1 LZP      0.175700
     39 C33        -3.3420   18.2290    6.4500 ca        1 LZP     -0.111000
     40 C34        -2.2460   18.8940    7.0070 ca        1 LZP     -0.097300
     41 C35        -1.7570   20.0570    6.4010 ca        1 LZP     -0.111000
     42 C36        -2.3680   20.5530    5.2510 ca        1 LZP     -0.130000
     43 C37        -3.4620   19.8880    4.6960 ca        1 LZP     -0.123000
     44 C38        -3.9460   18.7260    5.2950 ca        1 LZP     -0.130000
     45 O5         -1.5660    9.9820   13.1730 o         1 LZP     -0.604100
     46 O6          0.6040    9.8150   10.6690 o         1 LZP     -0.480100
     47 O7         -1.7410   12.1830    9.6500 o         1 LZP     -0.540100
     48 O8         -1.7440   16.9800    8.3040 os        1 LZP     -0.321900
     49 H1          2.8010    0.2780    2.0340 ha        1 LZP      0.134500
     50 H2          4.4170    1.3100    3.6320 ha        1 LZP      0.133000
     51 H3          3.5730    2.6150    5.5870 ha        1 LZP      0.134500
     52 H4          1.1160    2.8820    5.9450 ha        1 LZP      0.139500
     53 H6          0.3510    0.5500    2.3830 ha        1 LZP      0.139500
     54 H7         -1.4360    1.8210    3.4230 h1        1 LZP      0.048700
     55 H7A        -1.2500    0.9890    5.0510 h1        1 LZP      0.048700
     56 H9         -3.3810    1.5370    4.5430 ha        1 LZP      0.143000
     57 H10        -5.6820    2.2390    5.1400 ha        1 LZP      0.140000
     58 H11        -6.0980    4.4100    6.2560 ha        1 LZP      0.138000
     59 H13        -1.8360    5.2420    6.2200 ha        1 LZP      0.173000
     60 H15        -6.2140    6.1020    7.6880 hc        1 LZP      0.109700
     61 H15A       -6.0430    6.7590    5.9930 hc        1 LZP      0.109700
     62 H18        -3.6430    9.3290    8.0440 h1        1 LZP      0.078200
     63 H18A       -3.7030   10.7040    9.2530 h1        1 LZP      0.078200
     64 H19        -1.5130    9.6990    9.3430 h1        1 LZP      0.078200
     65 H19A       -2.1780    7.9940    9.4180 h1        1 LZP      0.078200
     66 H20        -3.4710    7.4040   11.7090 h1        1 LZP      0.078200
     67 H20A       -3.5180    8.7680   12.9270 h1        1 LZP      0.078200
     68 H21        -4.9980   10.1170   11.5440 h1        1 LZP      0.078200
     69 H21A       -5.6800    8.4200   11.6160 h1        1 LZP      0.078200
     70 H24         0.9160   12.2810   11.3450 hc        1 LZP      0.109700
     71 H24A       -0.5120   12.2110   12.4800 hc        1 LZP      0.109700
     72 H26        -1.8550   14.4520    8.5760 ha        1 LZP      0.173000
     73 H28         0.2390   14.2970   12.3770 ha        1 LZP      0.138000
     74 H29         0.4700   16.7640   12.3490 ha        1 LZP      0.140000
     75 H30        -0.4310   18.1020   10.4680 ha        1 LZP      0.143000
     76 H32        -2.1100   18.8560    9.1580 h1        1 LZP      0.048700
     77 H32A       -0.5070   18.6690    8.2790 h1        1 LZP      0.048700
     78 H35        -0.8900   20.5790    6.8310 ha        1 LZP      0.139500
     79 H36        -1.9830   21.4680    4.7780 ha        1 LZP      0.134500
     80 H37        -3.9410   20.2800    3.7870 ha        1 LZP      0.133000
     81 H38        -4.8060   18.1970    4.8570 ha        1 LZP      0.134500
     82 H33        -3.7170   17.3070    6.9220 ha        1 LZP      0.139500
@<TRIPOS>BOND
     1    1    2 ar  
     2    1    6 ar  
     3    1   49 1   
     4    2    3 ar  
     5    2   50 1   
     6    3    4 ar  
     7    3   51 1   
     8    4    5 ar  
     9    4   52 1   
    10    5    6 ar  
    11    5    7 1   
    12    6   53 1   
    13    7   24 1   
    14    7   54 1   
    15    7   55 1   
    16    8    9 ar  
    17    8   13 ar  
    18    8   24 1   
    19    9   10 ar  
    20    9   56 1   
    21   10   11 ar  
    22   10   57 1   
    23   11   12 ar  
    24   11   58 1   
    25   12   13 ar  
    26   12   14 1   
    27   13   59 1   
    28   14   15 1   
    29   14   25 2   
    30   15   16 1   
    31   15   60 1   
    32   15   61 1   
    33   16   17 1   
    34   16   26 2   
    35   17   22 1   
    36   17   27 2   
    37   18   19 1   
    38   18   22 1   
    39   18   62 1   
    40   18   63 1   
    41   19   23 1   
    42   19   64 1   
    43   19   65 1   
    44   20   21 1   
    45   20   23 1   
    46   20   66 1   
    47   20   67 1   
    48   21   22 1   
    49   21   68 1   
    50   21   69 1   
    51   23   28 1   
    52   28   29 1   
    53   28   45 2   
    54   29   30 1   
    55   29   46 2   
    56   30   31 1   
    57   30   70 1   
    58   30   71 1   
    59   31   33 1   
    60   31   47 2   
    61   32   33 ar  
    62   32   37 ar  
    63   32   72 1   
    64   33   34 ar  
    65   34   35 ar  
    66   34   73 1   
    67   35   36 ar  
    68   35   74 1   
    69   36   37 ar  
    70   36   75 1   
    71   37   48 1   
    72   38   40 1   
    73   38   48 1   
    74   38   76 1   
    75   38   77 1   
    76   39   40 ar  
    77   39   44 ar  
    78   39   82 1   
    79   40   41 ar  
    80   41   42 ar  
    81   41   78 1   
    82   42   43 ar  
    83   42   79 1   
    84   43   44 ar  
    85   43   80 1   
    86   44   81 1   
@<TRIPOS>SUBSTRUCTURE
     1 LZP         1 TEMP              0 ****  ****    0 ROOT
