@<TRIPOS>MOLECULE
LZQ
   49    51     1     0     0
SMALL
bcc


@<TRIPOS>ATOM
      1 C01        -2.0380   -1.7190    0.9770 ca        1 LZQ     -0.099000
      2 C07        -3.2970    0.3680    0.3390 c         1 LZQ      0.600700
      3 C09        -4.9870   -1.4480   -0.2090 c         1 LZQ      0.468100
      4 C10        -5.6090   -2.6320    0.5550 c         1 LZQ      0.857600
      5 C13         3.6500   -1.1170    0.2940 ca        1 LZQ     -0.096800
      6 C19         2.2780    2.5450   -0.5140 ca        1 LZQ     -0.096800
      7 N01         1.6130    0.3990    0.5100 nh        1 LZQ     -0.654000
      8 O01        -4.8020   -3.3480    1.2130 o         1 LZQ     -0.806300
      9 C02        -0.8230   -2.3650    1.1980 ca        1 LZQ     -0.126000
     10 C14         5.0040   -1.2490    0.6360 ca        1 LZQ     -0.121500
     11 C20         1.5320    3.4340    0.2670 ca        1 LZQ     -0.121500
     12 O02        -3.2730    1.5270   -0.1050 o         1 LZQ     -0.570100
     13 O10        -4.8200   -1.4050   -1.4300 o         1 LZQ     -0.563100
     14 O11        -6.8550   -2.7730    0.5060 o         1 LZQ     -0.806300
     15 C03         0.3870   -1.7030    1.0250 ca        1 LZQ     -0.167000
     16 C15         5.8190   -2.1530   -0.0390 ca        1 LZQ     -0.134000
     17 C21         1.9570    4.7520    0.4260 ca        1 LZQ     -0.134000
     18 C04         0.4100   -0.3480    0.6270 ca        1 LZQ      0.096600
     19 C16         5.2940   -2.9350   -1.0680 ca        1 LZQ     -0.137500
     20 C22         3.1270    5.1900   -0.1940 ca        1 LZQ     -0.137500
     21 C05        -0.8250    0.3020    0.4140 ca        1 LZQ     -0.115000
     22 C17         3.9500   -2.8080   -1.4150 ca        1 LZQ     -0.134000
     23 C23         3.8730    4.3070   -0.9730 ca        1 LZQ     -0.134000
     24 C06        -2.0370   -0.3770    0.5830 ca        1 LZQ     -0.150600
     25 C18         3.1310   -1.9050   -0.7370 ca        1 LZQ     -0.121500
     26 C24         3.4530    2.9870   -1.1320 ca        1 LZQ     -0.121500
     27 C08        -4.5900   -0.3000    0.6950 c3        1 LZQ     -0.296400
     28 C11         2.8200   -0.1420    1.0850 c3        1 LZQ      0.236100
     29 C12         1.7990    1.1350   -0.7290 c3        1 LZQ      0.236100
     30 H01        -2.9900   -2.2830    1.1040 ha        1 LZQ      0.215000
     31 H02        -0.8250   -3.4210    1.5070 ha        1 LZQ      0.138000
     32 H14         5.4220   -0.6320    1.4460 ha        1 LZQ      0.139750
     33 H20         0.6070    3.0860    0.7540 ha        1 LZQ      0.139750
     34 H03         1.3260   -2.2510    1.1980 ha        1 LZQ      0.127000
     35 H15         6.8780   -2.2510    0.2400 ha        1 LZQ      0.126750
     36 H21         1.3660    5.4470    1.0400 ha        1 LZQ      0.126750
     37 H16         5.9370   -3.6490   -1.6020 ha        1 LZQ      0.123500
     38 H22         3.4600    6.2310   -0.0700 ha        1 LZQ      0.123500
     39 H05        -0.8600    1.3630    0.1120 ha        1 LZQ      0.148000
     40 H17         3.5290   -3.4240   -2.2240 ha        1 LZQ      0.126750
     41 H23         4.7960    4.6490   -1.4640 ha        1 LZQ      0.126750
     42 H18         2.0670   -1.8240   -1.0160 ha        1 LZQ      0.139750
     43 H24         4.0460    2.2930   -1.7450 ha        1 LZQ      0.139750
     44 H08        -4.5180   -0.6900    1.7460 hc        1 LZQ      0.086200
     45 H08A       -5.4220    0.4550    0.6560 hc        1 LZQ      0.086200
     46 H11         2.5540   -0.6330    2.0660 h1        1 LZQ      0.059200
     47 H11A        3.4750    0.7520    1.3160 h1        1 LZQ      0.059200
     48 H12         0.8200    1.1880   -1.2900 h1        1 LZQ      0.059200
     49 H12A        2.5380    0.5950   -1.3950 h1        1 LZQ      0.059200
@<TRIPOS>BOND
     1    1    9 ar  
     2    1   24 ar  
     3    1   30 1   
     4    2   12 2   
     5    2   24 1   
     6    2   27 1   
     7    3    4 1   
     8    3   13 2   
     9    3   27 1   
    10    4    8 1   
    11    4   14 1   
    12    5   10 ar  
    13    5   25 ar  
    14    5   28 1   
    15    6   11 ar  
    16    6   26 ar  
    17    6   29 1   
    18    7   18 1   
    19    7   28 1   
    20    7   29 1   
    21    9   15 ar  
    22    9   31 1   
    23   10   16 ar  
    24   10   32 1   
    25   11   17 ar  
    26   11   33 1   
    27   15   18 ar  
    28   15   34 1   
    29   16   19 ar  
    30   16   35 1   
    31   17   20 ar  
    32   17   36 1   
    33   18   21 ar  
    34   19   22 ar  
    35   19   37 1   
    36   20   23 ar  
    37   20   38 1   
    38   21   24 ar  
    39   21   39 1   
    40   22   25 ar  
    41   22   40 1   
    42   23   26 ar  
    43   23   41 1   
    44   25   42 1   
    45   26   43 1   
    46   27   44 1   
    47   27   45 1   
    48   28   46 1   
    49   28   47 1   
    50   29   48 1   
    51   29   49 1   
@<TRIPOS>SUBSTRUCTURE
     1 LZQ         1 TEMP              0 ****  ****    0 ROOT
