@<TRIPOS>MOLECULE
LZQ
   49    41     1     0     0
SMALL
bcc


@<TRIPOS>ATOM
      1 C01        -1.8190   -0.6480   -2.8460 c1        1 LZQ     -0.129000
      2 C07        -3.6750    0.5130   -1.9890 c1        1 LZQ      0.290000
      3 C09        -5.9190   -0.5990   -1.8640 c1        1 LZQ      0.178000
      4 C10        -6.6620   -1.7810   -1.3720 c2        1 LZQ      0.327000
      5 C13         3.3210    0.8960   -0.4010 c1        1 LZQ     -0.105000
      6 C19         0.4750    0.1490    2.4180 c1        1 LZQ     -0.073000
      7 N01         0.9480    0.4460    0.0710 n3        1 LZQ     -0.236000
      8 O01        -7.5310   -2.3480   -2.1220 o         1 LZQ     -0.540500
      9 C02        -0.6720   -1.3950   -2.3990 c1        1 LZQ     -0.129000
     10 C14         3.7110   -0.4450   -0.6090 c1        1 LZQ     -0.118000
     11 C20         0.6840   -0.9870    3.2190 c1        1 LZQ     -0.129000
     12 O02        -4.2080    1.4340   -1.6480 o         1 LZQ     -0.328000
     13 O10        -6.3810    0.4810   -1.7310 o         1 LZQ     -0.322000
     14 O11        -6.4610   -2.2350   -0.0750 o         1 LZQ     -0.540500
     15 C03         0.1280   -0.8850   -1.4210 c1        1 LZQ     -0.159000
     16 C15         5.0030   -0.7340   -1.0010 c1        1 LZQ     -0.129000
     17 C21         0.2690   -0.9830    4.5710 c1        1 LZQ     -0.129000
     18 C04        -0.1600    0.3370   -0.8650 c2        1 LZQ     -0.009000
     19 C16         5.9290    0.3030   -1.1930 c1        1 LZQ     -0.129000
     20 C22        -0.3560    0.1660    5.1200 c1        1 LZQ     -0.129000
     21 C05        -1.2950    1.0740   -1.3090 c2        1 LZQ     -0.093000
     22 C17         5.5490    1.6160   -0.9900 c1        1 LZQ     -0.129000
     23 C23        -0.5560    1.2560    4.3540 c1        1 LZQ     -0.137000
     24 C06        -2.1000    0.5670   -2.2890 c1        1 LZQ     -0.139000
     25 C18         4.2260    1.9120   -0.5890 c1        1 LZQ     -0.129000
     26 C24        -0.1270    1.2570    2.9490 c2        1 LZQ     -0.105000
     27 C08        -4.4820   -0.7560   -2.3480 c2        1 LZQ     -0.275000
     28 C11         1.9360    1.5120   -0.0820 c3        1 LZQ     -0.017000
     29 C12         1.0580   -0.4720    1.1500 c2        1 LZQ     -0.018000
     30 H01        -2.3770   -1.0050   -3.4500 ha        1 LZQ      0.138500
     31 H02        -0.4700   -2.2560   -2.7900 ha        1 LZQ      0.138500
     32 H14         3.0950   -1.1900   -0.3330 ha        1 LZQ      0.154000
     33 H20         1.1910   -1.7460    2.8690 ha        1 LZQ      0.131000
     34 H03         0.8710   -1.3650   -1.1270 ha        1 LZQ      0.122000
     35 H15         5.2680   -1.6470   -1.1420 ha        1 LZQ      0.138500
     36 H21         0.4200   -1.8050    5.1500 ha        1 LZQ      0.138500
     37 H16         6.8730    0.0890   -1.4790 ha        1 LZQ      0.138500
     38 H22        -0.6230    0.1670    5.9980 ha        1 LZQ      0.138500
     39 H05        -1.5050    1.9840   -0.8940 ha        1 LZQ      0.153000
     40 H17         6.2240    2.3310   -1.0220 ha        1 LZQ      0.138500
     41 H23        -0.9780    2.0310    4.7280 ha        1 LZQ      0.128000
     42 H18         3.9220    2.9520   -0.4280 ha        1 LZQ      0.138500
     43 H24        -0.2700    2.0340    2.4020 ha        1 LZQ      0.154000
     44 H08        -4.4780   -0.8770   -3.2950 ha        1 LZQ      0.124500
     45 H08A       -4.0890   -1.5140   -1.9300 ha        1 LZQ      0.124500
     46 H11         1.6350    2.1760   -0.8980 h1        1 LZQ      0.103000
     47 H11A        1.9900    2.0090    0.7280 h1        1 LZQ      0.103000
     48 H12         1.9350   -0.6700    1.2870 h4        1 LZQ      0.087500
     49 H12A        0.5320   -1.3490    0.9170 h4        1 LZQ      0.087500
@<TRIPOS>BOND
     1    1    9 1   
     2    1   30 1   
     3    2   12 1   
     4    2   27 1   
     5    3    4 1   
     6    3   13 1   
     7    4    8 1   
     8    4   14 1   
     9    5   10 1   
    10    5   28 1   
    11    6   11 1   
    12    6   26 1   
    13    7   18 1   
    14    7   28 1   
    15    7   29 1   
    16    9   31 1   
    17   10   32 1   
    18   11   33 1   
    19   15   18 1   
    20   15   34 1   
    21   16   19 1   
    22   16   35 1   
    23   17   20 1   
    24   17   36 1   
    25   18   21 1   
    26   19   37 1   
    27   20   38 1   
    28   21   24 1   
    29   21   39 1   
    30   22   25 1   
    31   22   40 1   
    32   23   26 1   
    33   23   41 1   
    34   25   42 1   
    35   26   43 1   
    36   27   44 1   
    37   27   45 1   
    38   28   46 1   
    39   28   47 1   
    40   29   48 1   
    41   29   49 1   
@<TRIPOS>SUBSTRUCTURE
     1 LZQ         1 TEMP              0 ****  ****    0 ROOT
