@<TRIPOS>MOLECULE
LZQ
   49    51     1     0     0
SMALL
bcc


@<TRIPOS>ATOM
      1 C01        -0.6960    0.4400   -0.1070 ca        1 LZQ     -0.099000
      2 C07        -2.5720   -0.8940    0.9180 c         1 LZQ      0.600700
      3 C09        -3.8290    0.6380   -0.6710 c         1 LZQ      0.468100
      4 C10        -3.7310    0.9800   -2.1700 c         1 LZQ      0.857600
      5 C13         3.7370    1.0870    3.5150 ca        1 LZQ     -0.096800
      6 C19         1.3040   -1.3530    5.5340 ca        1 LZQ     -0.096800
      7 N01         1.7170   -0.4470    3.2750 nh        1 LZQ     -0.654000
      8 O01        -4.7880    0.9700   -2.8450 o         1 LZQ     -0.806300
      9 C02         0.6050    0.9340   -0.0280 ca        1 LZQ     -0.126000
     10 C14         5.0860    1.1300    3.8960 ca        1 LZQ     -0.121500
     11 C20         0.7980   -2.6160    5.2050 ca        1 LZQ     -0.121500
     12 O02        -3.0320   -1.4920    1.9030 o         1 LZQ     -0.570100
     13 O10        -4.2470    1.4020    0.2020 o         1 LZQ     -0.563100
     14 O11        -2.5680    1.2030   -2.6080 o         1 LZQ     -0.806300
     15 C03         1.4060    0.6830    1.0810 ca        1 LZQ     -0.167000
     16 C15         5.7020    2.3450    4.1820 ca        1 LZQ     -0.134000
     17 C21         0.9140   -3.6720    6.1080 ca        1 LZQ     -0.134000
     18 C04         0.9170   -0.0940    2.1540 ca        1 LZQ      0.096600
     19 C16         4.9770    3.5340    4.0970 ca        1 LZQ     -0.137500
     20 C22         1.5320   -3.4740    7.3430 ca        1 LZQ     -0.137500
     21 C05        -0.3980   -0.6000    2.0630 ca        1 LZQ     -0.116000
     22 C17         3.6350    3.4990    3.7210 ca        1 LZQ     -0.134000
     23 C23         2.0370   -2.2170    7.6730 ca        1 LZQ     -0.134000
     24 C06        -1.1980   -0.3330    0.9460 ca        1 LZQ     -0.150600
     25 C18         3.0170    2.2830    3.4300 ca        1 LZQ     -0.121500
     26 C24         1.9260   -1.1590    6.7710 ca        1 LZQ     -0.121500
     27 C08        -3.3590   -0.7660   -0.3500 c3        1 LZQ     -0.296400
     28 C11         3.1430   -0.2580    3.1920 c3        1 LZQ      0.236100
     29 C12         1.1390   -0.1980    4.5850 c3        1 LZQ      0.236100
     30 H01        -1.3190    0.6760   -0.9980 ha        1 LZQ      0.215000
     31 H02         0.9990    1.5430   -0.8560 ha        1 LZQ      0.138000
     32 H14         5.6610    0.1940    3.9670 ha        1 LZQ      0.139750
     33 H20         0.3090   -2.7690    4.2310 ha        1 LZQ      0.139750
     34 H03         2.4240    1.1020    1.1120 ha        1 LZQ      0.127000
     35 H15         6.7610    2.3670    4.4770 ha        1 LZQ      0.126750
     36 H21         0.5130   -4.6620    5.8450 ha        1 LZQ      0.126750
     37 H16         5.4620    4.4940    4.3240 ha        1 LZQ      0.123500
     38 H22         1.6210   -4.3070    8.0540 ha        1 LZQ      0.123500
     39 H05        -0.8210   -1.2200    2.8710 ha        1 LZQ      0.148000
     40 H17         3.0580    4.4330    3.6480 ha        1 LZQ      0.126750
     41 H23         2.5240   -2.0580    8.6460 ha        1 LZQ      0.126750
     42 H18         1.9580    2.2720    3.1240 ha        1 LZQ      0.139750
     43 H24         2.3290   -0.1700    7.0360 ha        1 LZQ      0.139750
     44 H08        -2.7280   -1.1290   -1.2060 hc        1 LZQ      0.086200
     45 H08A       -4.2740   -1.4150   -0.2870 hc        1 LZQ      0.086200
     46 H11         3.5930   -1.0090    3.9100 h1        1 LZQ      0.059200
     47 H11A        3.4760   -0.5390    2.1500 h1        1 LZQ      0.059200
     48 H12         1.6050    0.7240    5.0470 h1        1 LZQ      0.059200
     49 H12A        0.0320    0.0040    4.4800 h1        1 LZQ      0.059200
@<TRIPOS>BOND
     1    1    9 ar  
     2    1   24 ar  
     3    1   30 1   
     4    2   12 2   
     5    2   24 1   
     6    2   27 1   
     7    3    4 1   
     8    3   13 2   
     9    3   27 1   
    10    4    8 1   
    11    4   14 1   
    12    5   10 ar  
    13    5   25 ar  
    14    5   28 1   
    15    6   11 ar  
    16    6   26 ar  
    17    6   29 1   
    18    7   18 1   
    19    7   28 1   
    20    7   29 1   
    21    9   15 ar  
    22    9   31 1   
    23   10   16 ar  
    24   10   32 1   
    25   11   17 ar  
    26   11   33 1   
    27   15   18 ar  
    28   15   34 1   
    29   16   19 ar  
    30   16   35 1   
    31   17   20 ar  
    32   17   36 1   
    33   18   21 ar  
    34   19   22 ar  
    35   19   37 1   
    36   20   23 ar  
    37   20   38 1   
    38   21   24 ar  
    39   21   39 1   
    40   22   25 ar  
    41   22   40 1   
    42   23   26 ar  
    43   23   41 1   
    44   25   42 1   
    45   26   43 1   
    46   27   44 1   
    47   27   45 1   
    48   28   46 1   
    49   28   47 1   
    50   29   48 1   
    51   29   49 1   
@<TRIPOS>SUBSTRUCTURE
     1 LZQ         1 TEMP              0 ****  ****    0 ROOT
