@<TRIPOS>MOLECULE
LZQ
   50    52     1     0     0
SMALL
bcc


@<TRIPOS>ATOM
      1 C01         0.2340    1.3080   -0.9130 ca        1 LZQ     -0.064000
      2 C07        -1.8330    2.1370    0.2440 c         1 LZQ      0.594700
      3 C09        -2.6220    0.2420    1.7290 c         1 LZQ      0.456100
      4 C10        -2.1550   -1.1730    1.3380 c         1 LZQ      0.863600
      5 C13         0.6110   -1.3970    4.9380 ca        1 LZQ     -0.145300
      6 C19         3.4700    0.5080    3.4470 ca        1 LZQ     -0.145300
      7 N01         1.3650   -0.6770    2.6810 n4        1 LZQ     -0.549800
      8 O01        -1.1460   -1.6330    1.9590 o         1 LZQ     -0.818800
      9 C02         1.3850    0.5170   -0.8820 ca        1 LZQ     -0.115000
     10 C14        -0.0450   -2.6140    4.7110 ca        1 LZQ     -0.107750
     11 C20         3.7170    1.5310    2.5250 ca        1 LZQ     -0.107750
     12 O02        -2.0310    3.3070   -0.0860 o         1 LZQ     -0.511100
     13 O10        -2.7430    0.6050    2.9050 o         1 LZQ     -0.561100
     14 O11        -2.7680   -1.7630    0.4230 o         1 LZQ     -0.818800
     15 C03         1.7910   -0.0990    0.2970 ca        1 LZQ     -0.120000
     16 C15        -0.0320   -3.6000    5.6970 ca        1 LZQ     -0.131250
     17 C21         4.3750    2.6930    2.9270 ca        1 LZQ     -0.131250
     18 C04         1.0910    0.1530    1.4960 ca        1 LZQ      0.015600
     19 C16         0.6170   -3.3700    6.9100 ca        1 LZQ     -0.104000
     20 C22         4.7990    2.8360    4.2480 ca        1 LZQ     -0.104000
     21 C05         0.0150    1.0510    1.4880 ca        1 LZQ     -0.063000
     22 C17         1.2520   -2.1490    7.1430 ca        1 LZQ     -0.131250
     23 C23         4.5660    1.8120    5.1680 ca        1 LZQ     -0.131250
     24 C06        -0.4720    1.5330    0.2680 ca        1 LZQ     -0.137600
     25 C18         1.2500   -1.1620    6.1590 ca        1 LZQ     -0.107750
     26 C24         3.9030    0.6520    4.7700 ca        1 LZQ     -0.107750
     27 C08        -2.9440    1.1870    0.5910 c3        1 LZQ     -0.297400
     28 C11         0.5370   -0.3290    3.8940 c3        1 LZQ      0.162600
     29 C12         2.8220   -0.7690    3.0210 c3        1 LZQ      0.162600
     30 H01        -0.1300    1.7260   -1.8650 ha        1 LZQ      0.160000
     31 H02         1.9510    0.3380   -1.8100 ha        1 LZQ      0.151000
     32 H14        -0.6010   -2.7710    3.7630 ha        1 LZQ      0.154500
     33 H20         3.3900    1.4210    1.4790 ha        1 LZQ      0.154500
     34 H03         2.6380   -0.8020    0.2620 ha        1 LZQ      0.140000
     35 H15        -0.5500   -4.5550    5.5190 ha        1 LZQ      0.143000
     36 H21         4.5600    3.4970    2.1980 ha        1 LZQ      0.143000
     37 H16         0.6190   -4.1470    7.6890 ha        1 LZQ      0.141000
     38 H22         5.3190    3.7530    4.5640 ha        1 LZQ      0.141000
     39 H05        -0.5100    1.3470    2.4130 ha        1 LZQ      0.175000
     40 H17         1.7460   -1.9610    8.1070 ha        1 LZQ      0.143000
     41 H23         4.9050    1.9190    6.2090 ha        1 LZQ      0.143000
     42 H18         1.7310   -0.1910    6.3540 ha        1 LZQ      0.154500
     43 H24         3.7280   -0.1540    5.5000 ha        1 LZQ      0.154500
     44 H08        -3.8660    1.7770    0.8440 hc        1 LZQ      0.108700
     45 H08A       -3.1680    0.5590   -0.3190 hc        1 LZQ      0.108700
     46 H11        -0.5520   -0.2740    3.5490 hx        1 LZQ      0.111700
     47 H11A        0.8910    0.6630    4.2840 hx        1 LZQ      0.111700
     48 H12         2.9000   -1.5310    3.8530 hx        1 LZQ      0.111700
     49 H12A        3.3620   -1.1750    2.1180 hx        1 LZQ      0.111700
     50 H011        1.0240   -1.6250    2.3950 hn        1 LZQ      0.495800
@<TRIPOS>BOND
     1    1    9 ar  
     2    1   24 ar  
     3    1   30 1   
     4    2   12 2   
     5    2   24 1   
     6    2   27 1   
     7    3    4 1   
     8    3   13 2   
     9    3   27 1   
    10    4    8 1   
    11    4   14 1   
    12    5   10 ar  
    13    5   25 ar  
    14    5   28 1   
    15    6   11 ar  
    16    6   26 ar  
    17    6   29 1   
    18    7   18 1   
    19    7   28 1   
    20    7   29 1   
    21    7   50 1   
    22    9   15 ar  
    23    9   31 1   
    24   10   16 ar  
    25   10   32 1   
    26   11   17 ar  
    27   11   33 1   
    28   15   18 ar  
    29   15   34 1   
    30   16   19 ar  
    31   16   35 1   
    32   17   20 ar  
    33   17   36 1   
    34   18   21 ar  
    35   19   22 ar  
    36   19   37 1   
    37   20   23 ar  
    38   20   38 1   
    39   21   24 ar  
    40   21   39 1   
    41   22   25 ar  
    42   22   40 1   
    43   23   26 ar  
    44   23   41 1   
    45   25   42 1   
    46   26   43 1   
    47   27   44 1   
    48   27   45 1   
    49   28   46 1   
    50   28   47 1   
    51   29   48 1   
    52   29   49 1   
@<TRIPOS>SUBSTRUCTURE
     1 LZQ         1 TEMP              0 ****  ****    0 ROOT
