@<TRIPOS>MOLECULE
LZQ
   49    51     1     0     0
SMALL
bcc


@<TRIPOS>ATOM
      1 C01        -0.6850    0.3770   -0.1220 ca        1 LZQ     -0.099000
      2 C07        -2.6190   -0.8160    0.9670 c         1 LZQ      0.600700
      3 C09        -3.8070    0.7020   -0.6880 c         1 LZQ      0.468100
      4 C10        -3.6990    0.9690   -2.2010 c         1 LZQ      0.857600
      5 C13         3.7880    0.9780    3.4600 ca        1 LZQ     -0.096800
      6 C19         1.2490   -1.2460    5.5940 ca        1 LZQ     -0.096800
      7 N01         1.6950   -0.4660    3.2930 nh        1 LZQ     -0.654000
      8 O01        -2.5280    1.1150   -2.6520 o         1 LZQ     -0.806300
      9 C02         0.6380    0.8120   -0.0670 ca        1 LZQ     -0.126000
     10 C14         5.1380    0.9730    3.8360 ca        1 LZQ     -0.121500
     11 C20         0.6820   -2.4970    5.3260 ca        1 LZQ     -0.121500
     12 O02        -3.1030   -1.3460    1.9790 o         1 LZQ     -0.570100
     13 O10        -4.1830    1.5240    0.1500 o         1 LZQ     -0.563100
     14 O11        -4.7580    0.9820   -2.8730 o         1 LZQ     -0.806300
     15 C03         1.4310    0.5740    1.0510 ca        1 LZQ     -0.167000
     16 C15         5.8130    2.1700    4.0650 ca        1 LZQ     -0.134000
     17 C21         0.7520   -3.5140    6.2770 ca        1 LZQ     -0.134000
     18 C04         0.9090   -0.1280    2.1590 ca        1 LZQ      0.096600
     19 C16         5.1460    3.3870    3.9250 ca        1 LZQ     -0.137500
     20 C22         1.3850   -3.2880    7.4990 ca        1 LZQ     -0.137500
     21 C05        -0.4290   -0.5740    2.0930 ca        1 LZQ     -0.115000
     22 C17         3.8030    3.3990    3.5530 ca        1 LZQ     -0.134000
     23 C23         1.9510   -2.0430    7.7690 ca        1 LZQ     -0.134000
     24 C06        -1.2190   -0.3210    0.9660 ca        1 LZQ     -0.150600
     25 C18         3.1260    2.2010    3.3200 ca        1 LZQ     -0.121500
     26 C24         1.8860   -1.0240    6.8190 ca        1 LZQ     -0.121500
     27 C08        -3.4040   -0.7080   -0.3040 c3        1 LZQ     -0.296400
     28 C11         3.1290   -0.3500    3.2000 c3        1 LZQ      0.236100
     29 C12         1.1350   -0.1290    4.5920 c3        1 LZQ      0.236100
     30 H01        -1.2990    0.6020   -1.0220 ha        1 LZQ      0.215000
     31 H02         1.0580    1.3620   -0.9240 ha        1 LZQ      0.138000
     32 H14         5.6680    0.0150    3.9500 ha        1 LZQ      0.139750
     33 H20         0.1810   -2.6720    4.3610 ha        1 LZQ      0.139750
     34 H03         2.4670    0.9440    1.0600 ha        1 LZQ      0.127000
     35 H15         6.8730    2.1540    4.3560 ha        1 LZQ      0.126750
     36 H21         0.3030   -4.4950    6.0620 ha        1 LZQ      0.126750
     37 H16         5.6770    4.3320    4.1060 ha        1 LZQ      0.123500
     38 H22         1.4370   -4.0910    8.2490 ha        1 LZQ      0.123500
     39 H05        -0.8780   -1.1360    2.9300 ha        1 LZQ      0.148000
     40 H17         3.2710    4.3550    3.4380 ha        1 LZQ      0.126750
     41 H23         2.4500   -1.8620    8.7320 ha        1 LZQ      0.126750
     42 H18         2.0670    2.2280    3.0160 ha        1 LZQ      0.139750
     43 H24         2.3360   -0.0440    7.0350 ha        1 LZQ      0.139750
     44 H08        -4.3490   -1.3080   -0.2100 hc        1 LZQ      0.086200
     45 H08A       -2.7950   -1.1390   -1.1450 hc        1 LZQ      0.086200
     46 H11         3.5440   -1.0880    3.9510 h1        1 LZQ      0.059200
     47 H11A        3.4440   -0.6960    2.1710 h1        1 LZQ      0.059200
     48 H12         1.6460    0.7900    5.0090 h1        1 LZQ      0.059200
     49 H12A        0.0390    0.1190    4.4790 h1        1 LZQ      0.059200
@<TRIPOS>BOND
     1    1    9 ar  
     2    1   24 ar  
     3    1   30 1   
     4    2   12 2   
     5    2   24 1   
     6    2   27 1   
     7    3    4 1   
     8    3   13 2   
     9    3   27 1   
    10    4    8 1   
    11    4   14 1   
    12    5   10 ar  
    13    5   25 ar  
    14    5   28 1   
    15    6   11 ar  
    16    6   26 ar  
    17    6   29 1   
    18    7   18 1   
    19    7   28 1   
    20    7   29 1   
    21    9   15 ar  
    22    9   31 1   
    23   10   16 ar  
    24   10   32 1   
    25   11   17 ar  
    26   11   33 1   
    27   15   18 ar  
    28   15   34 1   
    29   16   19 ar  
    30   16   35 1   
    31   17   20 ar  
    32   17   36 1   
    33   18   21 ar  
    34   19   22 ar  
    35   19   37 1   
    36   20   23 ar  
    37   20   38 1   
    38   21   24 ar  
    39   21   39 1   
    40   22   25 ar  
    41   22   40 1   
    42   23   26 ar  
    43   23   41 1   
    44   25   42 1   
    45   26   43 1   
    46   27   44 1   
    47   27   45 1   
    48   28   46 1   
    49   28   47 1   
    50   29   48 1   
    51   29   49 1   
@<TRIPOS>SUBSTRUCTURE
     1 LZQ         1 TEMP              0 ****  ****    0 ROOT
