@<TRIPOS>MOLECULE
LZR
   59    64     1     0     0
SMALL
bcc


@<TRIPOS>ATOM
      1 O29         4.9830   -1.8100    0.5450 o         1 LZR     -0.646500
      2 C26         4.7240   -0.5900    0.5760 c         1 LZR      0.693700
      3 N28         5.5120    0.3070   -0.1860 n         1 LZR     -0.337000
      4 C30         6.5730   -0.2010   -1.0380 c3        1 LZR      0.106000
      5 C31         6.1860   -0.3480   -2.4880 cx        1 LZR     -0.160700
      6 C32         6.8510   -1.4360   -3.2890 cx        1 LZR     -0.120900
      7 C33         5.4050   -1.5620   -2.9180 cx        1 LZR     -0.120900
      8 C27         5.2280    1.6560   -0.1890 cc        1 LZR      0.015600
      9 C23         4.2220    2.2010    0.5660 cd        1 LZR     -0.242000
     10 C19         3.4110    1.3420    1.3700 cd        1 LZR     -0.029200
     11 C22         3.6460   -0.0030    1.3850 cc        1 LZR     -0.182400
     12 C20         2.8190   -0.9470    2.1760 c3        1 LZR     -0.055200
     13 C15         2.3300    1.9620    2.2060 c3        1 LZR      0.208000
     14 N12         1.3650    1.0400    2.7940 nh        1 LZR     -0.687600
     15 C16         1.9640   -0.2200    3.2130 c3        1 LZR      0.185800
     16 C7          0.1260    0.9350    2.0470 cc        1 LZR      0.644800
     17 N3         -0.1880   -0.1560    1.3470 nd        1 LZR     -0.648100
     18 C1         -1.4420   -0.2150    0.7350 ca        1 LZR      0.204400
     19 C2         -2.3670    0.8530    0.8120 ca        1 LZR     -0.195600
     20 C5         -3.6210    0.7770    0.1850 ca        1 LZR     -0.122000
     21 C6         -2.0000    2.0570    1.5700 c         1 LZR      0.715100
     22 O11        -2.7160    3.0650    1.7160 o         1 LZR     -0.631500
     23 N10        -0.7280    2.0530    2.1660 n         1 LZR     -0.489400
     24 C4         -1.8020   -1.3770    0.0030 ca        1 LZR     -0.190000
     25 C8         -3.0410   -1.4480   -0.6160 ca        1 LZR      0.146100
     26 O13        -3.4880   -2.5250   -1.3480 os        1 LZR     -0.299900
     27 C17        -2.5900   -3.6250   -1.4600 c3        1 LZR      0.106700
     28 C9         -3.9670   -0.3600   -0.5270 ca        1 LZR      0.090100
     29 O14        -5.1590   -0.5580   -1.1880 os        1 LZR     -0.302900
     30 C18        -6.1080    0.5160   -1.0800 c3        1 LZR      0.133400
     31 C21        -7.3220    0.0750   -1.8500 cx        1 LZR     -0.070300
     32 C24        -8.2110    1.0990   -2.4710 cu        1 LZR     -0.190200
     33 C25        -8.6780    0.4970   -1.3950 cu        1 LZR     -0.190200
     34 H301        7.4520    0.5030   -0.9660 h1        1 LZR      0.073200
     35 H302        6.8880   -1.2060   -0.6270 h1        1 LZR      0.073200
     36 H27         5.8700    2.2830   -0.8370 h4        1 LZR      0.153000
     37 H31         5.9730    0.6180   -2.9840 hc        1 LZR      0.079700
     38 H32         7.1240   -1.2260   -4.3390 hc        1 LZR      0.078200
     39 H33         5.1100   -2.2960   -2.1440 hc        1 LZR      0.078200
     40 H23         4.0320    3.2810    0.5510 ha        1 LZR      0.150000
     41 H151        2.8290    2.4800    3.0790 h1        1 LZR      0.073700
     42 H152        1.8050    2.7490    1.5940 h1        1 LZR      0.073700
     43 H201        2.1690   -1.5360    1.4730 hc        1 LZR      0.080700
     44 H202        3.4840   -1.6840    2.7030 hc        1 LZR      0.080700
     45 H161        1.1530   -0.9120    3.5730 h1        1 LZR      0.067200
     46 H162        2.6130    0.0490    4.0970 h1        1 LZR      0.067200
     47 H10        -0.4630    2.8320    2.7290 hn        1 LZR      0.340500
     48 H4         -1.0880   -2.2110   -0.0640 ha        1 LZR      0.161000
     49 H5         -4.3040    1.6370    0.2790 ha        1 LZR      0.166000
     50 H171       -1.6480   -3.3160   -1.9750 h1        1 LZR      0.048367
     51 H172       -2.3650   -4.0560   -0.4540 h1        1 LZR      0.048367
     52 H173       -3.1610   -4.3580   -2.0860 h1        1 LZR      0.048367
     53 H181       -6.3510    0.6890    0.0020 h1        1 LZR      0.045700
     54 H182       -5.6630    1.4470   -1.5230 h1        1 LZR      0.045700
     55 H21        -7.1770   -0.9110   -2.3380 hc        1 LZR      0.093700
     56 H24        -8.2960    1.8000   -3.2740 ha        1 LZR      0.191000
     57 H25        -9.4330    0.3350   -0.6540 ha        1 LZR      0.191000
     58 H34         7.5910   -2.0910   -2.7950 hc        1 LZR      0.078200
     59 H35         4.6350   -1.4500   -3.7010 hc        1 LZR      0.078200
@<TRIPOS>BOND
     1    1    2 2   
     2    2    3 1   
     3    2   11 1   
     4    3    4 1   
     5    3    8 1   
     6    4    5 1   
     7    4   34 1   
     8    4   35 1   
     9    5    6 1   
    10    5    7 1   
    11    5   37 1   
    12    6    7 1   
    13    6   38 1   
    14    6   58 1   
    15    7   39 1   
    16    7   59 1   
    17    8    9 2   
    18    8   36 1   
    19    9   10 1   
    20    9   40 1   
    21   10   11 2   
    22   10   13 1   
    23   11   12 1   
    24   12   15 1   
    25   12   43 1   
    26   12   44 1   
    27   13   14 1   
    28   13   41 1   
    29   13   42 1   
    30   14   15 1   
    31   14   16 1   
    32   15   45 1   
    33   15   46 1   
    34   16   17 2   
    35   16   23 1   
    36   17   18 1   
    37   18   19 ar  
    38   18   24 ar  
    39   19   20 ar  
    40   19   21 1   
    41   20   28 ar  
    42   20   49 1   
    43   21   22 2   
    44   21   23 1   
    45   23   47 1   
    46   24   25 ar  
    47   24   48 1   
    48   25   26 1   
    49   25   28 ar  
    50   26   27 1   
    51   27   50 1   
    52   27   51 1   
    53   27   52 1   
    54   28   29 1   
    55   29   30 1   
    56   30   31 1   
    57   30   53 1   
    58   30   54 1   
    59   31   32 1   
    60   31   33 1   
    61   31   55 1   
    62   32   33 2   
    63   32   56 1   
    64   33   57 1   
@<TRIPOS>SUBSTRUCTURE
     1 LZR         1 TEMP              0 ****  ****    0 ROOT
