@<TRIPOS>MOLECULE
LZR
   59    59     1     0     0
SMALL
bcc


@<TRIPOS>ATOM
      1 O29        -2.9610    1.8670    3.9130 o         1 LZR     -0.364000
      2 C26        -1.7670    1.6370    3.9830 c1        1 LZR      0.330000
      3 N28        -1.1450    1.3200    5.3030 n2        1 LZR     -0.229000
      4 C30        -1.9300    1.4210    6.5080 c3        1 LZR     -0.017000
      5 C31        -1.0830    2.0610    7.6180 cx        1 LZR     -0.191000
      6 C32        -1.8530    2.5590    8.8320 cx        1 LZR     -0.206500
      7 C33        -1.0190    1.2900    8.9270 cx        1 LZR     -0.206500
      8 C27         0.2750    0.7970    5.3700 c2        1 LZR      0.022000
      9 C23         1.0910    0.6000    4.0760 c1        1 LZR     -0.250000
     10 C19         0.5250    1.0130    2.7830 c1        1 LZR     -0.037000
     11 C22        -0.9400    1.5530    2.7180 c2        1 LZR     -0.174000
     12 C20        -1.4960    1.6780    1.4130 c3        1 LZR     -0.146000
     13 C15         1.3790    1.3600    1.6540 c3        1 LZR     -0.050000
     14 N12         0.5830    1.4430    0.3120 n3        1 LZR     -0.193000
     15 C16        -0.3590    2.0850    0.3150 c3        1 LZR     -0.068000
     16 C7          0.7610    0.4320   -0.6930 c2        1 LZR      0.200000
     17 N3          1.3990    0.7660   -1.9510 n1        1 LZR     -0.194000
     18 C1          1.5250   -0.2430   -3.0000 c1        1 LZR      0.079000
     19 C2          1.0350   -1.5150   -2.7940 c2        1 LZR     -0.197000
     20 C5          1.0530   -2.4570   -3.8450 c1        1 LZR     -0.044000
     21 C6          0.3700   -1.8640   -1.4840 c2        1 LZR      0.354000
     22 O11        -0.0060   -3.0040   -1.2770 o         1 LZR     -0.351000
     23 N10         0.2510   -0.8900   -0.4760 n         1 LZR     -0.354000
     24 C4          2.0440    0.1180   -4.2640 c1        1 LZR     -0.202000
     25 C8          2.0610   -0.8120   -5.3010 c1        1 LZR      0.098000
     26 O13         2.6600   -0.7670   -6.5930 os        1 LZR     -0.201000
     27 C17         4.0850   -0.7240   -6.5680 c3        1 LZR     -0.080000
     28 C9          1.5660   -2.1000   -5.0920 c1        1 LZR      0.010000
     29 O14         0.7830   -2.9860   -5.8840 os        1 LZR     -0.206000
     30 C18        -0.3200   -2.3590   -6.5320 c3        1 LZR     -0.013000
     31 C21        -1.7310   -2.8250   -5.7960 cx        1 LZR     -0.149000
     32 C24        -2.5710   -3.7590   -7.0840 cu        1 LZR     -0.186000
     33 C25        -2.8890   -2.9340   -7.1700 cu        1 LZR     -0.186000
     34 H301       -2.7210    1.9770    6.3390 h1        1 LZR      0.118500
     35 H302       -2.2150    0.5220    6.7910 h1        1 LZR      0.118500
     36 H27         0.6790    0.5910    6.2360 h4        1 LZR      0.160000
     37 H31        -0.2790    2.5720    7.3850 hc        1 LZR      0.135000
     38 H32        -1.4790    3.3490    9.2790 hc        1 LZR      0.114250
     39 H33        -1.5250    0.4490    8.9520 hc        1 LZR      0.114250
     40 H23         2.0100    0.2610    4.1230 ha        1 LZR      0.154000
     41 H151        1.9170    2.1770    1.7430 h1        1 LZR      0.122500
     42 H152        2.0880    0.6820    1.6150 h1        1 LZR      0.122500
     43 H201       -2.3310    2.1960    1.4800 hc        1 LZR      0.115000
     44 H202       -1.8150    0.8060    1.0950 hc        1 LZR      0.115000
     45 H161       -0.7670    2.0350   -0.5800 h1        1 LZR      0.115000
     46 H162       -0.0940    3.0180    0.4810 h1        1 LZR      0.115000
     47 H10        -0.1370   -1.1060    0.3270 hn        1 LZR      0.251000
     48 H4          2.4070    1.0190   -4.4060 ha        1 LZR      0.160000
     49 H5          0.7040   -3.3640   -3.6990 ha        1 LZR      0.172000
     50 H171        4.3830    0.2070   -6.4580 h1        1 LZR      0.089000
     51 H172        4.4390   -1.0840   -7.4130 h1        1 LZR      0.089000
     52 H173        4.4160   -1.2630   -5.8200 h1        1 LZR      0.089000
     53 H181       -0.2250   -1.3800   -6.4690 h1        1 LZR      0.103500
     54 H182       -0.3400   -2.6270   -7.4790 h1        1 LZR      0.103500
     55 H21        -1.5930   -2.6740   -4.8410 hc        1 LZR      0.120000
     56 H24        -3.1730   -4.4930   -6.8430 ha        1 LZR      0.189500
     57 H25        -2.7220   -2.4290   -7.9910 ha        1 LZR      0.189500
     58 H34        -2.8260    2.4280    8.8020 hc        1 LZR      0.114250
     59 H35        -0.1750    1.3700    9.4300 hc        1 LZR      0.114250
@<TRIPOS>BOND
     1    1    2 1   
     2    2   11 1   
     3    3    4 1   
     4    3    8 1   
     5    4    5 1   
     6    4   34 1   
     7    4   35 1   
     8    5    6 1   
     9    5    7 1   
    10    5   37 1   
    11    6    7 1   
    12    6   38 1   
    13    6   58 1   
    14    7   39 1   
    15    7   59 1   
    16    8    9 1   
    17    8   36 1   
    18    9   40 1   
    19   10   11 1   
    20   10   13 1   
    21   11   12 1   
    22   12   15 1   
    23   12   43 1   
    24   12   44 1   
    25   13   14 1   
    26   13   41 1   
    27   13   42 1   
    28   14   15 1   
    29   14   16 1   
    30   15   45 1   
    31   15   46 1   
    32   16   17 1   
    33   16   23 1   
    34   18   19 1   
    35   18   24 1   
    36   19   20 1   
    37   19   21 1   
    38   20   49 1   
    39   21   22 1   
    40   21   23 1   
    41   23   47 1   
    42   24   48 1   
    43   25   26 1   
    44   25   28 1   
    45   26   27 1   
    46   27   50 1   
    47   27   51 1   
    48   27   52 1   
    49   28   29 1   
    50   29   30 1   
    51   30   31 1   
    52   30   53 1   
    53   30   54 1   
    54   31   32 1   
    55   31   33 1   
    56   31   55 1   
    57   32   33 1   
    58   32   56 1   
    59   33   57 1   
@<TRIPOS>SUBSTRUCTURE
     1 LZR         1 TEMP              0 ****  ****    0 ROOT
