@<TRIPOS>MOLECULE
LZR
   59    64     1     0     0
SMALL
bcc


@<TRIPOS>ATOM
      1 O29         0.1520    0.3620   -0.6590 o         1 LZR     -0.646500
      2 C26         1.3730    0.1670   -0.4950 c         1 LZR      0.693700
      3 N28         1.8320   -0.3670    0.7340 n         1 LZR     -0.337000
      4 C30         0.8800   -0.7330    1.7680 c3        1 LZR      0.106000
      5 C31         0.5390   -2.2010    1.8020 cx        1 LZR     -0.160700
      6 C32        -0.8370   -2.5960    2.2740 cx        1 LZR     -0.120900
      7 C33        -0.4750   -2.7410    0.8270 cx        1 LZR     -0.120900
      8 C27         3.1740   -0.6180    0.9290 cc        1 LZR      0.015600
      9 C23         4.1240   -0.3260   -0.0150 cd        1 LZR     -0.242000
     10 C19         3.7160    0.2340   -1.2650 cd        1 LZR     -0.029200
     11 C22         2.3950    0.4780   -1.5060 cc        1 LZR     -0.182400
     12 C20         1.9090    1.0300   -2.7930 c3        1 LZR     -0.055200
     13 C15         4.7750    0.5670   -2.2750 c3        1 LZR      0.208000
     14 N12         4.3040    0.8790   -3.6190 nh        1 LZR     -0.687600
     15 C16         3.0490    1.6170   -3.6260 c3        1 LZR      0.185800
     16 C7          4.3880   -0.2370   -4.5430 cc        1 LZR      0.644800
     17 N3          3.3030   -0.8770   -4.9780 nd        1 LZR     -0.648100
     18 C1          3.4630   -1.8780   -5.9390 ca        1 LZR      0.204400
     19 C2          4.7350   -2.2470   -6.4360 ca        1 LZR     -0.195600
     20 C5          4.8770   -3.2590   -7.3990 ca        1 LZR     -0.122000
     21 C6          5.9250   -1.5460   -5.9320 c         1 LZR      0.715100
     22 O11         7.0980   -1.7720   -6.2820 o         1 LZR     -0.631500
     23 N10         5.6980   -0.5470   -4.9710 n         1 LZR     -0.489400
     24 C4          2.3170   -2.5560   -6.4310 ca        1 LZR     -0.190000
     25 C8          2.4600   -3.5570   -7.3800 ca        1 LZR      0.146100
     26 O13         1.4170   -4.2750   -7.9210 os        1 LZR     -0.299900
     27 C17         0.1140   -3.9450   -7.4500 c3        1 LZR      0.106700
     28 C9          3.7530   -3.9170   -7.8750 ca        1 LZR      0.090100
     29 O14         3.7560   -4.9270   -8.8120 os        1 LZR     -0.302900
     30 C18         5.0470   -5.2760   -9.3370 c3        1 LZR      0.133400
     31 C21         4.8040   -6.3670  -10.3420 cx        1 LZR     -0.070300
     32 C24         5.8740   -7.3720  -10.6100 cu        1 LZR     -0.190200
     33 C25         5.6760   -6.4670  -11.5480 cu        1 LZR     -0.190200
     34 H301       -0.0600   -0.1300    1.5950 h1        1 LZR      0.073200
     35 H302        1.3130   -0.4370    2.7670 h1        1 LZR      0.073200
     36 H27         3.4450   -1.0650    1.9030 h4        1 LZR      0.153000
     37 H31         1.3970   -2.8440    2.0800 hc        1 LZR      0.079700
     38 H32        -1.5480   -1.8050    2.5720 hc        1 LZR      0.078200
     39 H33        -0.3240   -3.7500    0.4070 hc        1 LZR      0.078200
     40 H23         5.1850   -0.5240    0.1780 ha        1 LZR      0.150000
     41 H151        5.3100    1.4970   -1.9140 h1        1 LZR      0.073700
     42 H152        5.5270   -0.2720   -2.3030 h1        1 LZR      0.073700
     43 H201        1.1480    1.8340   -2.5990 hc        1 LZR      0.080700
     44 H202        1.3860    0.2150   -3.3640 hc        1 LZR      0.080700
     45 H161        3.3110    2.6360   -3.2170 h1        1 LZR      0.067200
     46 H162        2.7010    1.7460   -4.6880 h1        1 LZR      0.067200
     47 H10         6.4750   -0.0170   -4.6420 hn        1 LZR      0.340500
     48 H4          1.3230   -2.2770   -6.0490 ha        1 LZR      0.161000
     49 H5          5.8900   -3.5060   -7.7520 ha        1 LZR      0.166000
     50 H171        0.0330   -4.1300   -6.3510 h1        1 LZR      0.048367
     51 H172       -0.5480   -4.6450   -8.0190 h1        1 LZR      0.048367
     52 H173       -0.1350   -2.8830   -7.6890 h1        1 LZR      0.048367
     53 H181        5.5090   -4.3730   -9.8180 h1        1 LZR      0.045700
     54 H182        5.7010   -5.6360   -8.4980 h1        1 LZR      0.045700
     55 H21         3.7350   -6.6580  -10.3990 hc        1 LZR      0.093700
     56 H24         6.3770   -8.2280  -10.2130 ha        1 LZR      0.191000
     57 H25         5.8970   -6.0250  -12.4970 ha        1 LZR      0.191000
     58 H34        -0.9400   -3.5000    2.8990 hc        1 LZR      0.078200
     59 H35        -0.9140   -2.0420    0.0900 hc        1 LZR      0.078200
@<TRIPOS>BOND
     1    1    2 2   
     2    2    3 1   
     3    2   11 1   
     4    3    4 1   
     5    3    8 1   
     6    4    5 1   
     7    4   34 1   
     8    4   35 1   
     9    5    6 1   
    10    5    7 1   
    11    5   37 1   
    12    6    7 1   
    13    6   38 1   
    14    6   58 1   
    15    7   39 1   
    16    7   59 1   
    17    8    9 2   
    18    8   36 1   
    19    9   10 1   
    20    9   40 1   
    21   10   11 2   
    22   10   13 1   
    23   11   12 1   
    24   12   15 1   
    25   12   43 1   
    26   12   44 1   
    27   13   14 1   
    28   13   41 1   
    29   13   42 1   
    30   14   15 1   
    31   14   16 1   
    32   15   45 1   
    33   15   46 1   
    34   16   17 2   
    35   16   23 1   
    36   17   18 1   
    37   18   19 ar  
    38   18   24 ar  
    39   19   20 ar  
    40   19   21 1   
    41   20   28 ar  
    42   20   49 1   
    43   21   22 2   
    44   21   23 1   
    45   23   47 1   
    46   24   25 ar  
    47   24   48 1   
    48   25   26 1   
    49   25   28 ar  
    50   26   27 1   
    51   27   50 1   
    52   27   51 1   
    53   27   52 1   
    54   28   29 1   
    55   29   30 1   
    56   30   31 1   
    57   30   53 1   
    58   30   54 1   
    59   31   32 1   
    60   31   33 1   
    61   31   55 1   
    62   32   33 2   
    63   32   56 1   
    64   33   57 1   
@<TRIPOS>SUBSTRUCTURE
     1 LZR         1 TEMP              0 ****  ****    0 ROOT
