@<TRIPOS>MOLECULE
LZR
   59    64     1     0     0
SMALL
bcc


@<TRIPOS>ATOM
      1 O29         0.1690    0.3650   -0.6580 o         1 LZR     -0.646500
      2 C26         1.3870    0.1550   -0.4900 c         1 LZR      0.693700
      3 N28         1.8340   -0.3920    0.7380 n         1 LZR     -0.337000
      4 C30         0.8740   -0.7540    1.7650 c3        1 LZR      0.106000
      5 C31         0.5160   -2.2190    1.7880 cx        1 LZR     -0.160700
      6 C32        -0.8660   -2.6010    2.2520 cx        1 LZR     -0.120900
      7 C33        -0.4990   -2.7410    0.8060 cx        1 LZR     -0.120900
      8 C27         3.1720   -0.6590    0.9370 cc        1 LZR      0.015600
      9 C23         4.1300   -0.3720   -0.0010 cd        1 LZR     -0.242000
     10 C19         3.7340    0.2010   -1.2490 cd        1 LZR     -0.029200
     11 C22         2.4170    0.4610   -1.4940 cc        1 LZR     -0.182400
     12 C20         1.9430    1.0280   -2.7800 c3        1 LZR     -0.055200
     13 C15         4.8020    0.5290   -2.2520 c3        1 LZR      0.208000
     14 N12         4.3400    0.8560   -3.5960 nh        1 LZR     -0.687600
     15 C16         3.0930    1.6070   -3.6030 c3        1 LZR      0.185800
     16 C7          4.4160   -0.2550   -4.5270 cc        1 LZR      0.644800
     17 N3          3.3260   -0.8800   -4.9720 nd        1 LZR     -0.648100
     18 C1          3.4790   -1.8760   -5.9400 ca        1 LZR      0.204400
     19 C2          4.7490   -2.2560   -6.4330 ca        1 LZR     -0.195600
     20 C5          4.8840   -3.2620   -7.4020 ca        1 LZR     -0.122000
     21 C6          5.9440   -1.5720   -5.9180 c         1 LZR      0.715100
     22 O11         7.1170   -1.8080   -6.2640 o         1 LZR     -0.631500
     23 N10         5.7240   -0.5780   -4.9510 n         1 LZR     -0.489400
     24 C4          2.3280   -2.5370   -6.4420 ca        1 LZR     -0.190000
     25 C8          2.4640   -3.5330   -7.3980 ca        1 LZR      0.146100
     26 O13         1.4160   -4.2350   -7.9490 os        1 LZR     -0.299900
     27 C17         0.1150   -3.8930   -7.4820 c3        1 LZR      0.106700
     28 C9          3.7560   -3.9040   -7.8890 ca        1 LZR      0.090100
     29 O14         3.7520   -4.9070   -8.8340 os        1 LZR     -0.302900
     30 C18         5.0420   -5.2640   -9.3570 c3        1 LZR      0.133400
     31 C21         4.7910   -6.3450  -10.3710 cx        1 LZR     -0.070300
     32 C24         5.8840   -7.3030  -10.7080 cu        1 LZR     -0.190700
     33 C25         5.6070   -6.3920  -11.6200 cu        1 LZR     -0.190700
     34 H301       -0.0590   -0.1400    1.5910 h1        1 LZR      0.073200
     35 H302        1.3040   -0.4690    2.7680 h1        1 LZR      0.073200
     36 H27         3.4330   -1.1160    1.9100 h4        1 LZR      0.153000
     37 H31         1.3650   -2.8730    2.0650 hc        1 LZR      0.079700
     38 H32        -1.5700   -1.8040    2.5520 hc        1 LZR      0.078200
     39 H33        -0.3580   -3.7490    0.3800 hc        1 LZR      0.078200
     40 H23         5.1880   -0.5830    0.1960 ha        1 LZR      0.150000
     41 H151        5.3450    1.4500   -1.8820 h1        1 LZR      0.073700
     42 H152        5.5430   -0.3190   -2.2810 h1        1 LZR      0.073700
     43 H201        1.1900    1.8380   -2.5840 hc        1 LZR      0.080700
     44 H202        1.4140    0.2220   -3.3580 hc        1 LZR      0.080700
     45 H161        3.3650    2.6210   -3.1860 h1        1 LZR      0.067200
     46 H162        2.7520    1.7470   -4.6660 h1        1 LZR      0.067200
     47 H10         6.5050   -0.0590   -4.6140 hn        1 LZR      0.340500
     48 H4          1.3360   -2.2490   -6.0630 ha        1 LZR      0.161000
     49 H5          5.8970   -3.5180   -7.7530 ha        1 LZR      0.166000
     50 H171        0.0260   -4.0850   -6.3850 h1        1 LZR      0.048367
     51 H172       -0.1210   -2.8260   -7.7150 h1        1 LZR      0.048367
     52 H173       -0.5530   -4.5820   -8.0600 h1        1 LZR      0.048367
     53 H181        5.5140   -4.3620   -9.8280 h1        1 LZR      0.045700
     54 H182        5.6890   -5.6380   -8.5200 h1        1 LZR      0.045700
     55 H21         3.7320   -6.6760  -10.3830 hc        1 LZR      0.093700
     56 H24         6.4390   -8.1450  -10.3500 ha        1 LZR      0.191000
     57 H25         5.7630   -5.9270  -12.5700 ha        1 LZR      0.191000
     58 H34        -0.9820   -3.5080    2.8710 hc        1 LZR      0.078200
     59 H35        -0.9280   -2.0330    0.0710 hc        1 LZR      0.078200
@<TRIPOS>BOND
     1    1    2 2   
     2    2    3 1   
     3    2   11 1   
     4    3    4 1   
     5    3    8 1   
     6    4    5 1   
     7    4   34 1   
     8    4   35 1   
     9    5    6 1   
    10    5    7 1   
    11    5   37 1   
    12    6    7 1   
    13    6   38 1   
    14    6   58 1   
    15    7   39 1   
    16    7   59 1   
    17    8    9 2   
    18    8   36 1   
    19    9   10 1   
    20    9   40 1   
    21   10   11 2   
    22   10   13 1   
    23   11   12 1   
    24   12   15 1   
    25   12   43 1   
    26   12   44 1   
    27   13   14 1   
    28   13   41 1   
    29   13   42 1   
    30   14   15 1   
    31   14   16 1   
    32   15   45 1   
    33   15   46 1   
    34   16   17 2   
    35   16   23 1   
    36   17   18 1   
    37   18   19 ar  
    38   18   24 ar  
    39   19   20 ar  
    40   19   21 1   
    41   20   28 ar  
    42   20   49 1   
    43   21   22 2   
    44   21   23 1   
    45   23   47 1   
    46   24   25 ar  
    47   24   48 1   
    48   25   26 1   
    49   25   28 ar  
    50   26   27 1   
    51   27   50 1   
    52   27   51 1   
    53   27   52 1   
    54   28   29 1   
    55   29   30 1   
    56   30   31 1   
    57   30   53 1   
    58   30   54 1   
    59   31   32 1   
    60   31   33 1   
    61   31   55 1   
    62   32   33 2   
    63   32   56 1   
    64   33   57 1   
@<TRIPOS>SUBSTRUCTURE
     1 LZR         1 TEMP              0 ****  ****    0 ROOT
