@<TRIPOS>MOLECULE
LZR
   59    64     1     0     0
SMALL
bcc


@<TRIPOS>ATOM
      1 O29         0.1680    0.3330   -0.6370 o         1 LZR     -0.646500
      2 C26         1.3930    0.1530   -0.4870 c         1 LZR      0.693700
      3 N28         1.8730   -0.3720    0.7380 n         1 LZR     -0.337000
      4 C30         0.9390   -0.7480    1.7840 c3        1 LZR      0.106000
      5 C31         0.6150   -2.2200    1.8250 cx        1 LZR     -0.160700
      6 C32        -0.7490   -2.6290    2.3150 cx        1 LZR     -0.120900
      7 C33        -0.4040   -2.7730    0.8640 cx        1 LZR     -0.120900
      8 C27         3.2210   -0.6060    0.9170 cc        1 LZR      0.015600
      9 C23         4.1560   -0.3050   -0.0390 cd        1 LZR     -0.242000
     10 C19         3.7260    0.2470   -1.2850 cd        1 LZR     -0.029200
     11 C22         2.3980    0.4740   -1.5110 cc        1 LZR     -0.182400
     12 C20         1.8900    1.0180   -2.7940 c3        1 LZR     -0.055200
     13 C15         4.7690    0.5910   -2.3090 c3        1 LZR      0.208000
     14 N12         4.2770    0.8940   -3.6480 nh        1 LZR     -0.687600
     15 C16         3.0130    1.6160   -3.6410 c3        1 LZR      0.185800
     16 C7          4.3640   -0.2230   -4.5700 cc        1 LZR      0.644800
     17 N3          3.2820   -0.8780   -4.9900 nd        1 LZR     -0.648100
     18 C1          3.4420   -1.8790   -5.9510 ca        1 LZR      0.204400
     19 C2          4.7130   -2.2330   -6.4630 ca        1 LZR     -0.195600
     20 C5          4.8560   -3.2450   -7.4250 ca        1 LZR     -0.122000
     21 C6          5.9000   -1.5160   -5.9750 c         1 LZR      0.715100
     22 O11         7.0710   -1.7280   -6.3390 o         1 LZR     -0.631500
     23 N10         5.6720   -0.5180   -5.0130 ns        1 LZR     -0.489400
     24 C4          2.2990   -2.5730   -6.4280 ca        1 LZR     -0.190000
     25 C8          2.4430   -3.5740   -7.3770 ca        1 LZR      0.146100
     26 O13         1.4030   -4.3060   -7.9030 os        1 LZR     -0.299900
     27 C17         0.1020   -3.9910   -7.4160 c3        1 LZR      0.106700
     28 C9          3.7350   -3.9180   -7.8860 ca        1 LZR      0.090100
     29 O14         3.7390   -4.9300   -8.8220 os        1 LZR     -0.302900
     30 C18         5.0280   -5.2620   -9.3630 c3        1 LZR      0.133400
     31 C21         4.7860   -6.3580  -10.3640 cx        1 LZR     -0.070300
     32 C24         5.8810   -7.3210  -10.6780 cu        1 LZR     -0.190200
     33 C25         5.6120   -6.4220  -11.6040 cu        1 LZR     -0.190200
     34 H301        1.3790   -0.4440    2.7770 h1        1 LZR      0.073200
     35 H302       -0.0110   -0.1560    1.6210 h1        1 LZR      0.073200
     36 H27         3.5080   -1.0480    1.8890 h4        1 LZR      0.153000
     37 H31         1.4840   -2.8510    2.0940 hc        1 LZR      0.079700
     38 H32        -1.4670   -1.8470    2.6200 hc        1 LZR      0.078200
     39 H33        -0.2460   -3.7820    0.4440 hc        1 LZR      0.078200
     40 H23         5.2210   -0.4900    0.1420 ha        1 LZR      0.150000
     41 H151        5.2960    1.5280   -1.9560 h1        1 LZR      0.073700
     42 H152        5.5290   -0.2390   -2.3430 h1        1 LZR      0.073700
     43 H201        1.1220    1.8120   -2.5920 hc        1 LZR      0.080700
     44 H202        1.3710    0.1940   -3.3560 hc        1 LZR      0.080700
     45 H161        3.2670    2.6400   -3.2380 h1        1 LZR      0.067200
     46 H162        2.6510    1.7380   -4.6990 h1        1 LZR      0.067200
     47 H10         6.4460    0.0230   -4.6950 hn        1 LZR      0.340500
     48 H4          1.3070   -2.3050   -6.0340 ha        1 LZR      0.161000
     49 H5          5.8680   -3.4800   -7.7910 ha        1 LZR      0.166000
     50 H171       -0.1640   -2.9330   -7.6550 h1        1 LZR      0.048367
     51 H172       -0.5580   -4.7020   -7.9760 h1        1 LZR      0.048367
     52 H173        0.0370   -4.1750   -6.3160 h1        1 LZR      0.048367
     53 H181        5.4710   -4.3540   -9.8510 h1        1 LZR      0.045700
     54 H182        5.6980   -5.6130   -8.5330 h1        1 LZR      0.045700
     55 H21         3.7270   -6.6890  -10.3800 hc        1 LZR      0.093700
     56 H24         6.4330   -8.1580  -10.3050 ha        1 LZR      0.191000
     57 H25         5.7780   -5.9690  -12.5590 ha        1 LZR      0.191000
     58 H34        -0.8340   -3.5340    2.9430 hc        1 LZR      0.078200
     59 H35        -0.8610   -2.0820    0.1310 hc        1 LZR      0.078200
@<TRIPOS>BOND
     1    1    2 2   
     2    2    3 1   
     3    2   11 1   
     4    3    4 1   
     5    3    8 1   
     6    4    5 1   
     7    4   34 1   
     8    4   35 1   
     9    5    6 1   
    10    5    7 1   
    11    5   37 1   
    12    6    7 1   
    13    6   38 1   
    14    6   58 1   
    15    7   39 1   
    16    7   59 1   
    17    8    9 2   
    18    8   36 1   
    19    9   10 1   
    20    9   40 1   
    21   10   11 2   
    22   10   13 1   
    23   11   12 1   
    24   12   15 1   
    25   12   43 1   
    26   12   44 1   
    27   13   14 1   
    28   13   41 1   
    29   13   42 1   
    30   14   15 1   
    31   14   16 1   
    32   15   45 1   
    33   15   46 1   
    34   16   17 2   
    35   16   23 1   
    36   17   18 1   
    37   18   19 ar  
    38   18   24 ar  
    39   19   20 ar  
    40   19   21 1   
    41   20   28 ar  
    42   20   49 1   
    43   21   22 2   
    44   21   23 1   
    45   23   47 1   
    46   24   25 ar  
    47   24   48 1   
    48   25   26 1   
    49   25   28 ar  
    50   26   27 1   
    51   27   50 1   
    52   27   51 1   
    53   27   52 1   
    54   28   29 1   
    55   29   30 1   
    56   30   31 1   
    57   30   53 1   
    58   30   54 1   
    59   31   32 1   
    60   31   33 1   
    61   31   55 1   
    62   32   33 2   
    63   32   56 1   
    64   33   57 1   
@<TRIPOS>SUBSTRUCTURE
     1 LZR         1 TEMP              0 ****  ****    0 ROOT
