@<TRIPOS>MOLECULE
LZS
   74    78     1     0     0
SMALL
bcc


@<TRIPOS>ATOM
      1 F85         0.4330    1.8320    1.3470 f         1 LZS     -0.200633
      2 C83         1.7530    1.7270    1.6820 c3        1 LZS      0.704900
      3 F81         1.9050    2.4360    2.8390 f         1 LZS     -0.200633
      4 F83         1.9550    0.4150    2.0160 f         1 LZS     -0.200633
      5 C16         2.7300    2.2260    0.5680 c3        1 LZS     -0.447600
      6 S12         2.8040    1.4010   -0.8950 s6        1 LZS      1.408900
      7 O18         1.7100    0.6660   -1.2600 o         1 LZS     -0.537800
      8 O17         4.0830    0.9020   -1.0720 o         1 LZS     -0.537800
      9 N8          2.9330    2.8140   -2.1550 n4        1 LZS     -0.693600
     10 C3          1.7900    3.7390   -2.2270 ca        1 LZS      0.530200
     11 C1          1.8220    4.8530   -3.1040 ca        1 LZS     -0.252600
     12 C2          0.6190    5.6550   -3.0860 ca        1 LZS      0.506600
     13 C6          0.5580    6.8020   -3.9510 ca        1 LZS     -0.276300
     14 C11         1.6140    7.1160   -4.7670 ca        1 LZS      0.179100
     15 O15         1.6670    8.1750   -5.6260 os        1 LZS     -0.282900
     16 C22         0.5070    9.0110   -5.6900 c3        1 LZS      0.100700
     17 C9          2.8200    6.2970   -4.7720 ca        1 LZS      0.183100
     18 O13         3.7780    6.7400   -5.6360 os        1 LZS     -0.277900
     19 C19         5.0560    6.0880   -5.6220 c3        1 LZS      0.147400
     20 C23         5.0150    4.7380   -6.2700 cx        1 LZS     -0.177700
     21 C27         6.3050    4.1430   -6.7670 cx        1 LZS     -0.125400
     22 C26         5.6230    3.5480   -5.5720 cx        1 LZS     -0.125400
     23 C4          2.9050    5.1950   -3.9570 ca        1 LZS     -0.245000
     24 N5         -0.4460    5.3480   -2.3050 nb        1 LZS     -0.690000
     25 C10        -0.3660    4.2500   -1.4790 ca        1 LZS      0.904900
     26 N7          0.7620    3.4200   -1.4240 nb        1 LZS     -0.788000
     27 N14        -1.3990    3.9770   -0.5450 nh        1 LZS     -0.695300
     28 C20        -1.8360    2.5870   -0.4190 c3        1 LZS      0.216000
     29 C24        -3.0920    2.2530   -1.1730 cc        1 LZS     -0.028200
     30 C29        -3.4370    0.8780   -1.3330 cc        1 LZS     -0.258000
     31 C31        -4.5970    0.5530   -1.9930 cd        1 LZS      0.032600
     32 N32        -5.4370    1.5000   -2.5330 n         1 LZS     -0.331000
     33 C34        -6.6580    1.0870   -3.2030 c3        1 LZS      0.076000
     34 C35        -7.8660    0.8640   -2.2810 c3        1 LZS     -0.084700
     35 C37        -7.6680   -0.3320   -1.3780 c3        1 LZS     -0.095600
     36 C36        -9.0980    0.6790   -3.1440 c3        1 LZS     -0.095600
     37 C30        -5.1440    2.8800   -2.3940 c         1 LZS      0.689700
     38 O33        -5.9160    3.7270   -2.8830 o         1 LZS     -0.629500
     39 C28        -3.9100    3.2260   -1.6730 cd        1 LZS     -0.202400
     40 C25        -3.6140    4.6720   -1.5250 c3        1 LZS     -0.052200
     41 C21        -2.5230    4.9090   -0.4810 c3        1 LZS      0.179800
     42 H161        2.4930    3.3290    0.4910 h1        1 LZS      0.189200
     43 H162        3.7510    2.2060    1.0670 h1        1 LZS      0.189200
     44 H8          3.7720    3.3750   -1.9920 hn        1 LZS      0.465300
     45 H4          3.8100    4.5700   -3.9910 ha        1 LZS      0.140000
     46 H6         -0.3590    7.4150   -3.9410 ha        1 LZS      0.186000
     47 H221        0.7960    9.7760   -6.4560 h1        1 LZS      0.065367
     48 H222       -0.3790    8.4220   -6.0280 h1        1 LZS      0.065367
     49 H223        0.3170    9.4890   -4.6990 h1        1 LZS      0.065367
     50 H191        5.6780    6.8030   -6.2360 h1        1 LZS      0.075700
     51 H192        5.4520    6.0430   -4.5740 h1        1 LZS      0.075700
     52 H23         4.0990    4.5850   -6.8770 hc        1 LZS      0.106700
     53 H271        6.3000    3.5890   -7.7230 hc        1 LZS      0.076950
     54 H272        7.2450    4.7060   -6.6240 hc        1 LZS      0.076950
     55 H261        5.1350    2.5620   -5.6730 hc        1 LZS      0.076950
     56 H262        6.0860    3.6840   -4.5780 hc        1 LZS      0.076950
     57 H201       -1.0250    1.8670   -0.7210 h1        1 LZS      0.087700
     58 H202       -2.0290    2.4280    0.6850 h1        1 LZS      0.087700
     59 H211       -2.1560    5.9700   -0.5480 h1        1 LZS      0.078700
     60 H212       -2.9590    4.7610    0.5500 h1        1 LZS      0.078700
     61 H29        -2.7860    0.0930   -0.9290 ha        1 LZS      0.153000
     62 H31        -4.9080   -0.5020   -2.1260 h4        1 LZS      0.163000
     63 H341       -6.9230    1.8950   -3.9470 h1        1 LZS      0.074200
     64 H342       -6.4470    0.1360   -3.7690 h1        1 LZS      0.074200
     65 H35        -8.0110    1.7830   -1.6450 hc        1 LZS      0.069700
     66 H371       -7.4680   -1.2520   -1.9780 hc        1 LZS      0.040367
     67 H372       -8.5850   -0.5050   -0.7650 hc        1 LZS      0.040367
     68 H373       -6.8090   -0.1670   -0.6820 hc        1 LZS      0.040367
     69 H361       -9.9950    0.5200   -2.4980 hc        1 LZS      0.040367
     70 H362       -9.2730    1.5820   -3.7770 hc        1 LZS      0.040367
     71 H363       -8.9820   -0.2080   -3.8130 hc        1 LZS      0.040367
     72 H251       -4.5430    5.2220   -1.2120 hc        1 LZS      0.082700
     73 H252       -3.3060    5.0920   -2.5200 hc        1 LZS      0.082700
     74 H82         3.0340    2.4050   -3.0900 hn        1 LZS      0.465300
@<TRIPOS>BOND
     1    1    2 1   
     2    2    3 1   
     3    2    4 1   
     4    2    5 1   
     5    5    6 1   
     6    5   42 1   
     7    5   43 1   
     8    6    7 2   
     9    6    8 2   
    10    6    9 1   
    11    9   10 1   
    12    9   44 1   
    13    9   74 1   
    14   10   11 ar  
    15   10   26 ar  
    16   11   12 ar  
    17   11   23 ar  
    18   12   13 ar  
    19   12   24 ar  
    20   13   14 ar  
    21   13   46 1   
    22   14   15 1   
    23   14   17 ar  
    24   15   16 1   
    25   16   47 1   
    26   16   48 1   
    27   16   49 1   
    28   17   18 1   
    29   17   23 ar  
    30   18   19 1   
    31   19   20 1   
    32   19   50 1   
    33   19   51 1   
    34   20   21 1   
    35   20   22 1   
    36   20   52 1   
    37   21   22 1   
    38   21   53 1   
    39   21   54 1   
    40   22   55 1   
    41   22   56 1   
    42   23   45 1   
    43   24   25 ar  
    44   25   26 ar  
    45   25   27 1   
    46   27   28 1   
    47   27   41 1   
    48   28   29 1   
    49   28   57 1   
    50   28   58 1   
    51   29   30 1   
    52   29   39 2   
    53   30   31 2   
    54   30   61 1   
    55   31   32 1   
    56   31   62 1   
    57   32   33 1   
    58   32   37 1   
    59   33   34 1   
    60   33   63 1   
    61   33   64 1   
    62   34   35 1   
    63   34   36 1   
    64   34   65 1   
    65   35   66 1   
    66   35   67 1   
    67   35   68 1   
    68   36   69 1   
    69   36   70 1   
    70   36   71 1   
    71   37   38 2   
    72   37   39 1   
    73   39   40 1   
    74   40   41 1   
    75   40   72 1   
    76   40   73 1   
    77   41   59 1   
    78   41   60 1   
@<TRIPOS>SUBSTRUCTURE
     1 LZS         1 TEMP              0 ****  ****    0 ROOT
