@<TRIPOS>MOLECULE
LZS
   73    77     1     0     0
SMALL
bcc


@<TRIPOS>ATOM
      1 F85        64.9960    4.3510   75.5560 f         1 LZS     -0.227967
      2 C83        65.7290    3.2200   75.3120 c3        1 LZS      0.690900
      3 F81        64.7880    2.2510   75.0610 f         1 LZS     -0.227967
      4 F83        66.3290    3.4330   74.0980 f         1 LZS     -0.227967
      5 C16        66.6980    2.8170   76.4430 c3        1 LZS     -0.366600
      6 S12        68.0540    3.8550   76.8050 s6        1 LZS      1.469900
      7 O18        67.8120    5.1340   76.3140 o         1 LZS     -0.620800
      8 O17        69.1930    3.1800   76.3300 o         1 LZS     -0.620800
      9 N8         68.1570    3.7910   78.4410 nh        1 LZS     -0.871800
     10 C3         67.2630    4.3670   79.3530 ca        1 LZS      0.742200
     11 C1         67.5530    4.4070   80.7730 ca        1 LZS     -0.324600
     12 C2         66.5630    5.0500   81.5820 ca        1 LZS      0.502600
     13 C6         66.7850    5.1430   82.9930 ca        1 LZS     -0.276300
     14 C11        67.9320    4.6220   83.5520 ca        1 LZS      0.149100
     15 O15        68.2290    4.6600   84.8950 os        1 LZS     -0.318900
     16 C22        67.3350    5.4030   85.7210 c3        1 LZS      0.107700
     17 C9         68.9170    3.9760   82.7310 ca        1 LZS      0.077100
     18 O13        70.1310    3.5650   83.2500 os        1 LZS     -0.325900
     19 C19        70.0670    2.4660   84.1690 c3        1 LZS      0.155400
     20 C23        69.8380    1.1630   83.4630 cx        1 LZS     -0.163700
     21 C27        69.9410   -0.1110   84.2580 cx        1 LZS     -0.126400
     22 C26        68.6060    0.3480   83.7550 cx        1 LZS     -0.126400
     23 C4         68.7160    3.8710   81.3700 ca        1 LZS     -0.082000
     24 N5         65.4180    5.5930   81.0550 nb        1 LZS     -0.762000
     25 C10        65.2210    5.4790   79.7120 ca        1 LZS      0.908900
     26 N7         66.1330    4.8710   78.8320 nb        1 LZS     -0.816000
     27 N14        63.9820    5.8960   79.1380 nh        1 LZS     -0.700300
     28 C20        64.0340    6.5200   77.8200 c3        1 LZS      0.211000
     29 C24        64.0140    8.0230   77.8350 cc        1 LZS     -0.019200
     30 C29        64.3760    8.7170   76.6410 cc        1 LZS     -0.236000
     31 C31        64.3440   10.0870   76.6270 cd        1 LZS      0.011600
     32 N32        63.9770   10.8340   77.7290 n         1 LZS     -0.339000
     33 C34        63.9590   12.2810   77.6440 c3        1 LZS      0.081000
     34 C35        62.6550   12.8870   77.1000 c3        1 LZS     -0.085700
     35 C37        62.4520   12.5560   75.6390 c3        1 LZS     -0.093600
     36 C36        62.7010   14.3880   77.3030 c3        1 LZS     -0.093600
     37 C30        63.5940   10.1930   78.9320 c         1 LZS      0.691700
     38 O33        63.2470   10.8870   79.9100 o         1 LZS     -0.649500
     39 C28        63.6370    8.7250   78.9450 cd        1 LZS     -0.203400
     40 C25        63.2680    8.0570   80.2180 c3        1 LZS     -0.052200
     41 C21        63.0210    6.5620   80.0100 c3        1 LZS      0.184800
     42 H161       66.0390    2.6370   77.3360 h1        1 LZS      0.149200
     43 H162       67.1000    1.8060   76.1530 h1        1 LZS      0.149200
     44 H8         68.9380    3.3400   78.8670 hn        1 LZS      0.472800
     45 H4         69.4980    3.3770   80.7740 ha        1 LZS      0.144000
     46 H6         66.0240    5.6440   83.6100 ha        1 LZS      0.164000
     47 H221       67.8130    5.3460   86.7310 h1        1 LZS      0.052033
     48 H222       67.2660    6.4630   85.3740 h1        1 LZS      0.052033
     49 H223       66.3250    4.9250   85.7320 h1        1 LZS      0.052033
     50 H191       71.0920    2.4850   84.6350 h1        1 LZS      0.067200
     51 H192       69.2880    2.6580   84.9520 h1        1 LZS      0.067200
     52 H23        70.2270    1.1720   82.4250 hc        1 LZS      0.088700
     53 H271       70.4200   -0.9900   83.7930 hc        1 LZS      0.072450
     54 H272       70.1570   -0.0480   85.3390 hc        1 LZS      0.072450
     55 H261       67.8660    0.7360   84.4780 hc        1 LZS      0.072450
     56 H262       68.1230   -0.2020   82.9280 hc        1 LZS      0.072450
     57 H201       64.9230    6.1680   77.2220 h1        1 LZS      0.093700
     58 H202       63.1080    6.1660   77.2750 h1        1 LZS      0.093700
     59 H211       62.0210    6.4240   79.5040 h1        1 LZS      0.069700
     60 H212       62.9710    6.0460   81.0070 h1        1 LZS      0.069700
     61 H29        64.6900    8.1540   75.7520 ha        1 LZS      0.160000
     62 H31        64.6180   10.6640   75.7240 h4        1 LZS      0.155000
     63 H341       64.1270   12.6830   78.6870 h1        1 LZS      0.069700
     64 H342       64.8150   12.6130   76.9910 h1        1 LZS      0.069700
     65 H35        61.7900   12.4730   77.6920 hc        1 LZS      0.069700
     66 H371       63.3190   12.9090   75.0300 hc        1 LZS      0.037533
     67 H372       62.3410   11.4540   75.4940 hc        1 LZS      0.037533
     68 H373       61.5270   13.0530   75.2570 hc        1 LZS      0.037533
     69 H361       62.8010   14.6330   78.3880 hc        1 LZS      0.037533
     70 H362       63.5670   14.8330   76.7560 hc        1 LZS      0.037533
     71 H363       61.7620   14.8540   76.9190 hc        1 LZS      0.037533
     72 H251       64.0900    8.2150   80.9680 hc        1 LZS      0.075200
     73 H252       62.3400    8.5270   80.6420 hc        1 LZS      0.075200
@<TRIPOS>BOND
     1    1    2 1   
     2    2    3 1   
     3    2    4 1   
     4    2    5 1   
     5    5    6 1   
     6    5   42 1   
     7    5   43 1   
     8    6    7 2   
     9    6    8 2   
    10    6    9 1   
    11    9   10 1   
    12    9   44 1   
    13   10   11 ar  
    14   10   26 ar  
    15   11   12 ar  
    16   11   23 ar  
    17   12   13 ar  
    18   12   24 ar  
    19   13   14 ar  
    20   13   46 1   
    21   14   15 1   
    22   14   17 ar  
    23   15   16 1   
    24   16   47 1   
    25   16   48 1   
    26   16   49 1   
    27   17   18 1   
    28   17   23 ar  
    29   18   19 1   
    30   19   20 1   
    31   19   50 1   
    32   19   51 1   
    33   20   21 1   
    34   20   22 1   
    35   20   52 1   
    36   21   22 1   
    37   21   53 1   
    38   21   54 1   
    39   22   55 1   
    40   22   56 1   
    41   23   45 1   
    42   24   25 ar  
    43   25   26 ar  
    44   25   27 1   
    45   27   28 1   
    46   27   41 1   
    47   28   29 1   
    48   28   57 1   
    49   28   58 1   
    50   29   30 1   
    51   29   39 2   
    52   30   31 2   
    53   30   61 1   
    54   31   32 1   
    55   31   62 1   
    56   32   33 1   
    57   32   37 1   
    58   33   34 1   
    59   33   63 1   
    60   33   64 1   
    61   34   35 1   
    62   34   36 1   
    63   34   65 1   
    64   35   66 1   
    65   35   67 1   
    66   35   68 1   
    67   36   69 1   
    68   36   70 1   
    69   36   71 1   
    70   37   38 2   
    71   37   39 1   
    72   39   40 1   
    73   40   41 1   
    74   40   72 1   
    75   40   73 1   
    76   41   59 1   
    77   41   60 1   
@<TRIPOS>SUBSTRUCTURE
     1 LZS         1 TEMP              0 ****  ****    0 ROOT
