@<TRIPOS>MOLECULE
LZS
   73    77     1     0     0
SMALL
bcc


@<TRIPOS>ATOM
      1 F85         0.4110    0.6080    0.9210 f         1 LZS     -0.227967
      2 C83         1.7410    0.2870    0.9690 c3        1 LZS      0.690900
      3 F81         2.1420    0.6770    2.2240 f         1 LZS     -0.227967
      4 F83         1.7800   -1.0830    1.0110 f         1 LZS     -0.227967
      5 C16         2.6020    0.9170   -0.1440 c3        1 LZS     -0.366600
      6 S12         2.3410    0.4240   -1.7980 s6        1 LZS      1.469900
      7 O18         1.0770   -0.1430   -1.9260 o         1 LZS     -0.620800
      8 O17         3.4490   -0.3700   -2.1440 o         1 LZS     -0.620800
      9 N8          2.5210    1.8190   -2.6440 nh        1 LZS     -0.871800
     10 C3          1.6340    2.9040   -2.6550 ca        1 LZS      0.742200
     11 C1          1.8000    4.0050   -3.5830 ca        1 LZS     -0.324600
     12 C2          0.8050    5.0300   -3.5010 ca        1 LZS      0.502600
     13 C6          0.8910    6.1440   -4.3950 ca        1 LZS     -0.276300
     14 C11         1.9150    6.2180   -5.3150 ca        1 LZS      0.149100
     15 O15         2.0820    7.2500   -6.2100 os        1 LZS     -0.318900
     16 C22         1.0440    8.2280   -6.2510 c3        1 LZS      0.107700
     17 C9          2.9100    5.1860   -5.3870 ca        1 LZS      0.077100
     18 O13         3.8660    5.1750   -6.3860 os        1 LZS     -0.325900
     19 C19         4.8470    6.2180   -6.3100 c3        1 LZS      0.155400
     20 C23         5.8540    5.9570   -5.2320 cx        1 LZS     -0.163700
     21 C27         7.0630    6.8510   -5.1480 cx        1 LZS     -0.126400
     22 C26         6.0080    6.9230   -4.0860 cx        1 LZS     -0.126400
     23 C4          2.8460    4.1090   -4.5280 ca        1 LZS     -0.082000
     24 N5         -0.2360    4.9780   -2.6070 nb        1 LZS     -0.762000
     25 C10        -0.2890    3.9170   -1.7550 ca        1 LZS      0.908900
     26 N7          0.6360    2.8580   -1.7600 nb        1 LZS     -0.816000
     27 N14        -1.2640    3.8910   -0.7130 nh        1 LZS     -0.700300
     28 C20        -1.8500    2.5960   -0.3810 c3        1 LZS      0.211000
     29 C24        -3.1840    2.3270   -1.0180 cc        1 LZS     -0.019200
     30 C29        -3.6810    0.9880   -1.0110 cc        1 LZS     -0.236000
     31 C31        -4.9060    0.7260   -1.5680 cd        1 LZS      0.011600
     32 N32        -5.6860    1.7070   -2.1460 n         1 LZS     -0.339000
     33 C34        -6.9750    1.3620   -2.7120 c3        1 LZS      0.081000
     34 C35        -8.1460    1.3540   -1.7160 c3        1 LZS     -0.085700
     35 C37        -8.0150    0.2340   -0.7080 c3        1 LZS     -0.093600
     36 C36        -9.4380    1.2200   -2.4940 c3        1 LZS     -0.093600
     37 C30        -5.2450    3.0530   -2.1650 c         1 LZS      0.691700
     38 O33        -5.9760    3.9280   -2.6740 o         1 LZS     -0.649500
     39 C28        -3.9300    3.3290   -1.5730 cd        1 LZS     -0.203400
     40 C25        -3.4560    4.7350   -1.6240 c3        1 LZS     -0.052200
     41 C21        -2.2630    4.9530   -0.6920 c3        1 LZS      0.184800
     42 H161        2.4930    2.0260    0.0000 h1        1 LZS      0.149200
     43 H162        3.6700    0.6800    0.1250 h1        1 LZS      0.149200
     44 H8          3.3040    1.9280   -3.2510 hn        1 LZS      0.472800
     45 H4          3.6220    3.3340   -4.6200 ha        1 LZS      0.144000
     46 H6          0.1200    6.9270   -4.3320 ha        1 LZS      0.164000
     47 H221        1.3650    8.9060   -7.0820 h1        1 LZS      0.052033
     48 H222        0.9920    8.7830   -5.2830 h1        1 LZS      0.052033
     49 H223        0.0620    7.7510   -6.4860 h1        1 LZS      0.052033
     50 H191        4.3470    7.2130   -6.1820 h1        1 LZS      0.067200
     51 H192        5.3330    6.1610   -7.3240 h1        1 LZS      0.067200
     52 H23         5.9820    4.8760   -5.0270 hc        1 LZS      0.088700
     53 H271        7.1590    7.6850   -5.8650 hc        1 LZS      0.072450
     54 H272        8.0420    6.4000   -4.9070 hc        1 LZS      0.072450
     55 H261        5.3510    7.8100   -4.0420 hc        1 LZS      0.072450
     56 H262        6.2270    6.5240   -3.0800 hc        1 LZS      0.072450
     57 H201       -1.1500    1.7440   -0.6150 h1        1 LZS      0.093700
     58 H202       -1.9970    2.6030    0.7420 h1        1 LZS      0.093700
     59 H211       -2.6340    4.9860    0.3740 h1        1 LZS      0.069700
     60 H212       -1.7860    5.9450   -0.9170 h1        1 LZS      0.069700
     61 H29        -3.0780    0.1810   -0.5750 ha        1 LZS      0.160000
     62 H31        -5.3270   -0.2970   -1.5850 h4        1 LZS      0.155000
     63 H341       -7.2040    2.1180   -3.5190 h1        1 LZS      0.069700
     64 H342       -6.8960    0.3430   -3.1880 h1        1 LZS      0.069700
     65 H35        -8.1590    2.3380   -1.1670 hc        1 LZS      0.069700
     66 H371       -8.9040    0.2190   -0.0330 hc        1 LZS      0.037533
     67 H372       -7.9470   -0.7550   -1.2240 hc        1 LZS      0.037533
     68 H373       -7.1010    0.3700   -0.0810 hc        1 LZS      0.037533
     69 H361       -9.5590    2.0750   -3.2020 hc        1 LZS      0.037533
     70 H362       -9.4500    0.2680   -3.0780 hc        1 LZS      0.037533
     71 H363      -10.3070    1.2150   -1.7930 hc        1 LZS      0.037533
     72 H251       -3.1750    4.9900   -2.6820 hc        1 LZS      0.075200
     73 H252       -4.2870    5.4290   -1.3270 hc        1 LZS      0.075200
@<TRIPOS>BOND
     1    1    2 1   
     2    2    3 1   
     3    2    4 1   
     4    2    5 1   
     5    5    6 1   
     6    5   42 1   
     7    5   43 1   
     8    6    7 2   
     9    6    8 2   
    10    6    9 1   
    11    9   10 1   
    12    9   44 1   
    13   10   11 ar  
    14   10   26 ar  
    15   11   12 ar  
    16   11   23 ar  
    17   12   13 ar  
    18   12   24 ar  
    19   13   14 ar  
    20   13   46 1   
    21   14   15 1   
    22   14   17 ar  
    23   15   16 1   
    24   16   47 1   
    25   16   48 1   
    26   16   49 1   
    27   17   18 1   
    28   17   23 ar  
    29   18   19 1   
    30   19   20 1   
    31   19   50 1   
    32   19   51 1   
    33   20   21 1   
    34   20   22 1   
    35   20   52 1   
    36   21   22 1   
    37   21   53 1   
    38   21   54 1   
    39   22   55 1   
    40   22   56 1   
    41   23   45 1   
    42   24   25 ar  
    43   25   26 ar  
    44   25   27 1   
    45   27   28 1   
    46   27   41 1   
    47   28   29 1   
    48   28   57 1   
    49   28   58 1   
    50   29   30 1   
    51   29   39 2   
    52   30   31 2   
    53   30   61 1   
    54   31   32 1   
    55   31   62 1   
    56   32   33 1   
    57   32   37 1   
    58   33   34 1   
    59   33   63 1   
    60   33   64 1   
    61   34   35 1   
    62   34   36 1   
    63   34   65 1   
    64   35   66 1   
    65   35   67 1   
    66   35   68 1   
    67   36   69 1   
    68   36   70 1   
    69   36   71 1   
    70   37   38 2   
    71   37   39 1   
    72   39   40 1   
    73   40   41 1   
    74   40   72 1   
    75   40   73 1   
    76   41   59 1   
    77   41   60 1   
@<TRIPOS>SUBSTRUCTURE
     1 LZS         1 TEMP              0 ****  ****    0 ROOT
