@<TRIPOS>MOLECULE
LZS
   73    77     1     0     0
SMALL
bcc


@<TRIPOS>ATOM
      1 F85         0.4110    0.6350    0.9460 f         1 LZS     -0.227967
      2 C83         1.7410    0.3140    0.9950 c3        1 LZS      0.690900
      3 F81         2.1420    0.7130    2.2460 f         1 LZS     -0.227967
      4 F83         1.7790   -1.0560    1.0470 f         1 LZS     -0.227967
      5 C16         2.6010    0.9360   -0.1230 c3        1 LZS     -0.366600
      6 S12         2.3380    0.4300   -1.7730 s6        1 LZS      1.469900
      7 O18         1.0740   -0.1370   -1.8960 o         1 LZS     -0.620800
      8 O17         3.4460   -0.3670   -2.1140 o         1 LZS     -0.620800
      9 N8          2.5190    1.8180   -2.6300 nu        1 LZS     -0.871800
     10 C3          1.6330    2.9040   -2.6490 ca        1 LZS      0.742200
     11 C1          1.7990    3.9980   -3.5860 ca        1 LZS     -0.324600
     12 C2          0.8040    5.0240   -3.5100 ca        1 LZS      0.502600
     13 C6          0.8910    6.1320   -4.4120 ca        1 LZS     -0.276300
     14 C11         1.9140    6.1980   -5.3340 ca        1 LZS      0.149100
     15 O15         2.0820    7.2230   -6.2360 os        1 LZS     -0.318900
     16 C22         1.0440    8.2010   -6.2840 c3        1 LZS      0.107700
     17 C9          2.9080    5.1640   -5.3990 ca        1 LZS      0.077100
     18 O13         3.8630    5.1440   -6.3980 os        1 LZS     -0.325900
     19 C19         4.8450    6.1880   -6.3320 c3        1 LZS      0.155400
     20 C23         5.8540    5.9340   -5.2530 cx        1 LZS     -0.163700
     21 C27         7.0640    6.8270   -5.1770 cx        1 LZS     -0.126400
     22 C26         6.0100    6.9070   -4.1140 cx        1 LZS     -0.126400
     23 C4          2.8440    4.0940   -4.5320 ca        1 LZS     -0.082000
     24 N5         -0.2350    4.9800   -2.6160 nb        1 LZS     -0.762000
     25 C10        -0.2890    3.9250   -1.7560 ca        1 LZS      0.908900
     26 N7          0.6350    2.8650   -1.7530 nb        1 LZS     -0.816000
     27 N14        -1.2640    3.9070   -0.7140 nh        1 LZS     -0.700300
     28 C20        -1.8500    2.6150   -0.3710 c3        1 LZS      0.211000
     29 C24        -3.1840    2.3410   -1.0080 cc        1 LZS     -0.019200
     30 C29        -3.6810    1.0020   -0.9910 cc        1 LZS     -0.235000
     31 C31        -4.9050    0.7360   -1.5480 cd        1 LZS      0.011600
     32 N32        -5.6840    1.7120   -2.1340 n         1 LZS     -0.339000
     33 C34        -6.9730    1.3630   -2.6990 c3        1 LZS      0.081000
     34 C35        -8.1450    1.3620   -1.7040 c3        1 LZS     -0.085700
     35 C37        -8.0150    0.2490   -0.6890 c3        1 LZS     -0.093600
     36 C36        -9.4360    1.2220   -2.4840 c3        1 LZS     -0.093600
     37 C30        -5.2440    3.0580   -2.1620 c         1 LZS      0.691700
     38 O33        -5.9750    3.9290   -2.6780 o         1 LZS     -0.649500
     39 C28        -3.9300    3.3390   -1.5710 cd        1 LZS     -0.203400
     40 C25        -3.4560    4.7440   -1.6310 c3        1 LZS     -0.052200
     41 C21        -2.2630    4.9690   -0.7000 c3        1 LZS      0.184800
     42 H161        3.6700    0.7000    0.1470 h1        1 LZS      0.149200
     43 H162        2.4920    2.0460    0.0120 h1        1 LZS      0.149200
     44 H8          3.3020    1.9220   -3.2390 hn        1 LZS      0.472800
     45 H4          3.6190    3.3170   -4.6190 ha        1 LZS      0.144000
     46 H6          0.1200    6.9150   -4.3550 ha        1 LZS      0.164000
     47 H221        1.3660    8.8740   -7.1200 h1        1 LZS      0.052033
     48 H222        0.0620    7.7240   -6.5150 h1        1 LZS      0.052033
     49 H223        0.9940    8.7630   -5.3200 h1        1 LZS      0.052033
     50 H191        5.3300    6.1230   -7.3460 h1        1 LZS      0.067200
     51 H192        4.3470    7.1840   -6.2100 h1        1 LZS      0.067200
     52 H23         5.9810    4.8540   -5.0400 hc        1 LZS      0.088700
     53 H271        8.0430    6.3780   -4.9350 hc        1 LZS      0.072450
     54 H272        7.1600    7.6570   -5.9010 hc        1 LZS      0.072450
     55 H261        5.3540    7.7950   -4.0760 hc        1 LZS      0.072450
     56 H262        6.2300    6.5160   -3.1060 hc        1 LZS      0.072450
     57 H201       -1.9990    2.6310    0.7510 h1        1 LZS      0.093700
     58 H202       -1.1500    1.7610   -0.5980 h1        1 LZS      0.093700
     59 H211       -1.7860    5.9600   -0.9330 h1        1 LZS      0.069700
     60 H212       -2.6340    5.0110    0.3660 h1        1 LZS      0.069700
     61 H29        -3.0780    0.1990   -0.5500 ha        1 LZS      0.160000
     62 H31        -5.3260   -0.2870   -1.5590 h4        1 LZS      0.155000
     63 H341       -7.2000    2.1140   -3.5120 h1        1 LZS      0.069700
     64 H342       -6.8930    0.3410   -3.1680 h1        1 LZS      0.069700
     65 H35        -8.1590    2.3500   -1.1630 hc        1 LZS      0.069700
     66 H371       -7.9470   -0.7430   -1.1970 hc        1 LZS      0.037533
     67 H372       -8.9060    0.2390   -0.0150 hc        1 LZS      0.037533
     68 H373       -7.1020    0.3900   -0.0610 hc        1 LZS      0.037533
     69 H361      -10.3060    1.2220   -1.7840 hc        1 LZS      0.037533
     70 H362       -9.5560    2.0710   -3.1990 hc        1 LZS      0.037533
     71 H363       -9.4470    0.2660   -3.0610 hc        1 LZS      0.037533
     72 H251       -4.2870    5.4410   -1.3390 hc        1 LZS      0.075200
     73 H252       -3.1750    4.9920   -2.6900 hc        1 LZS      0.075200
@<TRIPOS>BOND
     1    1    2 1   
     2    2    3 1   
     3    2    4 1   
     4    2    5 1   
     5    5    6 1   
     6    5   42 1   
     7    5   43 1   
     8    6    7 2   
     9    6    8 2   
    10    6    9 1   
    11    9   10 1   
    12    9   44 1   
    13   10   11 ar  
    14   10   26 ar  
    15   11   12 ar  
    16   11   23 ar  
    17   12   13 ar  
    18   12   24 ar  
    19   13   14 ar  
    20   13   46 1   
    21   14   15 1   
    22   14   17 ar  
    23   15   16 1   
    24   16   47 1   
    25   16   48 1   
    26   16   49 1   
    27   17   18 1   
    28   17   23 ar  
    29   18   19 1   
    30   19   20 1   
    31   19   50 1   
    32   19   51 1   
    33   20   21 1   
    34   20   22 1   
    35   20   52 1   
    36   21   22 1   
    37   21   53 1   
    38   21   54 1   
    39   22   55 1   
    40   22   56 1   
    41   23   45 1   
    42   24   25 ar  
    43   25   26 ar  
    44   25   27 1   
    45   27   28 1   
    46   27   41 1   
    47   28   29 1   
    48   28   57 1   
    49   28   58 1   
    50   29   30 1   
    51   29   39 2   
    52   30   31 2   
    53   30   61 1   
    54   31   32 1   
    55   31   62 1   
    56   32   33 1   
    57   32   37 1   
    58   33   34 1   
    59   33   63 1   
    60   33   64 1   
    61   34   35 1   
    62   34   36 1   
    63   34   65 1   
    64   35   66 1   
    65   35   67 1   
    66   35   68 1   
    67   36   69 1   
    68   36   70 1   
    69   36   71 1   
    70   37   38 2   
    71   37   39 1   
    72   39   40 1   
    73   40   41 1   
    74   40   72 1   
    75   40   73 1   
    76   41   59 1   
    77   41   60 1   
@<TRIPOS>SUBSTRUCTURE
     1 LZS         1 TEMP              0 ****  ****    0 ROOT
