@<TRIPOS>MOLECULE
LZT
   82    85     1     0     0
SMALL
bcc


@<TRIPOS>ATOM
      1 C1          6.7250    0.0280   -0.2710 ca        1 LZT     -0.023300
      2 C2          6.7780   -1.1250   -1.0270 ca        1 LZT     -0.158000
      3 C3          7.9780   -1.4040   -1.7250 ca        1 LZT      0.157100
      4 O4          7.9440   -2.5710   -2.4570 os        1 LZT     -0.323900
      5 C5          9.1310   -2.9080   -3.1690 c3        1 LZT      0.111700
      6 C6          9.0820   -0.5460   -1.6570 ca        1 LZT     -0.228000
      7 C7          9.0110    0.6170   -0.8830 ca        1 LZT     -0.019000
      8 C8          7.8410    0.9000   -0.1970 ca        1 LZT     -0.222600
      9 C9          7.5250    2.0450    0.6770 c         1 LZT      0.588700
     10 O10         8.2600    2.9900    0.9630 o         1 LZT     -0.527100
     11 C11         6.1040    1.8560    1.1760 c3        1 LZT     -0.184400
     12 C12         5.5890    0.5340    0.5730 c3        1 LZT     -0.020400
     13 C13         4.3220    0.7170   -0.2420 c3        1 LZT     -0.141400
     14 C15        -9.4230   -0.0370   -1.1670 ca        1 LZT     -0.068300
     15 C16        -9.0390    0.5810    0.0290 ca        1 LZT     -0.132000
     16 C17        -7.8370    1.2810    0.1080 ca        1 LZT     -0.113500
     17 C18        -7.0050    1.3770   -1.0100 ca        1 LZT     -0.126300
     18 C19        -7.3850    0.7590   -2.2060 ca        1 LZT     -0.113500
     19 C20        -8.5850    0.0570   -2.2840 ca        1 LZT     -0.132000
     20 C21        -5.7190    2.1500   -0.9380 c3        1 LZT      0.128300
     21 C23        -3.6870    1.2420    0.1310 c         1 LZT      0.631100
     22 O24        -3.7890    2.0020    1.1170 o         1 LZT     -0.623100
     23 C25        -2.5530    0.1820    0.0520 c3        1 LZT      0.028700
     24 C26        -3.1380   -1.1200    0.6230 c3        1 LZT     -0.080400
     25 C28        -2.1990   -2.2930    0.4200 c3        1 LZT     -0.036100
     26 C29        -0.2420    1.0450    0.0690 c         1 LZT      0.640100
     27 O30        -0.0790    0.7910   -1.1390 o         1 LZT     -0.598100
     28 C31         0.8380    1.7720    0.9140 c3        1 LZT      0.036700
     29 N32         2.1270    1.7460    0.2780 n         1 LZT     -0.536900
     30 C33         0.3340    3.2150    1.1900 c3        1 LZT      0.135100
     31 O34         0.2670    3.8860   -0.0610 oh        1 LZT     -0.597800
     32 C35         1.2400    3.9430    2.1640 c3        1 LZT     -0.131100
     33 C36        -2.8240   -3.5680    0.8680 ca        1 LZT     -0.081300
     34 C37        -2.9860   -3.8320    2.2340 ca        1 LZT     -0.126500
     35 C38        -3.2430   -4.5210   -0.0670 ca        1 LZT     -0.126500
     36 C39        -3.5600   -5.0280    2.6570 ca        1 LZT     -0.127500
     37 C40        -3.9780   -5.9740    1.7200 ca        1 LZT     -0.131000
     38 C41        -3.8180   -5.7190    0.3580 ca        1 LZT     -0.127500
     39 C42         3.1040    0.8380    0.6560 c         1 LZT      0.657100
     40 O43         2.9930    0.1730    1.7060 o         1 LZT     -0.611100
     41 H2          5.9320   -1.8230   -1.0970 ha        1 LZT      0.158000
     42 H5          8.8670   -3.8760   -3.6670 h1        1 LZT      0.048367
     43 H5A         9.3700   -2.1250   -3.9290 h1        1 LZT      0.048367
     44 H5B         9.9870   -3.0470   -2.4640 h1        1 LZT      0.048367
     45 H6         10.0080   -0.7740   -2.2030 ha        1 LZT      0.143000
     46 H7          9.8730    1.2990   -0.8190 ha        1 LZT      0.152000
     47 H11         6.1000    1.8110    2.2940 hc        1 LZT      0.081700
     48 H11A        5.4760    2.7260    0.8620 hc        1 LZT      0.081700
     49 H12         5.3810   -0.2030    1.4010 hc        1 LZT      0.100700
     50 H13         4.4290    1.6020   -0.9220 hc        1 LZT      0.076200
     51 H13A        4.1580   -0.1910   -0.8860 hc        1 LZT      0.076200
     52 H14       -11.5240   -0.0690   -1.5670 hc        1 LZT      0.046367
     53 H14A      -10.6490   -1.5950   -2.0040 hc        1 LZT      0.046367
     54 H14B      -10.9860   -1.2090   -0.2640 hc        1 LZT      0.046367
     55 H17        -7.5420    1.7600    1.0550 ha        1 LZT      0.134500
     56 H19        -6.7350    0.8340   -3.0910 ha        1 LZT      0.134500
     57 H20        -8.8770   -0.4260   -3.2280 ha        1 LZT      0.133500
     58 H21        -5.6620    2.8340   -1.8360 h1        1 LZT      0.070700
     59 H21A       -5.7070    2.7920   -0.0090 h1        1 LZT      0.070700
     60 H25        -2.2650    0.0070   -1.0300 h1        1 LZT      0.102700
     61 H26        -3.3630   -0.9980    1.7150 hc        1 LZT      0.057200
     62 H26A       -4.1090   -1.3220    0.0980 hc        1 LZT      0.057200
     63 H28        -1.9150   -2.3620   -0.6640 hc        1 LZT      0.059200
     64 H28A       -1.2510   -2.1240    1.0000 hc        1 LZT      0.059200
     65 H31         0.9300    1.2500    1.9170 h1        1 LZT      0.110700
     66 HN32        2.1480    2.1240   -0.6440 hn        1 LZT      0.330500
     67 H33        -0.7060    3.1470    1.6250 h1        1 LZT      0.047700
     68 HO34        0.0500    4.8070    0.1280 ho        1 LZT      0.410000
     69 H35         0.7780    4.9170    2.4570 hc        1 LZT      0.051033
     70 H35A        1.3930    3.3280    3.0830 hc        1 LZT      0.051033
     71 H35B        2.2330    4.1500    1.6990 hc        1 LZT      0.051033
     72 H37        -2.6530   -3.0880    2.9730 ha        1 LZT      0.131000
     73 H38        -3.1160   -4.3270   -1.1430 ha        1 LZT      0.131000
     74 H39        -3.6830   -5.2280    3.7310 ha        1 LZT      0.130500
     75 H40        -4.4300   -6.9180    2.0540 ha        1 LZT      0.131000
     76 H41        -4.1430   -6.4630   -0.3830 ha        1 LZT      0.130500
     77 N27        -1.3750    0.6310    0.7520 n         1 LZT     -0.541900
     78 N22        -4.5410    1.3220   -0.9460 n         1 LZT     -0.549900
     79 H16        -9.6900    0.5100    0.9130 ha        1 LZT      0.133500
     80 C14       -10.7080   -0.7690   -1.2530 c3        1 LZT     -0.056800
     81 HN22       -4.4990    0.6130   -1.6400 hn        1 LZT      0.310500
     82 HN27       -1.5400    1.0000    1.6630 hn        1 LZT      0.318500
@<TRIPOS>BOND
     1    1    2 ar  
     2    1    8 ar  
     3    1   12 1   
     4    2    3 ar  
     5    2   41 1   
     6    3    4 1   
     7    3    6 ar  
     8    4    5 1   
     9    5   42 1   
    10    5   43 1   
    11    5   44 1   
    12    6    7 ar  
    13    6   45 1   
    14    7    8 ar  
    15    7   46 1   
    16    8    9 1   
    17    9   10 2   
    18    9   11 1   
    19   11   12 1   
    20   11   47 1   
    21   11   48 1   
    22   12   13 1   
    23   12   49 1   
    24   13   39 1   
    25   13   50 1   
    26   13   51 1   
    27   14   15 ar  
    28   14   19 ar  
    29   14   80 1   
    30   15   16 ar  
    31   15   79 1   
    32   16   17 ar  
    33   16   55 1   
    34   17   18 ar  
    35   17   20 1   
    36   18   19 ar  
    37   18   56 1   
    38   19   57 1   
    39   20   58 1   
    40   20   59 1   
    41   20   78 1   
    42   21   22 2   
    43   21   23 1   
    44   21   78 1   
    45   23   24 1   
    46   23   60 1   
    47   23   77 1   
    48   24   25 1   
    49   24   61 1   
    50   24   62 1   
    51   25   33 1   
    52   25   63 1   
    53   25   64 1   
    54   26   27 2   
    55   26   28 1   
    56   26   77 1   
    57   28   29 1   
    58   28   30 1   
    59   28   65 1   
    60   29   39 1   
    61   29   66 1   
    62   30   31 1   
    63   30   32 1   
    64   30   67 1   
    65   31   68 1   
    66   32   69 1   
    67   32   70 1   
    68   32   71 1   
    69   33   34 ar  
    70   33   35 ar  
    71   34   36 ar  
    72   34   72 1   
    73   35   38 ar  
    74   35   73 1   
    75   36   37 ar  
    76   36   74 1   
    77   37   38 ar  
    78   37   75 1   
    79   38   76 1   
    80   39   40 2   
    81   52   80 1   
    82   53   80 1   
    83   54   80 1   
    84   77   82 1   
    85   78   81 1   
@<TRIPOS>SUBSTRUCTURE
     1 LZT         1 TEMP              0 ****  ****    0 ROOT
