@<TRIPOS>MOLECULE
LZT
   82    78     1     0     0
SMALL
bcc


@<TRIPOS>ATOM
      1 C1          0.0290   -2.1570    6.8960 c1        1 LZT     -0.016000
      2 C2          1.3960   -1.9910    7.1160 c2        1 LZT     -0.158000
      3 C3          1.8630   -1.6760    8.3930 c1        1 LZT      0.112000
      4 O4          3.2570   -1.4540    8.6060 os        1 LZT     -0.207000
      5 C5          3.8260   -2.2810    9.6180 c3        1 LZT     -0.078000
      6 C6          0.9600   -1.5260    9.4530 c1        1 LZT     -0.125750
      7 C7         -0.4090   -1.6920    9.2320 c1        1 LZT     -0.125750
      8 C8         -0.8760   -2.0070    7.9560 c1        1 LZT     -0.202000
      9 C9         -2.2280   -2.4980    7.4870 c2        1 LZT      0.279000
     10 O10        -3.1640   -2.8340    8.2070 o         1 LZT     -0.288000
     11 C11        -2.2370   -2.4600    5.9880 c3        1 LZT     -0.213000
     12 C12        -0.7740   -2.4080    5.6200 c2        1 LZT     -0.067000
     13 C13        -0.5340   -1.2910    4.6430 c3        1 LZT     -0.170000
     14 C14         1.7340    8.0170   -5.2120 c3        1 LZT     -0.182000
     15 C15         0.9760    6.7790   -4.7770 c2        1 LZT     -0.060000
     16 C16         0.2670    6.0120   -5.7320 c2        1 LZT     -0.135000
     17 C17        -0.4250    4.8730   -5.3320 c1        1 LZT     -0.116000
     18 C18        -0.4170    4.4880   -3.9890 c1        1 LZT     -0.128000
     19 C19         0.2880    5.2510   -3.0460 c1        1 LZT     -0.104000
     20 C20         0.9820    6.3960   -3.4490 c1        1 LZT     -0.129000
     21 C21        -1.2740    3.2650   -3.5200 c3        1 LZT      0.005000
     22 N22        -0.4530    2.0890   -3.4850 n         1 LZT     -0.350000
     23 C23        -1.0400    0.7760   -3.0490 c2        1 LZT      0.270000
     24 O24        -2.2540    0.6000   -3.1020 o         1 LZT     -0.403000
     25 C25        -0.1180   -0.3900   -2.6990 c3        1 LZT     -0.006000
     26 C26         0.0340   -1.2760   -3.9030 c3        1 LZT     -0.155000
     27 N27        -0.6860   -1.1450   -1.6150 n         1 LZT     -0.332000
     28 C28         1.4900   -1.6050   -4.1090 c3        1 LZT     -0.122000
     29 C29        -0.5510   -0.6740   -0.2440 c2        1 LZT      0.262000
     30 O30         0.3290    0.1360    0.0460 o         1 LZT     -0.352000
     31 C31        -1.5050   -1.1730    0.8210 c3        1 LZT     -0.027000
     32 N32        -1.0290   -0.7750    2.1200 n         1 LZT     -0.345000
     33 C33        -2.8670   -0.5870    0.5800 c3        1 LZT      0.032000
     34 O34        -3.1350    0.3980    1.5410 oh        1 LZT     -0.326000
     35 C35        -3.9360   -1.7010    0.6780 c3        1 LZT     -0.209000
     36 C36         1.7110   -2.0480   -5.5670 c2        1 LZT     -0.077000
     37 C37         1.2430   -3.3050   -6.0010 c2        1 LZT     -0.124000
     38 C38         2.4270   -1.2200   -6.4520 c1        1 LZT     -0.129000
     39 C39         1.4910   -3.7280   -7.3140 c1        1 LZT     -0.127000
     40 C40         2.2090   -2.8940   -8.1980 c1        1 LZT     -0.125750
     41 C41         2.6740   -1.6420   -7.7610 c1        1 LZT     -0.125750
     42 C42        -1.0300   -1.7290    3.2140 c2        1 LZT      0.302000
     43 O43        -1.3680   -2.9230    3.0060 o         1 LZT     -0.372000
     44 H2          2.0250   -2.0230    6.3550 ha        1 LZT      0.157000
     45 H5          3.7220   -3.2130    9.3700 h1        1 LZT      0.087333
     46 H5A         4.7860   -2.0720    9.7140 h1        1 LZT      0.087333
     47 H5B         3.3630   -2.1140   10.4820 h1        1 LZT      0.087333
     48 H6          1.2960   -1.2990   10.3720 ha        1 LZT      0.139750
     49 H7         -1.0480   -1.5870    9.9810 ha        1 LZT      0.139750
     50 H11        -2.6980   -1.7260    5.5940 hc        1 LZT      0.122000
     51 H11A       -2.6950   -3.2440    5.6370 hc        1 LZT      0.122000
     52 H12        -0.5110   -3.2320    5.2350 ha        1 LZT      0.141000
     53 H13        -1.0230   -0.5000    4.9280 hc        1 LZT      0.115000
     54 H13A        0.4200   -1.0890    4.6100 hc        1 LZT      0.115000
     55 H14         1.4520    8.8140   -4.6300 hc        1 LZT      0.085333
     56 H14A        1.5340    8.2060   -6.1330 hc        1 LZT      0.085333
     57 H14B        2.7220    7.8580   -5.1080 hc        1 LZT      0.085333
     58 H16         0.2620    6.2890   -6.6930 ha        1 LZT      0.132000
     59 H17        -0.9320    4.3240   -6.0120 ha        1 LZT      0.128000
     60 H19         0.2930    4.9920   -2.1380 ha        1 LZT      0.146000
     61 H20         1.4790    6.9340   -2.7800 ha        1 LZT      0.137000
     62 H21        -2.0030    3.1280   -4.1360 h1        1 LZT      0.110500
     63 H21A       -1.6330    3.4410   -2.6190 h1        1 LZT      0.110500
     64 HN22        0.3900    2.1210   -3.8000 hn        1 LZT      0.223000
     65 H25         0.7720   -0.0420   -2.4290 h1        1 LZT      0.141000
     66 H26        -0.3200   -0.7940   -4.7220 hc        1 LZT      0.098500
     67 H26A       -0.4690   -2.0970   -3.7680 hc        1 LZT      0.098500
     68 HN27       -1.1670   -1.9230   -1.7930 hn        1 LZT      0.216000
     69 H28         1.7470   -2.3170   -3.5150 hc        1 LZT      0.098500
     70 H28A        2.0260   -0.8230   -3.9250 hc        1 LZT      0.098500
     71 H31        -1.5590   -2.1600    0.7780 h1        1 LZT      0.149000
     72 HN32       -0.6410    0.0540    2.2330 hn        1 LZT      0.241000
     73 H33        -2.8940   -0.1800   -0.3300 h1        1 LZT      0.089000
     74 HO34       -3.3360    1.1820    1.1250 ho        1 LZT      0.220000
     75 H35        -4.7150   -1.4330    0.2070 hc        1 LZT      0.089667
     76 H35A       -3.5850   -2.5300    0.2860 hc        1 LZT      0.089667
     77 H35B       -4.1600   -1.8530    1.6150 hc        1 LZT      0.089667
     78 H37         0.7250   -3.9010   -5.3640 ha        1 LZT      0.133000
     79 H38         2.7600   -0.3300   -6.1450 ha        1 LZT      0.128000
     80 H39         1.1620   -4.6180   -7.6230 ha        1 LZT      0.133000
     81 H40         2.3860   -3.1910   -9.1270 ha        1 LZT      0.139750
     82 H41         3.1880   -1.0440   -8.3970 ha        1 LZT      0.139750
@<TRIPOS>BOND
     1    1    2 1   
     2    1    8 1   
     3    2    3 1   
     4    2   44 1   
     5    3    4 1   
     6    4    5 1   
     7    5   45 1   
     8    5   46 1   
     9    5   47 1   
    10    6    7 1   
    11    6   48 1   
    12    7   49 1   
    13    8    9 1   
    14    9   10 1   
    15    9   11 1   
    16   11   12 1   
    17   11   50 1   
    18   11   51 1   
    19   12   13 1   
    20   12   52 1   
    21   13   42 1   
    22   13   53 1   
    23   13   54 1   
    24   14   15 1   
    25   14   55 1   
    26   14   56 1   
    27   14   57 1   
    28   15   16 1   
    29   15   20 1   
    30   16   17 1   
    31   16   58 1   
    32   17   59 1   
    33   18   19 1   
    34   18   21 1   
    35   19   60 1   
    36   20   61 1   
    37   21   22 1   
    38   21   62 1   
    39   21   63 1   
    40   22   23 1   
    41   22   64 1   
    42   23   24 1   
    43   23   25 1   
    44   25   26 1   
    45   25   27 1   
    46   25   65 1   
    47   26   28 1   
    48   26   66 1   
    49   26   67 1   
    50   27   29 1   
    51   27   68 1   
    52   28   36 1   
    53   28   69 1   
    54   28   70 1   
    55   29   30 1   
    56   29   31 1   
    57   31   32 1   
    58   31   33 1   
    59   31   71 1   
    60   32   42 1   
    61   32   72 1   
    62   33   34 1   
    63   33   35 1   
    64   33   73 1   
    65   34   74 1   
    66   35   75 1   
    67   35   76 1   
    68   35   77 1   
    69   36   37 1   
    70   36   38 1   
    71   37   39 1   
    72   37   78 1   
    73   38   79 1   
    74   39   80 1   
    75   40   41 1   
    76   40   81 1   
    77   41   82 1   
    78   42   43 1   
@<TRIPOS>SUBSTRUCTURE
     1 LZT         1 TEMP              0 ****  ****    0 ROOT
