@<TRIPOS>MOLECULE
LZU
   51    54     1     0     0
SMALL
bcc


@<TRIPOS>ATOM
      1 CAA         3.6850    1.4730    2.0340 c3        1 LZU      0.155100
      2 CAB        -2.0990   -5.5940    0.8430 c3        1 LZU     -0.070000
      3 CAC        -0.6220    4.2270    0.1420 ca        1 LZU     -0.101000
      4 CAD        -1.9830    4.5200    0.1740 ca        1 LZU     -0.151000
      5 CAE         4.9660   -0.0160   -1.7770 c3        1 LZU     -0.078400
      6 CAF         5.9270   -0.0360   -0.6100 c3        1 LZU     -0.078400
      7 CAG         3.5590   -0.3150   -1.3080 c3        1 LZU     -0.078400
      8 CAH        -0.1790    2.9240   -0.0660 ca        1 LZU     -0.176000
      9 CAI        -2.9050    3.4930   -0.0010 ca        1 LZU     -0.087000
     10 CAJ        -3.1080   -2.7870    0.3120 ca        1 LZU     -0.166000
     11 CAK        -3.6770   -1.5370    0.0920 ca        1 LZU     -0.069000
     12 CAL         1.7010    0.2620    0.2710 c3        1 LZU     -0.117400
     13 CAM         5.4440    0.8950    0.4980 c3        1 LZU      0.171800
     14 CAN         0.7200    0.3480   -0.9030 c3        1 LZU      0.036300
     15 CAO        -0.9120   -1.8140    0.0320 ca        1 LZU     -0.172000
     16 CAP         3.1230    0.6370   -0.1820 c3        1 LZU      0.190500
     17 CAQ        -1.7200   -2.9290    0.2850 ca        1 LZU      0.027900
     18 CAR        -1.1010    1.8730   -0.2730 ca        1 LZU      0.074700
     19 CAS        -1.4740   -0.5480   -0.2250 ca        1 LZU      0.092700
     20 CAT        -2.4840    2.1820   -0.2320 ca        1 LZU     -0.021100
     21 CAU        -2.8880   -0.4220   -0.1840 ca        1 LZU     -0.033100
     22 NAV         4.0800    0.6210    0.9350 n3        1 LZU     -0.729600
     23 NAW        -0.6720    0.5600   -0.5700 na        1 LZU     -0.167100
     24 SAY        -3.7000    1.0310   -0.4870 ss        1 LZU     -0.164800
     25 H1          2.8340    0.9830    2.5760 h1        1 LZU      0.032367
     26 H2          4.5380    1.5820    2.7550 h1        1 LZU      0.032367
     27 H3          3.3630    2.5010    1.7100 h1        1 LZU      0.032367
     28 H4         -2.7130   -5.3720    1.7450 h1        1 LZU      0.070700
     29 H5         -2.7830   -5.7340   -0.0240 h1        1 LZU      0.070700
     30 H6         -1.5340   -6.5410    1.0140 h1        1 LZU      0.070700
     31 H7          0.1180    5.0290    0.2880 ha        1 LZU      0.132000
     32 H8         -2.3270    5.5500    0.3410 ha        1 LZU      0.136000
     33 H9          4.9930    0.9910   -2.2710 hc        1 LZU      0.040700
     34 H10         5.2780   -0.7740   -2.5420 hc        1 LZU      0.040700
     35 H11         6.0200   -1.0810   -0.2140 hc        1 LZU      0.048200
     36 H12         6.9440    0.2990   -0.9380 hc        1 LZU      0.048200
     37 H13         2.8510   -0.2010   -2.1700 hc        1 LZU      0.048200
     38 H14         3.4950   -1.3740   -0.9470 hc        1 LZU      0.048200
     39 H15         0.9050    2.7340   -0.0720 ha        1 LZU      0.138000
     40 H16        -3.9850    3.7100    0.0370 ha        1 LZU      0.142000
     41 H17        -3.7580   -3.6520    0.5110 ha        1 LZU      0.135000
     42 H18        -4.7730   -1.4230    0.1310 ha        1 LZU      0.142000
     43 H19         1.3700    0.9540    1.0890 hc        1 LZU      0.060700
     44 H20         1.7070   -0.7740    0.6960 hc        1 LZU      0.060700
     45 H21         6.1150    0.7640    1.3940 h1        1 LZU      0.029700
     46 H22         5.5560    1.9630    0.1420 h1        1 LZU      0.029700
     47 H23         1.0290    1.1940   -1.5860 h1        1 LZU      0.062200
     48 H24         0.7820   -0.6040   -1.5060 h1        1 LZU      0.062200
     49 H25         0.1800   -1.9590    0.0370 ha        1 LZU      0.148000
     50 H26         3.0710    1.6840   -0.6230 h1        1 LZU      0.014700
     51 SAX        -0.8790   -4.3770    0.5460 ss        1 LZU     -0.164000
@<TRIPOS>BOND
     1    1   22 1   
     2    1   25 1   
     3    1   26 1   
     4    1   27 1   
     5    2   28 1   
     6    2   29 1   
     7    2   30 1   
     8    2   51 1   
     9    3    4 ar  
    10    3    8 ar  
    11    3   31 1   
    12    4    9 ar  
    13    4   32 1   
    14    5    6 1   
    15    5    7 1   
    16    5   33 1   
    17    5   34 1   
    18    6   13 1   
    19    6   35 1   
    20    6   36 1   
    21    7   16 1   
    22    7   37 1   
    23    7   38 1   
    24    8   18 ar  
    25    8   39 1   
    26    9   20 ar  
    27    9   40 1   
    28   10   11 ar  
    29   10   17 ar  
    30   10   41 1   
    31   11   21 ar  
    32   11   42 1   
    33   12   14 1   
    34   12   16 1   
    35   12   43 1   
    36   12   44 1   
    37   13   22 1   
    38   13   45 1   
    39   13   46 1   
    40   14   23 1   
    41   14   47 1   
    42   14   48 1   
    43   15   17 ar  
    44   15   19 ar  
    45   15   49 1   
    46   16   22 1   
    47   16   50 1   
    48   17   51 1   
    49   18   20 ar  
    50   18   23 1   
    51   19   21 ar  
    52   19   23 1   
    53   20   24 1   
    54   21   24 1   
@<TRIPOS>SUBSTRUCTURE
     1 LZU         1 TEMP              0 ****  ****    0 ROOT
