@<TRIPOS>MOLECULE
LZU
   51    51     1     0     0
SMALL
bcc


@<TRIPOS>ATOM
      1 CAA         1.5220   -0.9030   -0.2500 c2        1 LZU     -0.848000
      2 CAB         3.1030   -7.0270   -1.8260 c3        1 LZU     -0.382000
      3 CAC        -1.0200    0.4970   -6.8900 c3        1 LZU     -0.077000
      4 CAD         0.1200   -0.4740   -8.8920 c1        1 LZU      0.238000
      5 CAE         5.2940    0.5010   -2.0170 c3        1 LZU     -0.222000
      6 CAF         2.2810   -0.5320    4.1260 c1        1 LZU     -0.242500
      7 CAG         4.6150   -0.7690   -2.4570 c3        1 LZU     -0.183000
      8 CAH        -1.0660    0.0590   -5.4180 c3        1 LZU     -0.104000
      9 CAI        -0.1450   -0.5170   -7.5970 c2        1 LZU     -0.368000
     10 CAJ         2.4980   -5.3940   -4.2190 c3        1 LZU     -0.156000
     11 CAK         2.2540   -4.6190   -5.4270 c1        1 LZU     -0.153000
     12 CAL        -1.8800   -1.4050   -2.7610 c2        1 LZU     -0.215000
     13 CAM         1.9400   -0.6460    2.9850 c1        1 LZU     -0.242500
     14 CAN        -0.5600   -1.4800   -2.9750 c2        1 LZU     -0.075000
     15 CAO         1.1100   -3.7510   -2.9910 c2        1 LZU     -0.238000
     16 CAP         3.1400   -0.8040   -2.0960 c3        1 LZU     -0.214000
     17 CAQ         1.8810   -4.8740   -2.9690 c2        1 LZU     -0.211000
     18 CAR        -0.2090   -1.1790   -5.3720 c2        1 LZU     -0.061000
     19 CAS         0.8570   -3.0160   -4.2200 c2        1 LZU      0.258000
     20 CAT         0.3100   -1.4920   -6.6040 c2        1 LZU     -0.248000
     21 CAU         1.4690   -3.4900   -5.4040 c2        1 LZU     -0.448000
     22 NAV         2.8680   -0.7950   -0.6160 n4        1 LZU      0.173000
     23 NAW         0.0500   -1.8990   -4.1890 na        1 LZU     -0.150000
     24 SAY         1.3220   -2.7700   -6.9520 ss        1 LZU      0.452000
     25 H1          3.3940   -1.5720   -0.2090 hn        1 LZU      0.195500
     26 H2          1.0890   -1.8960   -0.1910 hx        1 LZU      0.127000
     27 H3          0.9070   -0.0100   -0.3050 hx        1 LZU      0.127000
     28 H4          3.2290   -7.5480   -0.8470 h1        1 LZU      0.116667
     29 H5          2.6280   -7.7280   -2.5490 h1        1 LZU      0.116667
     30 H6          4.1070   -6.7470   -2.2180 h1        1 LZU      0.116667
     31 H7         -2.1150   -0.1630   -5.0990 hc        1 LZU      0.099000
     32 H8         -2.0460    0.5040   -7.3340 hc        1 LZU      0.097500
     33 H9          4.7240    1.3970   -2.3660 hc        1 LZU      0.078333
     34 H10         6.3240    0.5530   -2.4460 hc        1 LZU      0.078333
     35 H11         5.3830    0.5520   -0.9040 hc        1 LZU      0.078333
     36 H12         2.5790   -0.4310    5.1380 ha        1 LZU      0.235500
     37 H13         5.1430   -1.6560   -2.0150 hc        1 LZU      0.098000
     38 H14         4.6900   -0.8660   -3.5740 hc        1 LZU      0.098000
     39 H15        -0.6570    0.8550   -4.7460 hc        1 LZU      0.099000
     40 H16        -0.5820    1.5220   -6.9850 hc        1 LZU      0.097500
     41 H17         2.1170   -6.4390   -4.4210 hc        1 LZU      0.146000
     42 H18         3.6160   -5.4740   -4.0890 hc        1 LZU      0.146000
     43 H19        -2.6440   -1.6720   -3.5030 ha        1 LZU      0.132000
     44 H20        -2.2600   -1.0540   -1.7920 ha        1 LZU      0.132000
     45 H21         3.2540    0.0780   -0.2490 hn        1 LZU      0.195500
     46 H22         1.6310   -0.7490    1.9600 ha        1 LZU      0.235500
     47 H23         2.6100    0.0840   -2.5380 hx        1 LZU      0.119000
     48 H24         0.1820   -1.2120   -2.1840 h4        1 LZU      0.183000
     49 H25         0.6530   -3.3870   -2.0530 ha        1 LZU      0.159000
     50 H26         2.6610   -1.7340   -2.5160 hx        1 LZU      0.119000
     51 SAX         2.1030   -5.6330   -1.4850 ss        1 LZU      0.291000
@<TRIPOS>BOND
     1    1   22 1   
     2    1   26 1   
     3    1   27 1   
     4    2   28 1   
     5    2   29 1   
     6    2   30 1   
     7    2   51 1   
     8    3    8 1   
     9    3    9 1   
    10    3   32 1   
    11    3   40 1   
    12    4    9 1   
    13    5    7 1   
    14    5   33 1   
    15    5   34 1   
    16    5   35 1   
    17    6   13 1   
    18    6   36 1   
    19    7   16 1   
    20    7   37 1   
    21    7   38 1   
    22    8   18 1   
    23    8   31 1   
    24    8   39 1   
    25    9   20 1   
    26   10   11 1   
    27   10   17 1   
    28   10   41 1   
    29   10   42 1   
    30   11   21 1   
    31   12   14 1   
    32   12   43 1   
    33   12   44 1   
    34   13   46 1   
    35   14   23 1   
    36   14   48 1   
    37   15   17 1   
    38   15   19 1   
    39   15   49 1   
    40   16   22 1   
    41   16   47 1   
    42   16   50 1   
    43   17   51 1   
    44   18   20 1   
    45   18   23 1   
    46   19   21 1   
    47   19   23 1   
    48   20   24 1   
    49   21   24 1   
    50   22   25 1   
    51   22   45 1   
@<TRIPOS>SUBSTRUCTURE
     1 LZU         1 TEMP              0 ****  ****    0 ROOT
