@<TRIPOS>MOLECULE
LZU
   51    50     1     0     0
SMALL
bcc


@<TRIPOS>ATOM
      1 CAA         0.6510    0.3810    0.6520 c3        1 LZU     -0.090000
      2 CAB         3.9480   -7.7690   -3.7230 c3        1 LZU     -0.373000
      3 CAC        -2.2400   -0.2670   -5.8920 c3        1 LZU     -0.191000
      4 CAD        -1.4760   -0.6020   -9.0050 c1        1 LZU      0.123000
      5 CAE         5.0130    0.5110    0.8990 c3        1 LZU     -0.236000
      6 CAF         3.1110    0.8990    3.9580 c1        1 LZU     -0.220500
      7 CAG         4.2910   -0.2490   -0.1840 c3        1 LZU     -0.195000
      8 CAH        -1.1060   -0.9110   -5.2130 c2        1 LZU     -0.115000
      9 CAI        -0.9160   -1.3190   -8.1290 c1        1 LZU     -0.613000
     10 CAJ         2.2720   -6.1760   -5.6750 ca        1 LZU     -0.186000
     11 CAK         1.5260   -5.5330   -6.6490 ca        1 LZU     -0.038000
     12 CAL         0.9030   -1.6960   -2.6070 c3        1 LZU     -0.275000
     13 CAM         2.6310    1.9930    3.9030 c1        1 LZU     -0.220500
     14 CAN         1.4670   -1.4200   -3.9920 c3        1 LZU     -0.017000
     15 CAO         2.1660   -4.1870   -4.2980 ca        1 LZU     -0.188000
     16 CAP         2.8100   -0.2050   -0.2020 c1        1 LZU     -0.170000
     17 CAQ         2.6070   -5.4970   -4.4960 ca        1 LZU     -0.177000
     18 CAR        -0.1790   -1.7140   -5.8060 c2        1 LZU     -0.013000
     19 CAS         1.3850   -3.5220   -5.2740 ca        1 LZU      0.156000
     20 CAT        -0.2900   -2.0870   -7.2240 c2        1 LZU      0.019000
     21 CAU         1.0970   -4.2130   -6.4800 ca        1 LZU     -0.418000
     22 NAV         2.0900    0.3740    0.7240 n7        1 LZU     -0.193000
     23 NAW         0.9500   -2.2060   -5.0960 na        1 LZU     -0.243000
     24 SAY         0.3310   -3.5020   -7.8000 ss        1 LZU      0.586000
     25 H1          0.2250   -0.1220    1.5610 h1        1 LZU      0.090333
     26 H2          0.3090   -0.1650   -0.2670 h1        1 LZU      0.090333
     27 H3          0.2800    1.4390    0.6140 h1        1 LZU      0.090333
     28 H4          3.0550   -8.4180   -3.8670 h1        1 LZU      0.111667
     29 H5          4.5600   -8.1780   -2.8840 h1        1 LZU      0.111667
     30 H6          4.5560   -7.7910   -4.6550 h1        1 LZU      0.111667
     31 H7         -2.8080   -0.9950   -6.5250 hc        1 LZU      0.099000
     32 H8         -2.9410    0.1780   -5.1430 hc        1 LZU      0.099000
     33 H9          4.6220    0.1270   -1.1920 hc        1 LZU      0.115000
     34 H10         6.1170    0.3750    0.7970 hc        1 LZU      0.072333
     35 H11         4.7910    1.6040    0.8350 hc        1 LZU      0.072333
     36 H12         3.5380   -0.0710    4.0170 ha        1 LZU      0.222500
     37 H13         4.7130    0.1520    1.9140 hc        1 LZU      0.072333
     38 H14         4.5680   -1.3390   -0.1370 hc        1 LZU      0.115000
     39 H15        -1.0310   -0.6880   -4.1340 ha        1 LZU      0.132000
     40 H16        -1.8750    0.5490   -6.5710 hc        1 LZU      0.099000
     41 H17         1.2730   -6.0620   -7.5820 ha        1 LZU      0.141000
     42 H18         2.5980   -7.2140   -5.8340 ha        1 LZU      0.138000
     43 H19        -0.1090   -1.2440   -2.4770 hc        1 LZU      0.098333
     44 H20         1.5940   -1.2380   -1.8450 hc        1 LZU      0.098333
     45 H21         2.4670    0.8400    1.5330 hn        1 LZU      0.170000
     46 H22         2.2090    2.9660    3.8610 ha        1 LZU      0.222500
     47 H23         1.2940   -0.3340   -4.2450 h1        1 LZU      0.099500
     48 H24         2.5840   -1.5850   -3.9650 h1        1 LZU      0.099500
     49 H25         2.4420   -3.6800   -3.3590 ha        1 LZU      0.158000
     50 H26         0.8160   -2.7890   -2.3990 hc        1 LZU      0.098333
     51 SAX         3.5270   -6.1450   -3.2330 ss        1 LZU      0.259000
@<TRIPOS>BOND
     1    1   22 1   
     2    1   25 1   
     3    1   26 1   
     4    1   27 1   
     5    2   28 1   
     6    2   29 1   
     7    2   30 1   
     8    2   51 1   
     9    3    8 1   
    10    3   31 1   
    11    3   32 1   
    12    3   40 1   
    13    4    9 1   
    14    5    7 1   
    15    5   34 1   
    16    5   35 1   
    17    5   37 1   
    18    6   13 1   
    19    6   36 1   
    20    7   16 1   
    21    7   33 1   
    22    7   38 1   
    23    8   18 1   
    24    8   39 1   
    25    9   20 1   
    26   10   11 1   
    27   10   17 1   
    28   10   42 1   
    29   11   21 1   
    30   11   41 1   
    31   12   14 1   
    32   12   43 1   
    33   12   44 1   
    34   12   50 1   
    35   13   46 1   
    36   14   23 1   
    37   14   47 1   
    38   14   48 1   
    39   15   17 1   
    40   15   19 1   
    41   15   49 1   
    42   16   22 1   
    43   17   51 1   
    44   18   20 1   
    45   18   23 1   
    46   19   21 1   
    47   19   23 1   
    48   20   24 1   
    49   21   24 1   
    50   22   45 1   
@<TRIPOS>SUBSTRUCTURE
     1 LZU         1 TEMP              0 ****  ****    0 ROOT
