@<TRIPOS>MOLECULE
LZU
   51    53     1     0     0
SMALL
bcc


@<TRIPOS>ATOM
      1 CAA         1.8070   -1.6960    0.8770 c3        1 LZU     -0.117000
      2 CAB         3.1660   -7.9640   -3.5480 c3        1 LZU     -0.385000
      3 CAC        -1.2800    0.8260   -5.0710 c3        1 LZU     -0.194000
      4 CAD        -0.7740    0.3540   -8.2380 c1        1 LZU      0.093000
      5 CAE         4.0410    0.0180   -1.6220 cx        1 LZU     -0.196500
      6 CAF         1.4180    1.2000    1.7160 c3        1 LZU     -0.212000
      7 CAG         4.2970   -1.4020   -1.2270 cx        1 LZU     -0.196500
      8 CAH        -0.2660   -0.0650   -4.4850 c2        1 LZU     -0.098000
      9 CAI        -0.4230   -0.5110   -7.3950 c1        1 LZU     -0.623000
     10 CAJ         1.5230   -6.0790   -5.1310 c3        1 LZU     -0.165000
     11 CAK         0.7740   -5.1940   -6.0130 c1        1 LZU     -0.115000
     12 CAL         1.8440   -1.3640   -2.0700 c3        1 LZU     -0.179000
     13 CAM         1.5980    0.6610    0.3060 c3        1 LZU     -0.063000
     14 CAN         2.2300   -1.2000   -3.5410 c3        1 LZU     -0.035000
     15 CAO         2.3100   -4.0660   -3.9150 c2        1 LZU     -0.240000
     16 CAP         2.8870   -0.8310   -1.1030 cx        1 LZU     -0.037000
     17 CAQ         2.3470   -5.4180   -4.0830 c2        1 LZU     -0.202000
     18 CAR         0.3460   -1.0880   -5.1380 c2        1 LZU     -0.031000
     19 CAS         1.4670   -3.2140   -4.7360 c2        1 LZU      0.255000
     20 CAT        -0.0130   -1.4540   -6.5210 c2        1 LZU     -0.063000
     21 CAU         0.7820   -3.8280   -5.8150 c2        1 LZU     -0.563000
     22 NAV         2.4090   -0.5480    0.2400 n3        1 LZU     -0.237000
     23 NAW         1.3510   -1.8740   -4.4840 na        1 LZU     -0.190000
     24 SAY         0.0210   -2.9900   -7.0490 ss        1 LZU      0.758000
     25 H1          2.4910   -2.5770    0.7650 h1        1 LZU      0.073333
     26 H2          1.6830   -1.4680    1.9690 h1        1 LZU      0.073333
     27 H3          0.8010   -1.9660    0.4520 h1        1 LZU      0.073333
     28 H4          3.7920   -8.5500   -2.8330 h1        1 LZU      0.119000
     29 H5          2.1120   -8.3160   -3.4770 h1        1 LZU      0.119000
     30 H6          3.5320   -8.1520   -4.5830 h1        1 LZU      0.119000
     31 H7         -2.0620    0.2470   -5.6280 hc        1 LZU      0.104333
     32 H8         -1.7790    1.4270   -4.2720 hc        1 LZU      0.104333
     33 H9          4.4340    0.8250   -0.9750 hc        1 LZU      0.115750
     34 H10         4.0650    0.3070   -2.6870 hc        1 LZU      0.115750
     35 H11         2.4010    1.3290    2.2290 hc        1 LZU      0.080333
     36 H12         0.9130    2.1940    1.6550 hc        1 LZU      0.080333
     37 H13         0.7840    0.5190    2.3320 hc        1 LZU      0.080333
     38 H14         4.8780   -1.6030   -0.3090 hc        1 LZU      0.115750
     39 H15        -0.0130    0.1590   -3.4330 ha        1 LZU      0.125000
     40 H16        -0.8020    1.5260   -5.8060 hc        1 LZU      0.104333
     41 H17         0.7740   -6.7740   -4.6480 hc        1 LZU      0.152500
     42 H18         2.1830   -6.7190   -5.7890 hc        1 LZU      0.152500
     43 H19         0.8650   -0.8420   -1.8910 hc        1 LZU      0.098500
     44 H20         1.6800   -2.4500   -1.8320 hc        1 LZU      0.098500
     45 H21         2.1170    1.4470   -0.3140 h1        1 LZU      0.069500
     46 H22         0.5730    0.4970   -0.1440 h1        1 LZU      0.069500
     47 H23         2.2320   -0.1020   -3.8010 h1        1 LZU      0.112000
     48 H24         3.2760   -1.5900   -3.7050 h1        1 LZU      0.112000
     49 H25         2.9350   -3.6040   -3.1310 ha        1 LZU      0.150000
     50 H26         4.4830   -2.1610   -2.0070 hc        1 LZU      0.115750
     51 SAX         3.3530   -6.2940   -3.0640 ss        1 LZU      0.304000
@<TRIPOS>BOND
     1    1   22 1   
     2    1   25 1   
     3    1   26 1   
     4    1   27 1   
     5    2   28 1   
     6    2   29 1   
     7    2   30 1   
     8    2   51 1   
     9    3    8 1   
    10    3   31 1   
    11    3   32 1   
    12    3   40 1   
    13    4    9 1   
    14    5    7 1   
    15    5   16 1   
    16    5   33 1   
    17    5   34 1   
    18    6   13 1   
    19    6   35 1   
    20    6   36 1   
    21    6   37 1   
    22    7   16 1   
    23    7   38 1   
    24    7   50 1   
    25    8   18 1   
    26    8   39 1   
    27    9   20 1   
    28   10   11 1   
    29   10   17 1   
    30   10   41 1   
    31   10   42 1   
    32   11   21 1   
    33   12   14 1   
    34   12   16 1   
    35   12   43 1   
    36   12   44 1   
    37   13   22 1   
    38   13   45 1   
    39   13   46 1   
    40   14   23 1   
    41   14   47 1   
    42   14   48 1   
    43   15   17 1   
    44   15   19 1   
    45   15   49 1   
    46   16   22 1   
    47   17   51 1   
    48   18   20 1   
    49   18   23 1   
    50   19   21 1   
    51   19   23 1   
    52   20   24 1   
    53   21   24 1   
@<TRIPOS>SUBSTRUCTURE
     1 LZU         1 TEMP              0 ****  ****    0 ROOT
