@<TRIPOS>MOLECULE
LZZ
   56    59     1     0     0
SMALL
bcc


@<TRIPOS>ATOM
      1 CAR         1.6840    0.2780   -0.1000 c3        1 LZZ     -0.098100
      2 CAQ         0.1850    0.0480    0.0010 c3        1 LZZ     -0.026000
      3 CAS        -0.2520   -0.0090    1.4550 c3        1 LZZ     -0.063400
      4 CAT         0.3470   -1.2290    2.1360 c3        1 LZZ     -0.075400
      5 CAU         0.0610   -2.5460    1.4220 c3        1 LZZ     -0.049700
      6 CAV         0.7660   -3.7400    2.1080 c3        1 LZZ      0.000200
      7 CAW         2.2510   -3.4560    2.3200 c3        1 LZZ     -0.084100
      8 CAA         0.0900   -3.9610    3.4710 c3        1 LZZ     -0.066400
      9 CAB         0.5390   -5.2300    4.1580 c3        1 LZZ     -0.113400
     10 CAC         0.2700   -6.4400    3.2730 c3        1 LZZ      0.145100
     11 OAD         0.7910   -7.6300    3.8540 oh        1 LZZ     -0.601800
     12 CAE         0.9660   -6.2830    1.9240 c3        1 LZZ     -0.039200
     13 CAF         0.6220   -4.9870    1.2720 c2        1 LZZ     -0.109400
     14 CAG         0.2470   -4.9670   -0.0160 c2        1 LZZ     -0.166200
     15 CAH        -0.0870   -3.7430   -0.7730 c3        1 LZZ     -0.043200
     16 CAI         0.3980   -2.4810   -0.0750 c3        1 LZZ     -0.046700
     17 CAJ        -0.2830   -1.2640   -0.6670 c3        1 LZZ     -0.064700
     18 CAK        -0.1470   -0.9970   -2.1590 c3        1 LZZ     -0.070400
     19 CAL        -0.5020    0.4820   -2.3180 c3        1 LZZ     -0.103400
     20 CAM        -0.5310    1.1070   -0.8980 c3        1 LZZ      0.050800
     21 OAX        -1.8650    1.2330   -0.4200 oh        1 LZZ     -0.585800
     22 CAN         0.1530    2.4710   -0.8560 c         1 LZZ      0.550100
     23 OAO         1.0650    2.7690   -1.6320 o         1 LZZ     -0.529100
     24 CAP        -0.3590    3.4210    0.1770 c3        1 LZZ     -0.195100
     25 HAU         2.2530   -0.5720    0.3440 hc        1 LZZ      0.045367
     26 HAV         1.9630    1.2110    0.4490 hc        1 LZZ      0.045367
     27 HAT         1.9910    0.3940   -1.1690 hc        1 LZZ      0.045367
     28 HAX         0.0820    0.9140    1.9950 hc        1 LZZ      0.050200
     29 HAW        -1.3710   -0.0460    1.5080 hc        1 LZZ      0.050200
     30 HAY         1.4550   -1.0790    2.2270 hc        1 LZZ      0.041700
     31 HAZ        -0.0680   -1.2870    3.1780 hc        1 LZZ      0.041700
     32 HA0        -1.0500   -2.7330    1.4940 hc        1 LZZ      0.050700
     33 HA2         2.3950   -2.7220    3.1490 hc        1 LZZ      0.037700
     34 HA3         2.7080   -3.0420    1.3900 hc        1 LZZ      0.037700
     35 HA1         2.7930   -4.3940    2.5920 hc        1 LZZ      0.037700
     36 HAB        -1.0220   -3.9970    3.3250 hc        1 LZZ      0.044200
     37 HAA         0.3170   -3.0890    4.1380 hc        1 LZZ      0.044200
     38 HAC        -0.0100   -5.3460    5.1290 hc        1 LZZ      0.047200
     39 HAD         1.6340   -5.1800    4.3940 hc        1 LZZ      0.047200
     40 HAE        -0.8400   -6.5620    3.1210 h1        1 LZZ      0.035700
     41 HA4         0.4070   -7.6980    4.7360 ho        1 LZZ      0.399000
     42 HAG         2.0770   -6.3450    2.0790 hc        1 LZZ      0.060700
     43 HAF         0.6780   -7.1490    1.2700 hc        1 LZZ      0.060700
     44 HAH         0.1560   -5.9060   -0.5880 ha        1 LZZ      0.122000
     45 HAI        -1.2030   -3.6980   -0.9100 hc        1 LZZ      0.049700
     46 HAJ         0.3680   -3.7910   -1.7990 hc        1 LZZ      0.049700
     47 HAK         1.5110   -2.4030   -0.2090 hc        1 LZZ      0.058700
     48 HAL        -1.3890   -1.3610   -0.4500 hc        1 LZZ      0.060700
     49 HAN        -0.8360   -1.6480   -2.7510 hc        1 LZZ      0.047200
     50 HAM         0.8970   -1.1960   -2.5070 hc        1 LZZ      0.047200
     51 HAO         0.2610    1.0040   -2.9490 hc        1 LZZ      0.060200
     52 HAP        -1.5010    0.5990   -2.8050 hc        1 LZZ      0.060200
     53 HA5        -2.3610    1.7120   -1.0950 ho        1 LZZ      0.401000
     54 HAR         0.3140    4.3070    0.2720 hc        1 LZZ      0.067033
     55 HAQ        -1.3810    3.7670   -0.1170 hc        1 LZZ      0.067033
     56 HAS        -0.4380    2.9000    1.1620 hc        1 LZZ      0.067033
@<TRIPOS>BOND
     1    1    2 1   
     2    1   25 1   
     3    1   26 1   
     4    1   27 1   
     5    2    3 1   
     6    2   17 1   
     7    2   20 1   
     8    3    4 1   
     9    3   28 1   
    10    3   29 1   
    11    4    5 1   
    12    4   30 1   
    13    4   31 1   
    14    5    6 1   
    15    5   16 1   
    16    5   32 1   
    17    6    7 1   
    18    6    8 1   
    19    6   13 1   
    20    7   33 1   
    21    7   34 1   
    22    7   35 1   
    23    8    9 1   
    24    8   36 1   
    25    8   37 1   
    26    9   10 1   
    27    9   38 1   
    28    9   39 1   
    29   10   11 1   
    30   10   12 1   
    31   10   40 1   
    32   11   41 1   
    33   12   13 1   
    34   12   42 1   
    35   12   43 1   
    36   13   14 2   
    37   14   15 1   
    38   14   44 1   
    39   15   16 1   
    40   15   45 1   
    41   15   46 1   
    42   16   17 1   
    43   16   47 1   
    44   17   18 1   
    45   17   48 1   
    46   18   19 1   
    47   18   49 1   
    48   18   50 1   
    49   19   20 1   
    50   19   51 1   
    51   19   52 1   
    52   20   21 1   
    53   20   22 1   
    54   21   53 1   
    55   22   23 2   
    56   22   24 1   
    57   24   54 1   
    58   24   55 1   
    59   24   56 1   
@<TRIPOS>SUBSTRUCTURE
     1 LZZ         1 TEMP              0 ****  ****    0 ROOT
