@<TRIPOS>MOLECULE
LZZ
   56    59     1     0     0
SMALL
bcc


@<TRIPOS>ATOM
      1 CAR         1.6900    0.2670   -0.1140 c3        1 LZZ     -0.098100
      2 CAQ         0.1900    0.0440   -0.0090 c3        1 LZZ     -0.026000
      3 CAS        -0.2460    0.0090    1.4460 c3        1 LZZ     -0.063400
      4 CAT         0.3480   -1.2040    2.1440 c3        1 LZZ     -0.075400
      5 CAU         0.0560   -2.5290    1.4480 c3        1 LZZ     -0.049700
      6 CAV         0.7550   -3.7160    2.1510 c3        1 LZZ      0.000200
      7 CAW         2.2420   -3.4370    2.3560 c3        1 LZZ     -0.084100
      8 CAA         0.0810   -3.9150    3.5180 c3        1 LZZ     -0.070400
      9 CAB         0.5240   -5.1730    4.2280 c3        1 LZZ     -0.075400
     10 CAC         0.2410   -6.3930    3.3600 c3        1 LZZ      0.145100
     11 OAD         0.7300   -7.5240    4.0710 oh        1 LZZ     -0.600800
     12 CAE         0.9350   -6.2610    2.0080 c3        1 LZZ     -0.076200
     13 CAF         0.6040   -4.9740    1.3320 c2        1 LZZ     -0.104400
     14 CAG         0.2300   -4.9710    0.0440 c2        1 LZZ     -0.168200
     15 CAH        -0.0980   -3.7560   -0.7300 c3        1 LZZ     -0.042200
     16 CAI         0.3930   -2.4860   -0.0490 c3        1 LZZ     -0.046700
     17 CAJ        -0.2830   -1.2750   -0.6580 c3        1 LZZ     -0.064700
     18 CAK        -0.1470   -1.0300   -2.1540 c3        1 LZZ     -0.070400
     19 CAL        -0.4960    0.4490   -2.3340 c3        1 LZZ     -0.103400
     20 CAM        -0.5210    1.0930   -0.9230 c3        1 LZZ      0.050800
     21 OAX        -1.8550    1.2320   -0.4460 oh        1 LZZ     -0.585800
     22 CAN         0.1690    2.4540   -0.9000 c         1 LZZ      0.550100
     23 OAO         1.0810    2.7380   -1.6820 o         1 LZZ     -0.529100
     24 CAP        -0.3370    3.4220    0.1200 c3        1 LZZ     -0.195100
     25 HAU         1.9970    0.3650   -1.1850 hc        1 LZZ      0.045367
     26 HAV         2.2560   -0.5800    0.3420 hc        1 LZZ      0.045367
     27 HAT         1.9730    1.2060    0.4210 hc        1 LZZ      0.045367
     28 HAX         0.0920    0.9390    1.9720 hc        1 LZZ      0.050700
     29 HAW        -1.3660   -0.0220    1.4990 hc        1 LZZ      0.050700
     30 HAY        -0.0670   -1.2450    3.1860 hc        1 LZZ      0.042700
     31 HAZ         1.4560   -1.0570    2.2320 hc        1 LZZ      0.042700
     32 HA0        -1.0570   -2.7100    1.5230 hc        1 LZZ      0.050700
     33 HA2         2.7790   -4.3730    2.6460 hc        1 LZZ      0.038033
     34 HA3         2.3900   -2.6900    3.1730 hc        1 LZZ      0.038033
     35 HA1         2.7020   -3.0420    1.4190 hc        1 LZZ      0.038033
     36 HAB         0.3130   -3.0340    4.1720 hc        1 LZZ      0.044700
     37 HAA        -1.0320   -3.9460    3.3740 hc        1 LZZ      0.044700
     38 HAC        -0.0220   -5.2780    5.2010 hc        1 LZZ      0.055700
     39 HAD         1.6200   -5.1310    4.4590 hc        1 LZZ      0.055700
     40 HAE        -0.8700   -6.5060    3.2070 h1        1 LZZ      0.035700
     41 HA4         0.5940   -8.2900    3.5020 ho        1 LZZ      0.398000
     42 HAG         2.0470   -6.3240    2.1640 hc        1 LZZ      0.051700
     43 HAF         0.6440   -7.1310    1.3610 hc        1 LZZ      0.051700
     44 HAH         0.1340   -5.9170   -0.5150 ha        1 LZZ      0.120000
     45 HAI         0.3570   -3.8210   -1.7550 hc        1 LZZ      0.049700
     46 HAJ        -1.2140   -3.7080   -0.8690 hc        1 LZZ      0.049700
     47 HAK         1.5060   -2.4150   -0.1850 hc        1 LZZ      0.058700
     48 HAL        -1.3900   -1.3640   -0.4400 hc        1 LZZ      0.060700
     49 HAN         0.8960   -1.2370   -2.5000 hc        1 LZZ      0.047200
     50 HAM        -0.8390   -1.6860   -2.7360 hc        1 LZZ      0.047200
     51 HAO         0.2690    0.9590   -2.9730 hc        1 LZZ      0.060200
     52 HAP        -1.4950    0.5630   -2.8210 hc        1 LZZ      0.060200
     53 HA5        -2.3490    1.7060   -1.1260 ho        1 LZZ      0.401000
     54 HAR         0.3400    4.3050    0.2020 hc        1 LZZ      0.067700
     55 HAQ        -0.4180    2.9140    1.1130 hc        1 LZZ      0.067700
     56 HAS        -1.3580    3.7680   -0.1770 hc        1 LZZ      0.067700
@<TRIPOS>BOND
     1    1    2 1   
     2    1   25 1   
     3    1   26 1   
     4    1   27 1   
     5    2    3 1   
     6    2   17 1   
     7    2   20 1   
     8    3    4 1   
     9    3   28 1   
    10    3   29 1   
    11    4    5 1   
    12    4   30 1   
    13    4   31 1   
    14    5    6 1   
    15    5   16 1   
    16    5   32 1   
    17    6    7 1   
    18    6    8 1   
    19    6   13 1   
    20    7   33 1   
    21    7   34 1   
    22    7   35 1   
    23    8    9 1   
    24    8   36 1   
    25    8   37 1   
    26    9   10 1   
    27    9   38 1   
    28    9   39 1   
    29   10   11 1   
    30   10   12 1   
    31   10   40 1   
    32   11   41 1   
    33   12   13 1   
    34   12   42 1   
    35   12   43 1   
    36   13   14 2   
    37   14   15 1   
    38   14   44 1   
    39   15   16 1   
    40   15   45 1   
    41   15   46 1   
    42   16   17 1   
    43   16   47 1   
    44   17   18 1   
    45   17   48 1   
    46   18   19 1   
    47   18   49 1   
    48   18   50 1   
    49   19   20 1   
    50   19   51 1   
    51   19   52 1   
    52   20   21 1   
    53   20   22 1   
    54   21   53 1   
    55   22   23 2   
    56   22   24 1   
    57   24   54 1   
    58   24   55 1   
    59   24   56 1   
@<TRIPOS>SUBSTRUCTURE
     1 LZZ         1 TEMP              0 ****  ****    0 ROOT
