@<TRIPOS>MOLECULE
K00
   32    32     1     0     0
SMALL
bcc


@<TRIPOS>ATOM
      1 O5         -0.1810    0.4340    0.2270 oh        1 K00     -0.604800
      2 C5          1.2100    0.1670    0.1180 c3        1 K00      0.086100
      3 C4          1.8560    0.0920    1.5130 c3        1 K00      0.063100
      4 O4          1.3120   -1.0080    2.2230 oh        1 K00     -0.615800
      5 C3          3.3950    0.0030    1.3840 c3        1 K00      0.132600
      6 F1          3.7440   -1.2370    0.8700 f         1 K00     -0.243300
      7 C2          3.8670    1.1860    0.5190 c3        1 K00     -0.019900
      8 C1          5.4230    1.2140    0.3530 c         1 K00      0.940600
      9 O1B         5.9090    1.3990   -0.7870 o         1 K00     -0.812300
     10 O1A         6.0630    1.0890    1.4320 o         1 K00     -0.812300
     11 O6          3.2580    1.1450   -0.7630 os        1 K00     -0.386600
     12 C6          1.8390    1.2930   -0.7160 c3        1 K00      0.103100
     13 C7          1.3820    1.2150   -2.1830 c3        1 K00      0.166100
     14 O7          1.8500    0.0360   -2.8090 oh        1 K00     -0.615800
     15 C8          1.8920    2.4580   -2.9370 c3        1 K00      0.066100
     16 O8          1.0590    3.5430   -2.5490 oh        1 K00     -0.601800
     17 C9          1.8360    2.2630   -4.4530 c3        1 K00      0.094400
     18 O9          2.3850    3.3900   -5.1160 oh        1 K00     -0.620800
     19 H2          3.5660    2.1320    1.0490 h1        1 K00      0.034700
     20 H5         -0.5120   -0.1580    0.9150 ho        1 K00      0.406000
     21 HA          1.3600   -0.8150   -0.4140 h1        1 K00      0.058700
     22 HB          1.5740    0.9950    2.1210 h1        1 K00      0.084700
     23 H6          1.5600    2.2930   -0.2880 h1        1 K00      0.066700
     24 H4          1.7380   -1.8040    1.8770 ho        1 K00      0.410000
     25 H3          3.8770    0.1030    2.3990 h1        1 K00      0.089700
     26 H7          0.2600    1.1560   -2.2250 h1        1 K00      0.090700
     27 HC          2.7900   -0.0530   -2.5900 ho        1 K00      0.434000
     28 H8          2.9540    2.6710   -2.6210 h1        1 K00      0.077700
     29 HD          1.3100    4.2850   -3.1150 ho        1 K00      0.404000
     30 H91C        2.3810    1.3270   -4.7420 h1        1 K00      0.060700
     31 H92C        0.7730    2.2130   -4.8080 h1        1 K00      0.060700
     32 H9          3.3160    3.4390   -4.8650 ho        1 K00      0.404000
@<TRIPOS>BOND
     1    1    2 1   
     2    1   20 1   
     3    2    3 1   
     4    2   12 1   
     5    2   21 1   
     6    3    4 1   
     7    3    5 1   
     8    3   22 1   
     9    4   24 1   
    10    5    6 1   
    11    5    7 1   
    12    5   25 1   
    13    7    8 1   
    14    7   11 1   
    15    7   19 1   
    16    8    9 1   
    17    8   10 1   
    18   11   12 1   
    19   12   13 1   
    20   12   23 1   
    21   13   14 1   
    22   13   15 1   
    23   13   26 1   
    24   14   27 1   
    25   15   16 1   
    26   15   17 1   
    27   15   28 1   
    28   16   29 1   
    29   17   18 1   
    30   17   30 1   
    31   17   31 1   
    32   18   32 1   
@<TRIPOS>SUBSTRUCTURE
     1 K00         1 TEMP              0 ****  ****    0 ROOT
