@<TRIPOS>MOLECULE
K00
   32    32     1     0     0
SMALL
bcc


@<TRIPOS>ATOM
      1 O5         -0.1810    0.4200    0.2130 oh        1 K00     -0.604800
      2 C5          1.2120    0.1610    0.1060 c3        1 K00      0.086100
      3 C4          1.8530    0.0830    1.5020 c3        1 K00      0.063100
      4 O4          1.3130   -1.0230    2.2060 oh        1 K00     -0.615800
      5 C3          3.3930    0.0020    1.3780 c3        1 K00      0.132600
      6 F1          3.7500   -1.2340    0.8600 f         1 K00     -0.243300
      7 C2          3.8620    1.1900    0.5190 c3        1 K00     -0.019900
      8 C1          5.4180    1.2260    0.3580 c         1 K00      0.940600
      9 O1B         5.9070    1.4200   -0.7800 o         1 K00     -0.812300
     10 O1A         6.0560    1.0990    1.4380 o         1 K00     -0.812300
     11 O6          3.2570    1.1510   -0.7640 os        1 K00     -0.386600
     12 C6          1.8370    1.2930   -0.7210 c3        1 K00      0.103100
     13 C7          1.3850    1.2190   -2.1900 c3        1 K00      0.166100
     14 O7          1.8600    0.0450   -2.8200 oh        1 K00     -0.615800
     15 C8          1.8910    2.4680   -2.9370 c3        1 K00      0.066100
     16 O8          1.0510    3.5480   -2.5470 oh        1 K00     -0.601800
     17 C9          1.8410    2.2800   -4.4540 c3        1 K00      0.094400
     18 O9          2.3860    3.4120   -5.1110 oh        1 K00     -0.620800
     19 H2          3.5550    2.1330    1.0530 h1        1 K00      0.034700
     20 H5         -0.5110   -0.1770    0.8970 ho        1 K00      0.406000
     21 HA          1.3680   -0.8190   -0.4300 h1        1 K00      0.058700
     22 HB          1.5660    0.9810    2.1140 h1        1 K00      0.084700
     23 H6          1.5520    2.2900   -0.2900 h1        1 K00      0.066700
     24 H4          1.7430   -1.8160    1.8580 ho        1 K00      0.410000
     25 H3          3.8720    0.0990    2.3950 h1        1 K00      0.089700
     26 H7          0.2630    1.1550   -2.2350 h1        1 K00      0.090700
     27 HC          2.8000   -0.0400   -2.5980 ho        1 K00      0.434000
     28 H8          2.9510    2.6850   -2.6170 h1        1 K00      0.077700
     29 HD          1.3010    4.2930   -3.1080 ho        1 K00      0.404000
     30 H91C        2.3900    1.3470   -4.7450 h1        1 K00      0.060700
     31 H92C        0.7790    2.2260   -4.8120 h1        1 K00      0.060700
     32 H9          3.3150    3.4650   -4.8560 ho        1 K00      0.404000
@<TRIPOS>BOND
     1    1    2 1   
     2    1   20 1   
     3    2    3 1   
     4    2   12 1   
     5    2   21 1   
     6    3    4 1   
     7    3    5 1   
     8    3   22 1   
     9    4   24 1   
    10    5    6 1   
    11    5    7 1   
    12    5   25 1   
    13    7    8 1   
    14    7   11 1   
    15    7   19 1   
    16    8    9 1   
    17    8   10 1   
    18   11   12 1   
    19   12   13 1   
    20   12   23 1   
    21   13   14 1   
    22   13   15 1   
    23   13   26 1   
    24   14   27 1   
    25   15   16 1   
    26   15   17 1   
    27   15   28 1   
    28   16   29 1   
    29   17   18 1   
    30   17   30 1   
    31   17   31 1   
    32   18   32 1   
@<TRIPOS>SUBSTRUCTURE
     1 K00         1 TEMP              0 ****  ****    0 ROOT
