@<TRIPOS>MOLECULE
K00
   32    32     1     0     0
SMALL
bcc


@<TRIPOS>ATOM
      1 O5         -2.0720   -1.0300    0.9800 oh        1 K00     -0.604800
      2 C5         -0.6770   -1.0440    0.9390 c3        1 K00      0.086100
      3 C4         -0.1710   -1.0230    2.3300 c3        1 K00      0.063100
      4 O4         -0.6110   -2.3070    3.0280 oh        1 K00     -0.615800
      5 C3          1.2230   -0.9270    2.4230 c3        1 K00      0.132600
      6 F1          1.7940   -2.1640    1.9370 f         1 K00     -0.243300
      7 C2          1.8240    0.1980    1.6570 c3        1 K00     -0.019900
      8 C1          3.3400    0.1740    1.7550 c         1 K00      0.940600
      9 O1B         4.0170   -0.5990    0.9950 o         1 K00     -0.812300
     10 O1A         3.9330    0.9410    2.5670 o         1 K00     -0.812300
     11 O6          1.3420    0.1760    0.2240 os        1 K00     -0.386600
     12 C6         -0.1970    0.1710    0.0380 c3        1 K00      0.103100
     13 C7         -0.5260   -0.0330   -1.2770 c3        1 K00      0.166100
     14 O7          0.6070   -0.7210   -1.9760 oh        1 K00     -0.615800
     15 C8         -0.7910    1.3220   -1.9500 c3        1 K00      0.066100
     16 O8         -1.8530    1.9760   -1.2900 oh        1 K00     -0.601800
     17 C9         -1.1520    1.1060   -3.3880 c3        1 K00      0.094400
     18 O9         -1.4330    2.3880   -4.0140 oh        1 K00     -0.620800
     19 H2          1.6220    1.0600    2.0740 h1        1 K00      0.034700
     20 H5         -2.3650   -1.7380    1.4580 ho        1 K00      0.406000
     21 HA         -0.3760   -1.9130    0.4980 h1        1 K00      0.058700
     22 HB         -0.5700   -0.2620    2.7960 h1        1 K00      0.084700
     23 H6         -0.5950    1.0400    0.3730 h1        1 K00      0.066700
     24 H4         -0.8470   -2.1160    3.9130 ho        1 K00      0.410000
     25 H3          1.4740   -0.8170    3.4050 h1        1 K00      0.089700
     26 H7         -1.3590   -0.6090   -1.3340 h1        1 K00      0.090700
     27 HC          0.2970   -1.3890   -2.4440 ho        1 K00      0.434000
     28 H8         -0.0080    1.8580   -1.8980 h1        1 K00      0.077700
     29 HD         -1.9360    2.8020   -1.6070 ho        1 K00      0.404000
     30 H91C       -0.4060    0.6740   -3.8510 h1        1 K00      0.060700
     31 H92C       -1.9390    0.5390   -3.4440 h1        1 K00      0.060700
     32 H9         -1.5890    2.2640   -4.9170 ho        1 K00      0.404000
@<TRIPOS>BOND
     1    1    2 1   
     2    1   20 1   
     3    2    3 1   
     4    2   12 1   
     5    2   21 1   
     6    3    4 1   
     7    3    5 1   
     8    3   22 1   
     9    4   24 1   
    10    5    6 1   
    11    5    7 1   
    12    5   25 1   
    13    7    8 1   
    14    7   11 1   
    15    7   19 1   
    16    8    9 1   
    17    8   10 1   
    18   11   12 1   
    19   12   13 1   
    20   12   23 1   
    21   13   14 1   
    22   13   15 1   
    23   13   26 1   
    24   14   27 1   
    25   15   16 1   
    26   15   17 1   
    27   15   28 1   
    28   16   29 1   
    29   17   18 1   
    30   17   30 1   
    31   17   31 1   
    32   18   32 1   
@<TRIPOS>SUBSTRUCTURE
     1 K00         1 TEMP              0 ****  ****    0 ROOT
