@<TRIPOS>MOLECULE
K00
   32    32     1     0     0
SMALL
bcc


@<TRIPOS>ATOM
      1 O5          0.0020    2.8690   -0.9720 oh        1 K00     -0.610800
      2 C5          0.5570    1.7780   -0.2500 c3        1 K00      0.085100
      3 C4          1.9730    1.4580   -0.7570 c3        1 K00      0.064100
      4 O4          2.8240    2.5620   -0.5000 oh        1 K00     -0.615800
      5 C3          2.4870    0.1550   -0.0990 c3        1 K00      0.132600
      6 F1          2.7380    0.3850    1.2450 f         1 K00     -0.243300
      7 C2          1.4480   -0.9510   -0.3560 c3        1 K00     -0.020900
      8 C1          1.8970   -2.3220    0.2520 c         1 K00      0.940600
      9 O1B         1.0980   -2.9620    0.9740 o         1 K00     -0.810300
     10 O1A         3.0550   -2.6830   -0.0930 o         1 K00     -0.810300
     11 O6          0.1800   -0.5910    0.1740 os        1 K00     -0.381600
     12 C6         -0.3740    0.5710   -0.4390 c3        1 K00      0.102100
     13 C7         -1.7180    0.8040    0.2710 c3        1 K00      0.134100
     14 O7         -1.5860    0.7620    1.6770 oh        1 K00     -0.611800
     15 C8         -2.7410   -0.2430   -0.2070 c3        1 K00      0.063100
     16 O8         -3.1160   -0.0090   -1.5540 oh        1 K00     -0.599800
     17 C9         -3.9910   -0.2540    0.6830 c3        1 K00      0.098400
     18 O9         -5.1710   -0.1110   -0.0870 oh        1 K00     -0.617800
     19 H2          1.3640   -1.0830   -1.4710 h1        1 K00      0.035700
     20 H5          0.6990    3.5360   -1.0230 ho        1 K00      0.409000
     21 HA          0.6030    2.0410    0.8450 h1        1 K00      0.060700
     22 HB          1.9720    1.3480   -1.8750 h1        1 K00      0.084700
     23 H6         -0.5520    0.3920   -1.5340 h1        1 K00      0.062700
     24 H4          3.0540    2.5290    0.4380 ho        1 K00      0.411000
     25 H3          3.4570   -0.1660   -0.5800 h1        1 K00      0.089700
     26 H7         -2.0830    1.8440    0.0410 h1        1 K00      0.075700
     27 HC         -1.0570   -0.0210    1.8970 ho        1 K00      0.440000
     28 H8         -2.2510   -1.2590   -0.2240 h1        1 K00      0.113700
     29 HD         -3.5060    0.8750   -1.5910 ho        1 K00      0.401000
     30 H91C       -4.0340   -1.2070    1.2720 h1        1 K00      0.056200
     31 H92C       -3.9970    0.6180    1.3890 h1        1 K00      0.056200
     32 H9         -5.1180   -0.7490   -0.8120 ho        1 K00      0.407000
@<TRIPOS>BOND
     1    1    2 1   
     2    1   20 1   
     3    2    3 1   
     4    2   12 1   
     5    2   21 1   
     6    3    4 1   
     7    3    5 1   
     8    3   22 1   
     9    4   24 1   
    10    5    6 1   
    11    5    7 1   
    12    5   25 1   
    13    7    8 1   
    14    7   11 1   
    15    7   19 1   
    16    8    9 1   
    17    8   10 1   
    18   11   12 1   
    19   12   13 1   
    20   12   23 1   
    21   13   14 1   
    22   13   15 1   
    23   13   26 1   
    24   14   27 1   
    25   15   16 1   
    26   15   17 1   
    27   15   28 1   
    28   16   29 1   
    29   17   18 1   
    30   17   30 1   
    31   17   31 1   
    32   18   32 1   
@<TRIPOS>SUBSTRUCTURE
     1 K00         1 TEMP              0 ****  ****    0 ROOT
