@<TRIPOS>MOLECULE
K01
   48    50     1     0     0
SMALL
bcc


@<TRIPOS>ATOM
      1 O21         3.2090    0.6580   -0.7110 o         1 K01     -0.534100
      2 C15         2.5600   -0.2410   -0.1790 c         1 K01      0.658700
      3 C16         2.1200   -0.3860    1.1620 cc        1 K01     -0.331700
      4 S17         1.2090   -1.6240    1.8630 ss        1 K01      0.130200
      5 C18         1.2330   -0.9520    3.3660 cc        1 K01     -0.049100
      6 C19         1.9350    0.2500    3.4030 cd        1 K01     -0.161000
      7 C20         2.4520    0.5860    2.1360 cd        1 K01      0.010000
      8 N14         2.2190   -1.4000   -1.1410 n4        1 K01     -0.509200
      9 C13         1.4720   -0.9730   -2.2940 cc        1 K01     -0.167500
     10 S12        -0.1250   -1.3450   -2.5880 ss        1 K01      0.338200
     11 C7         -0.1450   -0.6540   -4.0770 cc        1 K01     -0.080400
     12 C6          1.0870   -0.0650   -4.4160 cd        1 K01     -0.041300
     13 C11         1.3010    0.5850   -5.7280 c3        1 K01     -0.038100
     14 C10         0.2870    0.1020   -6.7530 c3        1 K01     -0.082400
     15 C9         -1.1200    0.1950   -6.2050 c3        1 K01     -0.080400
     16 C8         -1.3090   -0.6940   -4.9880 c3        1 K01     -0.035100
     17 C5          2.0290   -0.2330   -3.3740 cd        1 K01     -0.155600
     18 C4          3.4560    0.1050   -3.3650 c         1 K01      0.597700
     19 O22         4.3350   -0.7360   -3.1850 o         1 K01     -0.448100
     20 N3          3.9330    1.5320   -3.4340 n4        1 K01     -0.582200
     21 C2          5.1440    1.6470   -4.3300 c3        1 K01      0.114800
     22 C1          4.9330    1.1860   -5.7530 c3        1 K01     -0.135600
     23 C23         2.8960    2.5620   -3.7610 c3        1 K01      0.114800
     24 C24         3.1920    3.9120   -3.1360 c3        1 K01     -0.135600
     25 H18         0.7460   -1.4100    4.2370 h4        1 K01      0.226000
     26 H19         2.0750    0.8620    4.3030 ha        1 K01      0.211000
     27 H20         3.0440    1.4860    1.9270 ha        1 K01      0.193000
     28 HN14        1.6960   -2.1310   -0.6440 hn        1 K01      0.472300
     29 H111        2.3420    0.3860   -6.0980 hc        1 K01      0.063700
     30 H112        1.1790    1.6980   -5.6070 hc        1 K01      0.063700
     31 H101        0.3750    0.7320   -7.6770 hc        1 K01      0.076700
     32 H102        0.5160   -0.9570   -7.0450 hc        1 K01      0.076700
     33 H91        -1.3520    1.2590   -5.9350 hc        1 K01      0.076700
     34 H92        -1.8540   -0.1170   -6.9960 hc        1 K01      0.076700
     35 H81        -2.2440   -0.3850   -4.4450 hc        1 K01      0.090700
     36 H82        -1.4580   -1.7580   -5.3320 hc        1 K01      0.090700
     37 H21         5.4520    2.7330   -4.3140 hx        1 K01      0.110200
     38 H22         5.9610    1.0270   -3.8530 hx        1 K01      0.110200
     39 H11         4.6250    0.1130   -5.7970 hc        1 K01      0.083033
     40 H12         4.1820    1.8090   -6.2970 hc        1 K01      0.083033
     41 H13         5.9140    1.2850   -6.2910 hc        1 K01      0.083033
     42 H231        2.8510    2.6620   -4.8840 hx        1 K01      0.110200
     43 H232        1.8990    2.1910   -3.3880 hx        1 K01      0.110200
     44 H241        2.3590    4.6080   -3.4150 hc        1 K01      0.083033
     45 H242        3.2370    3.8530   -2.0210 hc        1 K01      0.083033
     46 H243        4.1480    4.3500   -3.5160 hc        1 K01      0.083033
     47 H142        3.1130   -1.8060   -1.4720 hn        1 K01      0.472300
     48 H31         4.2620    1.7400   -2.4700 hn        1 K01      0.475800
@<TRIPOS>BOND
     1    1    2 2   
     2    2    3 1   
     3    2    8 1   
     4    3    4 1   
     5    3    7 2   
     6    4    5 1   
     7    5    6 2   
     8    5   25 1   
     9    6    7 1   
    10    6   26 1   
    11    7   27 1   
    12    8    9 1   
    13    8   28 1   
    14    8   47 1   
    15    9   10 1   
    16    9   17 2   
    17   10   11 1   
    18   11   12 2   
    19   11   16 1   
    20   12   13 1   
    21   12   17 1   
    22   13   14 1   
    23   13   29 1   
    24   13   30 1   
    25   14   15 1   
    26   14   31 1   
    27   14   32 1   
    28   15   16 1   
    29   15   33 1   
    30   15   34 1   
    31   16   35 1   
    32   16   36 1   
    33   17   18 1   
    34   18   19 2   
    35   18   20 1   
    36   20   21 1   
    37   20   23 1   
    38   20   48 1   
    39   21   22 1   
    40   21   37 1   
    41   21   38 1   
    42   22   39 1   
    43   22   40 1   
    44   22   41 1   
    45   23   24 1   
    46   23   42 1   
    47   23   43 1   
    48   24   44 1   
    49   24   45 1   
    50   24   46 1   
@<TRIPOS>SUBSTRUCTURE
     1 K01         1 TEMP              0 ****  ****    0 ROOT
