@<TRIPOS>MOLECULE
K01
   47    49     1     0     0
SMALL
bcc


@<TRIPOS>ATOM
      1 O21         2.2390    1.2260   -0.8040 o         1 K01     -0.648100
      2 C15         2.2250    0.0280   -0.4410 c         1 K01      0.740700
      3 C16         2.6630   -0.3940    0.8840 cc        1 K01     -0.257700
      4 S17         2.9060   -1.9720    1.4160 ss        1 K01      0.081200
      5 C18         3.3520   -1.5070    2.9440 cc        1 K01     -0.117100
      6 C19         3.3300   -0.1330    3.1000 cd        1 K01     -0.168000
      7 C20         2.9300    0.5200    1.9020 cd        1 K01     -0.050000
      8 N14         1.8240   -0.9740   -1.3330 ns        1 K01     -0.468100
      9 C13         1.1070   -0.7400   -2.5020 cc        1 K01      0.057500
     10 S12        -0.5220   -1.1790   -2.6680 ss        1 K01      0.134200
     11 C7         -0.6180   -0.7210   -4.2630 cc        1 K01     -0.095400
     12 C6          0.5790   -0.1960   -4.7260 cd        1 K01     -0.063300
     13 C11         0.7640    0.2970   -6.1080 c3        1 K01     -0.027100
     14 C10        -0.3310   -0.2180   -7.0270 c3        1 K01     -0.076400
     15 C9         -1.7000   -0.0750   -6.3950 c3        1 K01     -0.076400
     16 C8         -1.8140   -0.8830   -5.1130 c3        1 K01     -0.015100
     17 C5          1.5830   -0.2070   -3.7070 cd        1 K01     -0.234600
     18 C4          2.9490    0.2300   -3.9810 c         1 K01      0.614700
     19 O22         3.8070   -0.3400   -4.6370 o         1 K01     -0.416100
     20 N3          3.2920    1.5950   -3.4010 nx        1 K01     -0.600200
     21 C2          4.5710    1.5770   -2.6220 c3        1 K01      0.119300
     22 C1          5.8470    1.5340   -3.4330 c3        1 K01     -0.128100
     23 C23         3.2820    2.6160   -4.4940 c3        1 K01      0.119300
     24 C24         3.3760    4.0430   -3.9930 c3        1 K01     -0.128100
     25 H18         3.6290   -2.2210    3.7240 h4        1 K01      0.195000
     26 H19         3.5830    0.4000    4.0210 ha        1 K01      0.179000
     27 H20         2.8370    1.6060    1.7930 ha        1 K01      0.178000
     28 HN14        1.7780   -1.9110   -0.9890 hn        1 K01      0.336500
     29 H111        1.7680   -0.0230   -6.4990 hc        1 K01      0.054200
     30 H112        0.7400    1.4220   -6.1020 hc        1 K01      0.054200
     31 H101       -0.2990    0.3540   -7.9910 hc        1 K01      0.061200
     32 H102       -0.1390   -1.2970   -7.2680 hc        1 K01      0.061200
     33 H91        -2.4850   -0.4250   -7.1160 hc        1 K01      0.059200
     34 H92        -1.9010    1.0060   -6.1760 hc        1 K01      0.059200
     35 H81        -1.9320   -1.9730   -5.3700 hc        1 K01      0.070700
     36 H82        -2.7380   -0.5690   -4.5560 hc        1 K01      0.070700
     37 H21         4.5630    2.5020   -1.9730 hx        1 K01      0.097450
     38 H22         4.5140    0.6770   -1.9430 hx        1 K01      0.097450
     39 H11         6.7000    1.4030   -2.7200 hc        1 K01      0.074367
     40 H12         6.0070    2.4860   -3.9950 hc        1 K01      0.074367
     41 H13         5.8570    0.6800   -4.1540 hc        1 K01      0.074367
     42 H231        4.1400    2.3850   -5.1880 hx        1 K01      0.097450
     43 H232        2.3160    2.4780   -5.0630 hx        1 K01      0.097450
     44 H241        3.2720    4.7260   -4.8740 hc        1 K01      0.074367
     45 H242        4.3630    4.2410   -3.5090 hc        1 K01      0.074367
     46 H243        2.5620    4.2810   -3.2660 hc        1 K01      0.074367
     47 H31         2.5390    1.8360   -2.7250 hn        1 K01      0.487800
@<TRIPOS>BOND
     1    1    2 2   
     2    2    3 1   
     3    2    8 1   
     4    3    4 1   
     5    3    7 2   
     6    4    5 1   
     7    5    6 2   
     8    5   25 1   
     9    6    7 1   
    10    6   26 1   
    11    7   27 1   
    12    8    9 1   
    13    8   28 1   
    14    9   10 1   
    15    9   17 2   
    16   10   11 1   
    17   11   12 2   
    18   11   16 1   
    19   12   13 1   
    20   12   17 1   
    21   13   14 1   
    22   13   29 1   
    23   13   30 1   
    24   14   15 1   
    25   14   31 1   
    26   14   32 1   
    27   15   16 1   
    28   15   33 1   
    29   15   34 1   
    30   16   35 1   
    31   16   36 1   
    32   17   18 1   
    33   18   19 2   
    34   18   20 1   
    35   20   21 1   
    36   20   23 1   
    37   20   47 1   
    38   21   22 1   
    39   21   37 1   
    40   21   38 1   
    41   22   39 1   
    42   22   40 1   
    43   22   41 1   
    44   23   24 1   
    45   23   42 1   
    46   23   43 1   
    47   24   44 1   
    48   24   45 1   
    49   24   46 1   
@<TRIPOS>SUBSTRUCTURE
     1 K01         1 TEMP              0 ****  ****    0 ROOT
