@<TRIPOS>MOLECULE
K01
   47    49     1     0     0
SMALL
bcc


@<TRIPOS>ATOM
      1 O21         2.2200    1.2200   -0.8020 o         1 K01     -0.648100
      2 C15         2.2190    0.0210   -0.4420 c         1 K01      0.740700
      3 C16         2.6560   -0.4010    0.8840 cc        1 K01     -0.257700
      4 S17         2.9150   -1.9770    1.4120 ss        1 K01      0.081200
      5 C18         3.3480   -1.5120    2.9430 cc        1 K01     -0.117100
      6 C19         3.3090   -0.1390    3.1030 cd        1 K01     -0.168000
      7 C20         2.9080    0.5140    1.9050 cd        1 K01     -0.050000
      8 N14         1.8330   -0.9830   -1.3390 n         1 K01     -0.468100
      9 C13         1.1200   -0.7540   -2.5110 cc        1 K01      0.057500
     10 S12        -0.5030   -1.2110   -2.6860 ss        1 K01      0.134200
     11 C7         -0.5970   -0.7480   -4.2800 cc        1 K01     -0.095400
     12 C6          0.5970   -0.2080   -4.7360 cd        1 K01     -0.063300
     13 C11         0.7820    0.2910   -6.1160 c3        1 K01     -0.027100
     14 C10        -0.3020   -0.2330   -7.0420 c3        1 K01     -0.076400
     15 C9         -1.6750   -0.1080   -6.4160 c3        1 K01     -0.076400
     16 C8         -1.7870   -0.9220   -5.1370 c3        1 K01     -0.015100
     17 C5          1.5960   -0.2110   -3.7120 cd        1 K01     -0.234600
     18 C4          2.9570    0.2420   -3.9780 c         1 K01      0.614700
     19 O22         3.8250   -0.3160   -4.6320 o         1 K01     -0.416100
     20 N3          3.2820    1.6100   -3.3920 n4        1 K01     -0.600200
     21 C2          4.5570    1.6040   -2.6070 c3        1 K01      0.119300
     22 C1          5.8380    1.5790   -3.4110 c3        1 K01     -0.128100
     23 C23         3.2650    2.6350   -4.4810 c3        1 K01      0.119300
     24 C24         3.3400    4.0600   -3.9760 c3        1 K01     -0.128100
     25 H18         3.6290   -2.2250    3.7220 h4        1 K01      0.195000
     26 H19         3.5510    0.3940    4.0280 ha        1 K01      0.179000
     27 H20         2.8020    1.5980    1.7990 ha        1 K01      0.178000
     28 HN14        1.7970   -1.9220   -0.9990 hn        1 K01      0.336500
     29 H111        1.7910   -0.0150   -6.5020 hc        1 K01      0.054200
     30 H112        0.7460    1.4160   -6.1060 hc        1 K01      0.054200
     31 H101       -0.0970   -1.3090   -7.2850 hc        1 K01      0.061200
     32 H102       -0.2720    0.3430   -8.0030 hc        1 K01      0.061200
     33 H91        -2.4530   -0.4650   -7.1420 hc        1 K01      0.059200
     34 H92        -1.8900    0.9700   -6.1940 hc        1 K01      0.059200
     35 H81        -2.7160   -0.6200   -4.5840 hc        1 K01      0.070700
     36 H82        -1.8910   -2.0120   -5.3990 hc        1 K01      0.070700
     37 H21         4.5350    2.5270   -1.9540 hx        1 K01      0.097450
     38 H22         4.5070    0.7010   -1.9310 hx        1 K01      0.097450
     39 H11         5.8610    0.7270   -4.1340 hc        1 K01      0.074367
     40 H12         5.9890    2.5340   -3.9700 hc        1 K01      0.074367
     41 H13         6.6890    1.4560   -2.6950 hc        1 K01      0.074367
     42 H231        2.3040    2.4860   -5.0560 hx        1 K01      0.097450
     43 H232        4.1300    2.4160   -5.1720 hx        1 K01      0.097450
     44 H241        2.5190    4.2870   -3.2530 hc        1 K01      0.074367
     45 H242        3.2330    4.7450   -4.8550 hc        1 K01      0.074367
     46 H243        4.3220    4.2690   -3.4860 hc        1 K01      0.074367
     47 H31         2.5230    1.8390   -2.7190 hn        1 K01      0.487800
@<TRIPOS>BOND
     1    1    2 2   
     2    2    3 1   
     3    2    8 1   
     4    3    4 1   
     5    3    7 2   
     6    4    5 1   
     7    5    6 2   
     8    5   25 1   
     9    6    7 1   
    10    6   26 1   
    11    7   27 1   
    12    8    9 1   
    13    8   28 1   
    14    9   10 1   
    15    9   17 2   
    16   10   11 1   
    17   11   12 2   
    18   11   16 1   
    19   12   13 1   
    20   12   17 1   
    21   13   14 1   
    22   13   29 1   
    23   13   30 1   
    24   14   15 1   
    25   14   31 1   
    26   14   32 1   
    27   15   16 1   
    28   15   33 1   
    29   15   34 1   
    30   16   35 1   
    31   16   36 1   
    32   17   18 1   
    33   18   19 2   
    34   18   20 1   
    35   20   21 1   
    36   20   23 1   
    37   20   47 1   
    38   21   22 1   
    39   21   37 1   
    40   21   38 1   
    41   22   39 1   
    42   22   40 1   
    43   22   41 1   
    44   23   24 1   
    45   23   42 1   
    46   23   43 1   
    47   24   44 1   
    48   24   45 1   
    49   24   46 1   
@<TRIPOS>SUBSTRUCTURE
     1 K01         1 TEMP              0 ****  ****    0 ROOT
