@<TRIPOS>MOLECULE
K01
   46    48     1     0     0
SMALL
bcc


@<TRIPOS>ATOM
      1 O21         2.1400   -2.6760    0.2490 o         1 K01     -0.588100
      2 C15         2.3660   -1.5050   -0.1140 c         1 K01      0.711700
      3 C16         3.7230   -0.9990   -0.3430 cc        1 K01     -0.210700
      4 S17         4.1480    0.5130   -0.9390 ss        1 K01      0.083200
      5 C18         5.7780    0.2070   -0.8680 cc        1 K01     -0.155100
      6 C19         6.0490   -1.0600   -0.3890 cd        1 K01     -0.172000
      7 C20         4.8510   -1.7680   -0.0820 cd        1 K01     -0.076000
      8 N14         1.3190   -0.6060   -0.3100 n         1 K01     -0.442100
      9 C13        -0.0220   -0.9270   -0.1750 cc        1 K01      0.078500
     10 S12        -0.6510   -2.4840    0.0420 ss        1 K01      0.126200
     11 C7         -2.2380   -1.9660   -0.0020 cc        1 K01     -0.171400
     12 C6         -2.3410   -0.5930   -0.1610 cd        1 K01     -0.048300
     13 C11        -3.6370    0.1090   -0.2770 c3        1 K01     -0.017100
     14 C10        -4.7730   -0.8610   -0.5510 c3        1 K01     -0.074400
     15 C9         -4.6860   -2.0880    0.3330 c3        1 K01     -0.071400
     16 C8         -3.4040   -2.8650    0.0840 c3        1 K01      0.004900
     17 C5         -1.0550    0.0240   -0.2290 cd        1 K01     -0.236600
     18 C4         -0.7850    1.4620   -0.4340 c         1 K01      0.706700
     19 O22        -0.0700    1.8360   -1.3930 o         1 K01     -0.633100
     20 N3         -1.3200    2.3980    0.4430 n         1 K01     -0.469800
     21 C2         -1.1980    3.8110    0.1470 c3        1 K01      0.087000
     22 C1         -2.5130    4.4860   -0.2190 c3        1 K01     -0.114100
     23 C23        -1.7680    2.0460    1.7690 c3        1 K01      0.087000
     24 C24        -0.7610    2.2940    2.8860 c3        1 K01     -0.114100
     25 H18         6.5290    0.9360   -1.1710 h4        1 K01      0.178000
     26 H19         7.0470   -1.4840   -0.2560 ha        1 K01      0.162000
     27 H20         4.8180   -2.7900    0.3080 ha        1 K01      0.176000
     28 HN14        1.5100    0.3100   -0.6680 hn        1 K01      0.345500
     29 H111       -3.8450    0.6660    0.6780 hc        1 K01      0.054200
     30 H112       -3.5830    0.8710   -1.1000 hc        1 K01      0.054200
     31 H101       -5.7510   -0.3410   -0.3800 hc        1 K01      0.043700
     32 H102       -4.7420   -1.1770   -1.6270 hc        1 K01      0.043700
     33 H91        -4.7300   -1.7750    1.4090 hc        1 K01      0.042200
     34 H92        -5.5640   -2.7570    0.1390 hc        1 K01      0.042200
     35 H81        -3.5000   -3.4380   -0.8790 hc        1 K01      0.048700
     36 H82        -3.2590   -3.6160    0.9060 hc        1 K01      0.048700
     37 H21        -0.7640    4.3330    1.0490 h1        1 K01      0.056700
     38 H22        -0.4750    3.9460   -0.7090 h1        1 K01      0.056700
     39 H11        -3.2520    4.4190    0.6150 hc        1 K01      0.040533
     40 H12        -2.3120    5.5630   -0.4320 hc        1 K01      0.040533
     41 H13        -2.9630    4.0200   -1.1280 hc        1 K01      0.040533
     42 H231       -2.7000    2.6460    1.9850 h1        1 K01      0.056700
     43 H232       -2.0470    0.9540    1.7890 h1        1 K01      0.056700
     44 H241        0.1790    1.7170    2.7170 hc        1 K01      0.040533
     45 H242       -0.5010    3.3750    2.9730 hc        1 K01      0.040533
     46 H243       -1.2140    1.9610    3.8510 hc        1 K01      0.040533
@<TRIPOS>BOND
     1    1    2 2   
     2    2    3 1   
     3    2    8 1   
     4    3    4 1   
     5    3    7 2   
     6    4    5 1   
     7    5    6 2   
     8    5   25 1   
     9    6    7 1   
    10    6   26 1   
    11    7   27 1   
    12    8    9 1   
    13    8   28 1   
    14    9   10 1   
    15    9   17 2   
    16   10   11 1   
    17   11   12 2   
    18   11   16 1   
    19   12   13 1   
    20   12   17 1   
    21   13   14 1   
    22   13   29 1   
    23   13   30 1   
    24   14   15 1   
    25   14   31 1   
    26   14   32 1   
    27   15   16 1   
    28   15   33 1   
    29   15   34 1   
    30   16   35 1   
    31   16   36 1   
    32   17   18 1   
    33   18   19 2   
    34   18   20 1   
    35   20   21 1   
    36   20   23 1   
    37   21   22 1   
    38   21   37 1   
    39   21   38 1   
    40   22   39 1   
    41   22   40 1   
    42   22   41 1   
    43   23   24 1   
    44   23   42 1   
    45   23   43 1   
    46   24   44 1   
    47   24   45 1   
    48   24   46 1   
@<TRIPOS>SUBSTRUCTURE
     1 K01         1 TEMP              0 ****  ****    0 ROOT
