@<TRIPOS>MOLECULE
K02
   51    53     1     0     0
SMALL
bcc


@<TRIPOS>ATOM
      1 O1          0.0570    1.0900   -0.1040 o         1 K02     -0.460100
      2 C13         1.1190    0.6050    0.2700 c         1 K02      0.641700
      3 C14         1.6540    0.4590    1.5790 cc        1 K02     -0.330700
      4 S2          3.1140   -0.2260    2.0790 ss        1 K02      0.115200
      5 C15         2.8330    0.0590    3.6790 cc        1 K02     -0.054100
      6 C16         1.6140    0.6890    3.9040 cd        1 K02     -0.162000
      7 C17         0.9230    0.9250    2.6960 cd        1 K02      0.016000
      8 N2          2.0210    0.0700   -0.8650 n4        1 K02     -0.514200
      9 C12         1.4810    0.1540   -2.1980 cc        1 K02     -0.171500
     10 S1          0.0020    0.7710   -2.5940 ss        1 K02      0.533200
     11 C6          0.1500    0.4670   -4.1820 cc        1 K02     -0.171400
     12 C5          1.3760   -0.1370   -4.5220 cd        1 K02     -0.022300
     13 C11         1.6890   -0.4980   -5.9220 c3        1 K02     -0.047100
     14 C9          0.4600   -0.4810   -6.8320 c3        1 K02     -0.058700
     15 C10         0.8900   -0.5660   -8.2810 c3        1 K02     -0.102100
     16 C8         -0.3690    0.7680   -6.5880 c3        1 K02     -0.079400
     17 C7         -0.9050    0.7830   -5.1710 c3        1 K02     -0.029100
     18 C4          2.1820   -0.3110   -3.3630 cd        1 K02     -0.214600
     19 C3          3.5240   -0.8550   -3.2410 c         1 K02      0.593700
     20 O2          4.0840   -1.0910   -2.1630 o         1 K02     -0.513100
     21 N1          4.3390   -1.1370   -4.4720 n4        1 K02     -0.586200
     22 C2          5.7390   -0.6020   -4.3060 c3        1 K02      0.118300
     23 C1          6.5640   -0.6870   -5.5700 c3        1 K02     -0.134100
     24 C18         4.3170   -2.6110   -4.7950 c3        1 K02      0.118300
     25 C19         5.1310   -3.4880   -3.8700 c3        1 K02     -0.134100
     26 H2          2.2400   -0.9200   -0.6680 hn        1 K02      0.467300
     27 H17        -0.0600    1.4100    2.6280 ha        1 K02      0.200000
     28 H15         3.5390   -0.2240    4.4710 h4        1 K02      0.222000
     29 H16         1.2290    0.9710    4.8920 ha        1 K02      0.210000
     30 H7C1       -1.7300    0.0200   -5.0790 hc        1 K02      0.088200
     31 H7C2       -1.3570    1.7900   -4.9530 hc        1 K02      0.088200
     32 H111        2.1260   -1.5320   -5.9780 hc        1 K02      0.056200
     33 H112        2.4340    0.2410   -6.3330 hc        1 K02      0.056200
     34 H9         -0.1720   -1.3830   -6.5890 hc        1 K02      0.070700
     35 H101       -0.0100   -0.6300   -8.9410 hc        1 K02      0.055033
     36 H102        1.4770    0.3370   -8.5770 hc        1 K02      0.055033
     37 H103        1.5160   -1.4750   -8.4510 hc        1 K02      0.055033
     38 H8C1        0.2510    1.6820   -6.7790 hc        1 K02      0.077200
     39 H8C2       -1.2330    0.7920   -7.3060 hc        1 K02      0.077200
     40 H2C1        5.6390    0.4750   -3.9840 hx        1 K02      0.107450
     41 H2C2        6.2300   -1.1800   -3.4700 hx        1 K02      0.107450
     42 H181        3.2360   -2.9350   -4.7740 hx        1 K02      0.107450
     43 H182        4.7070   -2.7110   -5.8510 hx        1 K02      0.107450
     44 H1C1        7.5470   -0.1830   -5.3700 hc        1 K02      0.085200
     45 H1C2        6.7740   -1.7460   -5.8590 hc        1 K02      0.085200
     46 H1C3        6.0780   -0.1630   -6.4290 hc        1 K02      0.085200
     47 H191        4.8850   -3.3090   -2.7950 hc        1 K02      0.085200
     48 H192        4.8930   -4.5560   -4.1150 hc        1 K02      0.085200
     49 H193        6.2290   -3.3370   -4.0200 hc        1 K02      0.085200
     50 H22         2.9130    0.5870   -0.8400 hn        1 K02      0.467300
     51 H11         3.9180   -0.6400   -5.2710 hn        1 K02      0.461800
@<TRIPOS>BOND
     1    1    2 2   
     2    2    3 1   
     3    2    8 1   
     4    3    4 1   
     5    3    7 2   
     6    4    5 1   
     7    5    6 2   
     8    5   28 1   
     9    6    7 1   
    10    6   29 1   
    11    7   27 1   
    12    8    9 1   
    13    8   26 1   
    14    8   50 1   
    15    9   10 1   
    16    9   18 2   
    17   10   11 1   
    18   11   12 2   
    19   11   17 1   
    20   12   13 1   
    21   12   18 1   
    22   13   14 1   
    23   13   32 1   
    24   13   33 1   
    25   14   15 1   
    26   14   16 1   
    27   14   34 1   
    28   15   35 1   
    29   15   36 1   
    30   15   37 1   
    31   16   17 1   
    32   16   38 1   
    33   16   39 1   
    34   17   30 1   
    35   17   31 1   
    36   18   19 1   
    37   19   20 2   
    38   19   21 1   
    39   21   22 1   
    40   21   24 1   
    41   21   51 1   
    42   22   23 1   
    43   22   40 1   
    44   22   41 1   
    45   23   44 1   
    46   23   45 1   
    47   23   46 1   
    48   24   25 1   
    49   24   42 1   
    50   24   43 1   
    51   25   47 1   
    52   25   48 1   
    53   25   49 1   
@<TRIPOS>SUBSTRUCTURE
     1 K02         1 TEMP              0 ****  ****    0 ROOT
