@<TRIPOS>MOLECULE
K02
   51    53     1     0     0
SMALL
bcc


@<TRIPOS>ATOM
      1 O1          0.0350    1.0700   -0.1130 o         1 K02     -0.460100
      2 C13         1.1040    0.6030    0.2640 c         1 K02      0.641700
      3 C14         1.6430    0.4790    1.5730 cc        1 K02     -0.330700
      4 S2          3.1120   -0.1820    2.0780 ss        1 K02      0.115200
      5 C15         2.8310    0.1190    3.6760 cc        1 K02     -0.054100
      6 C16         1.6050    0.7360    3.8950 cd        1 K02     -0.162000
      7 C17         0.9080    0.9500    2.6870 cd        1 K02      0.016000
      8 N2          2.0100    0.0650   -0.8660 n4        1 K02     -0.514200
      9 C12         1.4690    0.1320   -2.2000 cc        1 K02     -0.171500
     10 S1         -0.0210    0.7220   -2.6000 ss        1 K02      0.533200
     11 C6          0.1330    0.4100   -4.1860 cc        1 K02     -0.171400
     12 C5          1.3680   -0.1760   -4.5220 cd        1 K02     -0.022300
     13 C11         1.6870   -0.5410   -5.9200 c3        1 K02     -0.047100
     14 C9          0.4580   -0.5490   -6.8300 c3        1 K02     -0.058700
     15 C10         0.8900   -0.6370   -8.2780 c3        1 K02     -0.102100
     16 C8         -0.3920    0.6870   -6.5940 c3        1 K02     -0.079400
     17 C7         -0.9280    0.7020   -5.1760 c3        1 K02     -0.029100
     18 C4          2.1760   -0.3290   -3.3620 cd        1 K02     -0.214600
     19 C3          3.5280   -0.8510   -3.2370 c         1 K02      0.593700
     20 O2          4.0910   -1.0710   -2.1580 o         1 K02     -0.513100
     21 N1          4.3470   -1.1270   -4.4660 n4        1 K02     -0.586200
     22 C2          5.7380   -0.5680   -4.3030 c3        1 K02      0.118300
     23 C1          6.5650   -0.6490   -5.5670 c3        1 K02     -0.134100
     24 C18         4.3490   -2.6030   -4.7790 c3        1 K02      0.118300
     25 C19         5.1770   -3.4620   -3.8480 c3        1 K02     -0.134100
     26 H2          2.8970    0.5900   -0.8470 hn        1 K02      0.467300
     27 H17        -0.0800    1.4220    2.6150 ha        1 K02      0.200000
     28 H15         3.5420   -0.1450    4.4700 h4        1 K02      0.222000
     29 H16         1.2180    1.0250    4.8810 ha        1 K02      0.210000
     30 H7C1       -1.7400   -0.0740   -5.0800 hc        1 K02      0.088200
     31 H7C2       -1.3960    1.7030   -4.9650 hc        1 K02      0.088200
     32 H111        2.1410   -1.5680   -5.9680 hc        1 K02      0.056200
     33 H112        2.4200    0.2080   -6.3360 hc        1 K02      0.056200
     34 H9         -0.1590   -1.4600   -6.5810 hc        1 K02      0.070700
     35 H101        1.5300   -1.5360   -8.4430 hc        1 K02      0.055033
     36 H102        1.4620    0.2740   -8.5800 hc        1 K02      0.055033
     37 H103       -0.0090   -0.7200   -8.9380 hc        1 K02      0.055033
     38 H8C1        0.2130    1.6100   -6.7900 hc        1 K02      0.077200
     39 H8C2       -1.2550    0.6930   -7.3120 hc        1 K02      0.077200
     40 H2C1        6.2380   -1.1330   -3.4640 hx        1 K02      0.107450
     41 H2C2        5.6210    0.5090   -3.9890 hx        1 K02      0.107450
     42 H181        4.7400   -2.7050   -5.8340 hx        1 K02      0.107450
     43 H182        3.2730   -2.9450   -4.7560 hx        1 K02      0.107450
     44 H1C1        7.5400   -0.1280   -5.3700 hc        1 K02      0.085200
     45 H1C2        6.0700   -0.1380   -6.4290 hc        1 K02      0.085200
     46 H1C3        6.7920   -1.7060   -5.8490 hc        1 K02      0.085200
     47 H191        4.9280   -3.2800   -2.7740 hc        1 K02      0.085200
     48 H192        6.2720   -3.2940   -4.0000 hc        1 K02      0.085200
     49 H193        4.9560   -4.5350   -4.0860 hc        1 K02      0.085200
     50 H22         2.2370   -0.9210   -0.6610 hn        1 K02      0.467300
     51 H11         3.9190   -0.6430   -5.2670 hn        1 K02      0.461800
@<TRIPOS>BOND
     1    1    2 2   
     2    2    3 1   
     3    2    8 1   
     4    3    4 1   
     5    3    7 2   
     6    4    5 1   
     7    5    6 2   
     8    5   28 1   
     9    6    7 1   
    10    6   29 1   
    11    7   27 1   
    12    8    9 1   
    13    8   26 1   
    14    8   50 1   
    15    9   10 1   
    16    9   18 2   
    17   10   11 1   
    18   11   12 2   
    19   11   17 1   
    20   12   13 1   
    21   12   18 1   
    22   13   14 1   
    23   13   32 1   
    24   13   33 1   
    25   14   15 1   
    26   14   16 1   
    27   14   34 1   
    28   15   35 1   
    29   15   36 1   
    30   15   37 1   
    31   16   17 1   
    32   16   38 1   
    33   16   39 1   
    34   17   30 1   
    35   17   31 1   
    36   18   19 1   
    37   19   20 2   
    38   19   21 1   
    39   21   22 1   
    40   21   24 1   
    41   21   51 1   
    42   22   23 1   
    43   22   40 1   
    44   22   41 1   
    45   23   44 1   
    46   23   45 1   
    47   23   46 1   
    48   24   25 1   
    49   24   42 1   
    50   24   43 1   
    51   25   47 1   
    52   25   48 1   
    53   25   49 1   
@<TRIPOS>SUBSTRUCTURE
     1 K02         1 TEMP              0 ****  ****    0 ROOT
