@<TRIPOS>MOLECULE
K02
   49    51     1     0     0
SMALL
bcc


@<TRIPOS>ATOM
      1 O1          1.6450    1.8490   -0.5950 o         1 K02     -0.588100
      2 C13         0.6050    1.7030    0.0780 c         1 K02      0.711700
      3 C14        -0.0700    2.8270    0.7360 cc        1 K02     -0.210700
      4 S2         -1.4040    2.7440    1.7540 ss        1 K02      0.083200
      5 C15        -1.4550    4.3840    2.0050 cc        1 K02     -0.155100
      6 C16        -0.4540    5.0460    1.3200 cd        1 K02     -0.172000
      7 C17         0.3580    4.1390    0.5800 cd        1 K02     -0.076000
      8 N2          0.0220    0.4460    0.2260 n         1 K02     -0.442100
      9 C12         0.5480   -0.7250   -0.2970 cc        1 K02      0.074500
     10 S1          2.0710   -0.8910   -1.0180 ss        1 K02      0.129200
     11 C6          1.9050   -2.5370   -1.2360 cc        1 K02     -0.174400
     12 C5          0.6850   -3.0130   -0.7820 cd        1 K02     -0.048300
     13 C11         0.3440   -4.4510   -0.7650 c3        1 K02     -0.018100
     14 C9          1.2490   -5.2550   -1.6940 c3        1 K02     -0.062700
     15 C10         1.0620   -6.7370   -1.4520 c3        1 K02     -0.091100
     16 C8          2.7060   -4.8600   -1.5040 c3        1 K02     -0.069400
     17 C7          2.9330   -3.3980   -1.8500 c3        1 K02      0.005900
     18 C4         -0.1280   -1.9570   -0.2680 cd        1 K02     -0.234600
     19 C3         -1.4770   -2.0830    0.3230 c         1 K02      0.706700
     20 O2         -1.6850   -1.7010    1.4980 o         1 K02     -0.634100
     21 N1         -2.5230   -2.5930   -0.4340 n         1 K02     -0.469800
     22 C2         -3.8130   -2.8240    0.1820 c3        1 K02      0.088500
     23 C1         -4.1360   -4.2900    0.4320 c3        1 K02     -0.114100
     24 C18        -2.4490   -2.7450   -1.8670 c3        1 K02      0.088500
     25 C19        -3.0880   -1.6220   -2.6740 c3        1 K02     -0.114100
     26 H2         -0.7710    0.3340    0.8260 hn        1 K02      0.345500
     27 H17         1.2130    4.4350   -0.0360 ha        1 K02      0.177000
     28 H15        -2.2000    4.8610    2.6420 h4        1 K02      0.178000
     29 H16        -0.2890    6.1250    1.3340 ha        1 K02      0.162000
     30 H7C1        2.9020   -3.2720   -2.9680 hc        1 K02      0.048200
     31 H7C2        3.9570   -3.0910   -1.5080 hc        1 K02      0.048200
     32 H111        0.4570   -4.8300    0.2880 hc        1 K02      0.057700
     33 H112       -0.7260   -4.6140   -1.0620 hc        1 K02      0.057700
     34 H9          0.9570   -5.0230   -2.7570 hc        1 K02      0.048700
     35 H101        1.3790   -7.0100   -0.4160 hc        1 K02      0.035033
     36 H102       -0.0110   -7.0180   -1.5790 hc        1 K02      0.035033
     37 H103        1.6730   -7.3280   -2.1750 hc        1 K02      0.035033
     38 H8C1        3.3560   -5.4980   -2.1570 hc        1 K02      0.044700
     39 H8C2        3.0040   -5.0460   -0.4400 hc        1 K02      0.044700
     40 H2C1       -3.8510   -2.2740    1.1680 h1        1 K02      0.056950
     41 H2C2       -4.6110   -2.3880   -0.4860 h1        1 K02      0.056950
     42 H181       -1.3680   -2.8290   -2.1790 h1        1 K02      0.056950
     43 H182       -2.9590   -3.7160   -2.1350 h1        1 K02      0.056950
     44 H1C1       -4.1430   -4.8750   -0.5180 hc        1 K02      0.040700
     45 H1C2       -3.3920   -4.7510    1.1260 hc        1 K02      0.040700
     46 H1C3       -5.1480   -4.3570    0.8990 hc        1 K02      0.040700
     47 H191       -4.1790   -1.5310   -2.4570 hc        1 K02      0.040700
     48 H192       -2.6010   -0.6410   -2.4550 hc        1 K02      0.040700
     49 H193       -2.9610   -1.8480   -3.7600 hc        1 K02      0.040700
@<TRIPOS>BOND
     1    1    2 2   
     2    2    3 1   
     3    2    8 1   
     4    3    4 1   
     5    3    7 2   
     6    4    5 1   
     7    5    6 2   
     8    5   28 1   
     9    6    7 1   
    10    6   29 1   
    11    7   27 1   
    12    8    9 1   
    13    8   26 1   
    14    9   10 1   
    15    9   18 2   
    16   10   11 1   
    17   11   12 2   
    18   11   17 1   
    19   12   13 1   
    20   12   18 1   
    21   13   14 1   
    22   13   32 1   
    23   13   33 1   
    24   14   15 1   
    25   14   16 1   
    26   14   34 1   
    27   15   35 1   
    28   15   36 1   
    29   15   37 1   
    30   16   17 1   
    31   16   38 1   
    32   16   39 1   
    33   17   30 1   
    34   17   31 1   
    35   18   19 1   
    36   19   20 2   
    37   19   21 1   
    38   21   22 1   
    39   21   24 1   
    40   22   23 1   
    41   22   40 1   
    42   22   41 1   
    43   23   44 1   
    44   23   45 1   
    45   23   46 1   
    46   24   25 1   
    47   24   42 1   
    48   24   43 1   
    49   25   47 1   
    50   25   48 1   
    51   25   49 1   
@<TRIPOS>SUBSTRUCTURE
     1 K02         1 TEMP              0 ****  ****    0 ROOT
