@<TRIPOS>MOLECULE
K02
   51    53     1     0     0
SMALL
bcc


@<TRIPOS>ATOM
      1 O1          0.0260    0.9800   -0.0880 o         1 K02     -0.460100
      2 C13         1.0940    0.5040    0.2820 c         1 K02      0.641700
      3 C14         1.6280    0.3500    1.5900 cc        1 K02     -0.330700
      4 S2          3.0960   -0.3220    2.0860 ss        1 K02      0.115200
      5 C15         2.8080   -0.0600    3.6890 cc        1 K02     -0.054100
      6 C16         1.5800    0.5510    3.9180 cd        1 K02     -0.162000
      7 C17         0.8880    0.7930    2.7120 cd        1 K02      0.016000
      8 N2          2.0050   -0.0060   -0.8570 ny        1 K02     -0.514200
      9 C12         1.4680    0.0900   -2.1900 cc        1 K02     -0.171500
     10 S1         -0.0180    0.6930   -2.5830 ss        1 K02      0.533200
     11 C6          0.1390    0.4140   -4.1750 cc        1 K02     -0.171400
     12 C5          1.3740   -0.1680   -4.5190 cd        1 K02     -0.022300
     13 C11         1.6970   -0.5040   -5.9230 c3        1 K02     -0.047100
     14 C9          0.4710   -0.4900   -6.8370 c3        1 K02     -0.058700
     15 C10         0.9070   -0.5470   -8.2850 c3        1 K02     -0.102100
     16 C8         -0.3760    0.7430   -6.5780 c3        1 K02     -0.079400
     17 C7         -0.9170    0.7300   -5.1620 c3        1 K02     -0.029100
     18 C4          2.1790   -0.3480   -3.3600 cd        1 K02     -0.214600
     19 C3          3.5280   -0.8760   -3.2410 c         1 K02      0.593700
     20 O2          4.0870   -1.1190   -2.1650 o         1 K02     -0.513100
     21 N1          4.3510   -1.1280   -4.4730 nx        1 K02     -0.586200
     22 C2          5.7430   -0.5770   -4.2950 c3        1 K02      0.118300
     23 C1          6.5740   -0.6340   -5.5570 c3        1 K02     -0.134100
     24 C18         4.3500   -2.5980   -4.8170 c3        1 K02      0.118300
     25 C19         5.1720   -3.4780   -3.9020 c3        1 K02     -0.134100
     26 H2          2.2330   -0.9960   -0.6730 hn        1 K02      0.467300
     27 H17        -0.1000    1.2660    2.6470 ha        1 K02      0.200000
     28 H15         3.5150   -0.3420    4.4790 h4        1 K02      0.222000
     29 H16         1.1890    0.8170    4.9080 ha        1 K02      0.210000
     30 H7C1       -1.7320   -0.0460   -5.0840 hc        1 K02      0.088200
     31 H7C2       -1.3830    1.7270   -4.9310 hc        1 K02      0.088200
     32 H111        2.4340    0.2520   -6.3210 hc        1 K02      0.056200
     33 H112        2.1480   -1.5310   -5.9920 hc        1 K02      0.056200
     34 H9         -0.1490   -1.4040   -6.6100 hc        1 K02      0.070700
     35 H101        1.4830    0.3680   -8.5660 hc        1 K02      0.055033
     36 H102        0.0110   -0.6140   -8.9500 hc        1 K02      0.055033
     37 H103        1.5460   -1.4450   -8.4670 hc        1 K02      0.055033
     38 H8C1        0.2320    1.6690   -6.7520 hc        1 K02      0.077200
     39 H8C2       -1.2370    0.7670   -7.2980 hc        1 K02      0.077200
     40 H2C1        6.2380   -1.1610   -3.4650 hx        1 K02      0.107450
     41 H2C2        5.6270    0.4930   -3.9580 hx        1 K02      0.107450
     42 H181        3.2730   -2.9360   -4.8050 hx        1 K02      0.107450
     43 H182        4.7440   -2.6780   -5.8730 hx        1 K02      0.107450
     44 H1C1        6.7980   -1.6860   -5.8600 hc        1 K02      0.085200
     45 H1C2        7.5490   -0.1200   -5.3460 hc        1 K02      0.085200
     46 H1C3        6.0830   -0.1040   -6.4100 hc        1 K02      0.085200
     47 H191        6.2680   -3.3100   -4.0470 hc        1 K02      0.085200
     48 H192        4.9200   -3.3170   -2.8250 hc        1 K02      0.085200
     49 H193        4.9480   -4.5450   -4.1630 hc        1 K02      0.085200
     50 H22         2.8910    0.5210   -0.8220 hn        1 K02      0.467300
     51 H11         3.9260   -0.6260   -5.2660 hn        1 K02      0.461800
@<TRIPOS>BOND
     1    1    2 2   
     2    2    3 1   
     3    2    8 1   
     4    3    4 1   
     5    3    7 2   
     6    4    5 1   
     7    5    6 2   
     8    5   28 1   
     9    6    7 1   
    10    6   29 1   
    11    7   27 1   
    12    8    9 1   
    13    8   26 1   
    14    8   50 1   
    15    9   10 1   
    16    9   18 2   
    17   10   11 1   
    18   11   12 2   
    19   11   17 1   
    20   12   13 1   
    21   12   18 1   
    22   13   14 1   
    23   13   32 1   
    24   13   33 1   
    25   14   15 1   
    26   14   16 1   
    27   14   34 1   
    28   15   35 1   
    29   15   36 1   
    30   15   37 1   
    31   16   17 1   
    32   16   38 1   
    33   16   39 1   
    34   17   30 1   
    35   17   31 1   
    36   18   19 1   
    37   19   20 2   
    38   19   21 1   
    39   21   22 1   
    40   21   24 1   
    41   21   51 1   
    42   22   23 1   
    43   22   40 1   
    44   22   41 1   
    45   23   44 1   
    46   23   45 1   
    47   23   46 1   
    48   24   25 1   
    49   24   42 1   
    50   24   43 1   
    51   25   47 1   
    52   25   48 1   
    53   25   49 1   
@<TRIPOS>SUBSTRUCTURE
     1 K02         1 TEMP              0 ****  ****    0 ROOT
