@<TRIPOS>MOLECULE
K02
   49    48     1     0     0
SMALL
bcc


@<TRIPOS>ATOM
      1 O1         -1.4940   -1.4600    3.1120 o         1 K02     -0.345000
      2 C13        -0.3890   -0.9770    3.1350 c1        1 K02      0.384000
      3 C14         0.4100   -0.9720    4.4230 c1        1 K02     -0.456000
      4 S2          1.9780   -0.2570    4.4570 ss        1 K02      0.601000
      5 C15         1.9820    0.4010    6.0520 c2        1 K02     -0.418000
      6 C16         0.6450    0.0920    6.7480 c1        1 K02     -0.170000
      7 C17        -0.3020   -0.7300    5.7710 c1        1 K02     -0.074000
      8 N2          0.1590   -0.3890    1.9520 n3        1 K02     -0.296000
      9 C12        -0.6210   -0.3720    0.7100 c2        1 K02     -0.203000
     10 S1         -2.3850   -0.1160    0.7640 ss        1 K02      0.669000
     11 C6         -2.6120    0.7740   -0.6890 c2        1 K02     -0.433000
     12 C5         -1.1520    0.9830   -1.4460 c1        1 K02     -0.033000
     13 C11        -1.2050    1.5480   -2.7870 c2        1 K02     -0.105000
     14 C9         -2.4200    2.6410   -2.9580 c3        1 K02     -0.097000
     15 C10        -2.0310    3.9640   -2.0980 c3        1 K02     -0.209000
     16 C8         -3.5710    2.2500   -2.5780 c3        1 K02     -0.147000
     17 C7         -3.6660    1.7640   -1.0260 c3        1 K02     -0.079000
     18 C4         -0.0090    0.3000   -0.6040 c2        1 K02     -0.210000
     19 C3          1.1660   -0.3510   -1.3100 c2        1 K02      0.361000
     20 O2          1.6350    0.1620   -2.3140 o         1 K02     -0.351000
     21 N1          1.6800   -1.6000   -0.8370 n         1 K02     -0.329000
     22 C2          2.9630   -1.6450   -0.1600 c3        1 K02     -0.028500
     23 C1          4.0520   -1.4380   -1.1500 c3        1 K02     -0.240500
     24 C18         0.9740   -2.8350   -1.1370 c3        1 K02     -0.028500
     25 C19         1.6530   -3.5350   -2.2680 c3        1 K02     -0.240500
     26 H2          1.0170   -0.0880    1.9520 hn        1 K02      0.246000
     27 H17        -1.2830   -0.5850    5.7940 ha        1 K02      0.178000
     28 H15         2.8180    0.4150    6.5760 h4        1 K02      0.178000
     29 H16         0.6260   -0.0840    7.7130 ha        1 K02      0.163000
     30 H7C1       -4.5590    1.4300   -0.8060 hc        1 K02      0.088000
     31 H7C2       -3.5340    2.5540   -0.4540 hc        1 K02      0.088000
     32 H111       -1.1800    0.7840   -3.3840 ha        1 K02      0.098500
     33 H112       -0.3740    2.0190   -3.0540 ha        1 K02      0.098500
     34 H9         -2.4770    2.8940   -3.9090 hc        1 K02      0.083000
     35 H101       -1.3780    4.5040   -2.6040 hc        1 K02      0.076333
     36 H102       -2.8410    4.4990   -1.9330 hc        1 K02      0.076333
     37 H103       -1.6390    3.6940   -1.2430 hc        1 K02      0.076333
     38 H8C1       -3.8120    1.4770   -3.1380 hc        1 K02      0.081000
     39 H8C2       -4.1870    3.0190   -2.6800 hc        1 K02      0.081000
     40 H2C1        3.0740   -2.5140    0.2680 h1        1 K02      0.091250
     41 H2C2        2.9990   -0.9420    0.5150 h1        1 K02      0.091250
     42 H181        0.9760   -3.4130   -0.3460 h1        1 K02      0.091250
     43 H182        0.0460   -2.6300   -1.3890 h1        1 K02      0.091250
     44 H1C1        4.4710   -0.5660   -0.9960 hc        1 K02      0.083167
     45 H1C2        4.7170   -2.1380   -1.0520 hc        1 K02      0.083167
     46 H1C3        3.6850   -1.4660   -2.0450 hc        1 K02      0.083167
     47 H191        2.4730   -3.9480   -1.9480 hc        1 K02      0.083167
     48 H192        1.0570   -4.2280   -2.6300 hc        1 K02      0.083167
     49 H193        1.8660   -2.8900   -2.9700 hc        1 K02      0.083167
@<TRIPOS>BOND
     1    1    2 1   
     2    2    8 1   
     3    3    4 1   
     4    3    7 1   
     5    4    5 1   
     6    5    6 1   
     7    5   28 1   
     8    6   29 1   
     9    7   27 1   
    10    8    9 1   
    11    8   26 1   
    12    9   10 1   
    13    9   18 1   
    14   10   11 1   
    15   11   12 1   
    16   11   17 1   
    17   12   18 1   
    18   13   14 1   
    19   13   32 1   
    20   13   33 1   
    21   14   15 1   
    22   14   16 1   
    23   14   34 1   
    24   15   35 1   
    25   15   36 1   
    26   15   37 1   
    27   16   17 1   
    28   16   38 1   
    29   16   39 1   
    30   17   30 1   
    31   17   31 1   
    32   18   19 1   
    33   19   20 1   
    34   19   21 1   
    35   21   22 1   
    36   21   24 1   
    37   22   23 1   
    38   22   40 1   
    39   22   41 1   
    40   23   44 1   
    41   23   45 1   
    42   23   46 1   
    43   24   25 1   
    44   24   42 1   
    45   24   43 1   
    46   25   47 1   
    47   25   48 1   
    48   25   49 1   
@<TRIPOS>SUBSTRUCTURE
     1 K02         1 TEMP              0 ****  ****    0 ROOT
