@<TRIPOS>MOLECULE
K03
   54    56     1     0     0
SMALL
bcc


@<TRIPOS>ATOM
      1 O12         0.0180   -0.9220   -0.2030 o         1 K03     -0.460100
      2 C11         1.0830   -0.4730    0.2070 c         1 K03      0.641700
      3 C13         1.6020   -0.3970    1.5280 cc        1 K03     -0.330700
      4 S17         3.0660    0.2400    2.0790 ss        1 K03      0.115200
      5 C16         2.7580   -0.1150    3.6600 cc        1 K03     -0.054100
      6 C15         1.5260   -0.7350    3.8390 cd        1 K03     -0.162000
      7 C14         0.8480   -0.9030    2.6120 cd        1 K03      0.016000
      8 N10         2.0080    0.1010   -0.8890 n4        1 K03     -0.513200
      9 C9          1.4920    0.0790   -2.2330 cc        1 K03     -0.173500
     10 S18         0.0080   -0.4930   -2.6780 ss        1 K03      0.532200
     11 C19         0.1910   -0.1330   -4.2500 cc        1 K03     -0.170400
     12 C26         1.4340    0.4560   -4.5480 cd        1 K03     -0.018300
     13 C25         1.7890    0.8540   -5.9280 c3        1 K03     -0.045100
     14 C22         0.5970    0.8840   -6.8990 c3        1 K03     -0.043000
     15 C24        -0.1950    2.1700   -6.7100 c3        1 K03     -0.099100
     16 C23         1.1380    0.8450   -8.3230 c3        1 K03     -0.099100
     17 C21        -0.2880   -0.3380   -6.6750 c3        1 K03     -0.074400
     18 C20        -0.8510   -0.3850   -5.2690 c3        1 K03     -0.028100
     19 C8          2.2220    0.5720   -3.3690 cd        1 K03     -0.216600
     20 C6          3.5710    1.0870   -3.2000 c         1 K03      0.593700
     21 O7          4.1150    1.2680   -2.1040 o         1 K03     -0.514100
     22 N3          4.4140    1.4070   -4.4030 n4        1 K03     -0.586200
     23 C4          5.8040    0.8480   -4.2310 c3        1 K03      0.118300
     24 C5          6.6560    0.9730   -5.4740 c3        1 K03     -0.133600
     25 C2          4.4160    2.8920   -4.6660 c3        1 K03      0.118300
     26 C1          5.2200    3.7220   -3.6910 c3        1 K03     -0.133600
     27 H10         2.8950   -0.4260   -0.8710 hn        1 K03      0.467300
     28 H14        -0.1410   -1.3680    2.5090 ha        1 K03      0.200000
     29 H16         3.4570    0.1180    4.4740 h4        1 K03      0.222000
     30 H15         1.1230   -1.0560    4.8080 ha        1 K03      0.210000
     31 H201       -1.6580    0.3970   -5.1670 hc        1 K03      0.088200
     32 H202       -1.3340   -1.3860   -5.0970 hc        1 K03      0.088200
     33 H251        2.2430    1.8830   -5.9370 hc        1 K03      0.056700
     34 H252        2.5370    0.1130   -6.3320 hc        1 K03      0.056700
     35 H241        0.4110    3.0520   -7.0270 hc        1 K03      0.051700
     36 H242       -0.4870    2.3030   -5.6410 hc        1 K03      0.051700
     37 H243       -1.1230    2.1420   -7.3320 hc        1 K03      0.051700
     38 H231        1.8430    1.6930   -8.4970 hc        1 K03      0.051700
     39 H232        1.6710   -0.1160   -8.5200 hc        1 K03      0.051700
     40 H233        0.2940    0.9350   -9.0510 hc        1 K03      0.051700
     41 H211        0.3080   -1.2670   -6.8770 hc        1 K03      0.075700
     42 H212       -1.1390   -0.3180   -7.4070 hc        1 K03      0.075700
     43 H4C1        6.2850    1.3870   -3.3630 hx        1 K03      0.107200
     44 H4C2        5.6850   -0.2390   -3.9540 hx        1 K03      0.107200
     45 H2C1        4.8280    3.0300   -5.7100 hx        1 K03      0.107200
     46 H2C2        3.3380    3.2280   -4.6550 hx        1 K03      0.107200
     47 H5C1        7.6280    0.4500   -5.2740 hc        1 K03      0.085200
     48 H5C2        6.1800    0.4890   -6.3620 hc        1 K03      0.085200
     49 H5C3        6.8830    2.0400   -5.7160 hc        1 K03      0.085200
     50 H1C1        4.9980    4.8020   -3.8970 hc        1 K03      0.085200
     51 H1C2        6.3190    3.5650   -3.8250 hc        1 K03      0.085200
     52 H1C3        4.9500    3.5030   -2.6290 hc        1 K03      0.085200
     53 H102        2.2330    1.0800   -0.6470 hn        1 K03      0.467300
     54 H31         4.0040    0.9470   -5.2290 hn        1 K03      0.461800
@<TRIPOS>BOND
     1    1    2 2   
     2    2    3 1   
     3    2    8 1   
     4    3    4 1   
     5    3    7 2   
     6    4    5 1   
     7    5    6 2   
     8    5   29 1   
     9    6    7 1   
    10    6   30 1   
    11    7   28 1   
    12    8    9 1   
    13    8   27 1   
    14    8   53 1   
    15    9   10 1   
    16    9   19 2   
    17   10   11 1   
    18   11   12 2   
    19   11   18 1   
    20   12   13 1   
    21   12   19 1   
    22   13   14 1   
    23   13   33 1   
    24   13   34 1   
    25   14   15 1   
    26   14   16 1   
    27   14   17 1   
    28   15   35 1   
    29   15   36 1   
    30   15   37 1   
    31   16   38 1   
    32   16   39 1   
    33   16   40 1   
    34   17   18 1   
    35   17   41 1   
    36   17   42 1   
    37   18   31 1   
    38   18   32 1   
    39   19   20 1   
    40   20   21 2   
    41   20   22 1   
    42   22   23 1   
    43   22   25 1   
    44   22   54 1   
    45   23   24 1   
    46   23   43 1   
    47   23   44 1   
    48   24   47 1   
    49   24   48 1   
    50   24   49 1   
    51   25   26 1   
    52   25   45 1   
    53   25   46 1   
    54   26   50 1   
    55   26   51 1   
    56   26   52 1   
@<TRIPOS>SUBSTRUCTURE
     1 K03         1 TEMP              0 ****  ****    0 ROOT
