@<TRIPOS>MOLECULE
K03
   52    54     1     0     0
SMALL
bcc


@<TRIPOS>ATOM
      1 O12        -2.1790    1.1540    0.6600 o         1 K03     -0.588100
      2 C11        -1.7660    0.3190   -0.1700 c         1 K03      0.711700
      3 C13        -2.6610   -0.3600   -1.1130 cc        1 K03     -0.210700
      4 S17        -2.2150   -1.4130   -2.3430 ss        1 K03      0.083200
      5 C16        -3.7760   -1.6590   -2.8510 cc        1 K03     -0.155100
      6 C15        -4.6870   -0.9430   -2.0970 cd        1 K03     -0.172000
      7 C14        -4.0390   -0.1820   -1.0820 cd        1 K03     -0.076000
      8 N10        -0.4150   -0.0180   -0.2300 n         1 K03     -0.442100
      9 C9          0.5690    0.5520    0.5610 cc        1 K03      0.075500
     10 S18         0.3700    1.8920    1.5760 ss        1 K03      0.128200
     11 C19         1.9800    1.9310    2.0150 cc        1 K03     -0.173400
     12 C26         2.7190    0.9250    1.4140 cd        1 K03     -0.046300
     13 C25         4.1870    0.8170    1.5460 c3        1 K03     -0.015100
     14 C22         4.7300    1.6010    2.7470 c3        1 K03     -0.049000
     15 C24         4.4740    0.8260    4.0300 c3        1 K03     -0.088100
     16 C23         6.2320    1.7840    2.5720 c3        1 K03     -0.088100
     17 C21         4.0720    2.9800    2.8130 c3        1 K03     -0.063400
     18 C20         2.5620    2.9100    2.9500 c3        1 K03      0.006900
     19 C8          1.8960    0.0910    0.5970 cd        1 K03     -0.234600
     20 C6          2.3300   -1.0710   -0.2070 c         1 K03      0.705700
     21 O7          2.1410   -1.0820   -1.4460 o         1 K03     -0.634100
     22 N3          2.9170   -2.1650    0.4130 n         1 K03     -0.469800
     23 C4          3.4350   -3.2550   -0.3880 c3        1 K03      0.088500
     24 C5          4.9540   -3.3070   -0.4690 c3        1 K03     -0.114100
     25 C2          2.8790   -2.3680    1.8420 c3        1 K03      0.088500
     26 C1          1.7740   -3.2930    2.3370 c3        1 K03     -0.114100
     27 H10        -0.0900   -0.6370   -0.9460 hn        1 K03      0.345500
     28 H14        -4.5570    0.4640   -0.3670 ha        1 K03      0.176000
     29 H16        -4.0300   -2.3120   -3.6860 h4        1 K03      0.178000
     30 H15        -5.7690   -0.9460   -2.2470 ha        1 K03      0.162000
     31 H201        2.1300    3.9310    2.7680 hc        1 K03      0.048200
     32 H202        2.2960    2.6190    4.0040 hc        1 K03      0.048200
     33 H251        4.5040   -0.2560    1.6390 hc        1 K03      0.058200
     34 H252        4.6520    1.2210    0.6040 hc        1 K03      0.058200
     35 H241        4.7720    1.4350    4.9170 hc        1 K03      0.035700
     36 H242        3.3900    0.5700    4.1170 hc        1 K03      0.035700
     37 H243        5.0640   -0.1220    4.0340 hc        1 K03      0.035700
     38 H231        6.4500    2.3950    1.6630 hc        1 K03      0.035700
     39 H232        6.6630    2.3020    3.4610 hc        1 K03      0.035700
     40 H233        6.7310    0.7910    2.4610 hc        1 K03      0.035700
     41 H211        4.3330    3.5450    1.8800 hc        1 K03      0.044700
     42 H212        4.4920    3.5470    3.6840 hc        1 K03      0.044700
     43 H4C1        3.0640   -4.2270    0.0500 h1        1 K03      0.056950
     44 H4C2        3.0220   -3.1680   -1.4340 h1        1 K03      0.056950
     45 H2C1        3.8750   -2.8000    2.1520 h1        1 K03      0.056950
     46 H2C2        2.7620   -1.3720    2.3590 h1        1 K03      0.056950
     47 H5C1        5.3620   -2.3790   -0.9370 hc        1 K03      0.040700
     48 H5C2        5.4130   -3.4250    0.5410 hc        1 K03      0.040700
     49 H5C3        5.2470   -4.1820   -1.0980 hc        1 K03      0.040700
     50 H1C1        0.7660   -2.8930    2.0730 hc        1 K03      0.040700
     51 H1C2        1.8720   -4.3170    1.9030 hc        1 K03      0.040700
     52 H1C3        1.8470   -3.3700    3.4480 hc        1 K03      0.040700
@<TRIPOS>BOND
     1    1    2 2   
     2    2    3 1   
     3    2    8 1   
     4    3    4 1   
     5    3    7 2   
     6    4    5 1   
     7    5    6 2   
     8    5   29 1   
     9    6    7 1   
    10    6   30 1   
    11    7   28 1   
    12    8    9 1   
    13    8   27 1   
    14    9   10 1   
    15    9   19 2   
    16   10   11 1   
    17   11   12 2   
    18   11   18 1   
    19   12   13 1   
    20   12   19 1   
    21   13   14 1   
    22   13   33 1   
    23   13   34 1   
    24   14   15 1   
    25   14   16 1   
    26   14   17 1   
    27   15   35 1   
    28   15   36 1   
    29   15   37 1   
    30   16   38 1   
    31   16   39 1   
    32   16   40 1   
    33   17   18 1   
    34   17   41 1   
    35   17   42 1   
    36   18   31 1   
    37   18   32 1   
    38   19   20 1   
    39   20   21 2   
    40   20   22 1   
    41   22   23 1   
    42   22   25 1   
    43   23   24 1   
    44   23   43 1   
    45   23   44 1   
    46   24   47 1   
    47   24   48 1   
    48   24   49 1   
    49   25   26 1   
    50   25   45 1   
    51   25   46 1   
    52   26   50 1   
    53   26   51 1   
    54   26   52 1   
@<TRIPOS>SUBSTRUCTURE
     1 K03         1 TEMP              0 ****  ****    0 ROOT
