@<TRIPOS>MOLECULE
K03
   52    51     1     0     0
SMALL
bcc


@<TRIPOS>ATOM
      1 O12        -2.2070   -0.1460    3.2850 o         1 K03     -0.345000
      2 C11        -0.9870   -0.1620    3.2850 c1        1 K03      0.385000
      3 C13        -0.2300   -0.1860    4.6030 c1        1 K03     -0.456000
      4 S17         1.4740   -0.4030    4.6100 ss        1 K03      0.603000
      5 C16         1.6600   -1.3190    6.0500 c2        1 K03     -0.418000
      6 C15         0.2880   -1.5530    6.6990 c1        1 K03     -0.170000
      7 C14        -0.8470   -0.8730    5.8300 c1        1 K03     -0.074000
      8 N10        -0.2790   -0.3200    2.0600 n3        1 K03     -0.295000
      9 C9         -0.9960   -0.4600    0.8390 c2        1 K03     -0.204000
     10 S18        -1.6620   -2.0390    0.3770 ss        1 K03      0.669000
     11 C19        -1.4760   -1.9650   -1.3310 c2        1 K03     -0.434000
     12 C26        -0.7960   -0.5440   -1.7490 c1        1 K03     -0.035000
     13 C25        -0.4120   -0.4140   -3.1360 c2        1 K03     -0.100000
     14 C22        -1.4190   -1.2070   -4.1360 c3        1 K03     -0.049000
     15 C24        -2.7470   -0.4650   -4.1590 c3        1 K03     -0.205500
     16 C23        -0.8220   -1.1650   -5.5460 c3        1 K03     -0.205500
     17 C21        -1.6420   -2.3710   -3.8520 c3        1 K03     -0.142000
     18 C20        -2.2560   -2.6230   -2.3650 c3        1 K03     -0.079000
     19 C8         -0.5280    0.3280   -0.4500 c2        1 K03     -0.208000
     20 C6          0.7130    1.2720   -0.3840 c2        1 K03      0.361000
     21 O7          1.0680    1.8740   -1.3750 o         1 K03     -0.353000
     22 N3          1.3460    1.5520    0.9030 n         1 K03     -0.330000
     23 C4          0.8210    2.6020    1.7530 c3        1 K03     -0.025500
     24 C5          1.2910    3.9590    1.2360 c3        1 K03     -0.241000
     25 C2          2.5670    0.8930    1.2570 c3        1 K03     -0.025500
     26 C1          3.7240    1.5580    0.5420 c3        1 K03     -0.241000
     27 H10         0.6310   -0.4090    2.0680 hn        1 K03      0.245000
     28 H14        -1.6310   -0.4830    6.2670 ha        1 K03      0.178000
     29 H16         2.4480   -1.1930    6.6090 h4        1 K03      0.178000
     30 H15         0.2060   -1.5830    7.6710 ha        1 K03      0.163000
     31 H201       -2.3290   -3.6010   -2.2460 hc        1 K03      0.087000
     32 H202       -3.1660   -2.2790   -2.2980 hc        1 K03      0.087000
     33 H251        0.5170   -0.6840   -3.2620 ha        1 K03      0.099500
     34 H252       -0.3650    0.5340   -3.3950 ha        1 K03      0.099500
     35 H241       -3.3930   -0.9700   -4.6920 hc        1 K03      0.075000
     36 H242       -3.0810   -0.3690   -3.2480 hc        1 K03      0.075000
     37 H243       -2.6180    0.4280   -4.5580 hc        1 K03      0.075000
     38 H231       -1.4650   -1.5410   -6.1860 hc        1 K03      0.075000
     39 H232       -0.6240   -0.2340   -5.7900 hc        1 K03      0.075000
     40 H233        0.0060   -1.6910   -5.5670 hc        1 K03      0.075000
     41 H211       -2.3050   -2.7040   -4.4970 hc        1 K03      0.084000
     42 H212       -0.7850   -2.8460   -3.8940 hc        1 K03      0.084000
     43 H4C1       -0.1560    2.5710    1.7430 h1        1 K03      0.091250
     44 H4C2        1.1440    2.4720    2.6720 h1        1 K03      0.091250
     45 H2C1        2.5180   -0.0450    0.9940 h1        1 K03      0.091250
     46 H2C2        2.7020    0.9540    2.2240 h1        1 K03      0.091250
     47 H5C1        1.2630    3.9620    0.2560 hc        1 K03      0.083333
     48 H5C2        2.2100    4.1230    1.5370 hc        1 K03      0.083333
     49 H5C3        0.7050    4.6600    1.5810 hc        1 K03      0.083333
     50 H1C1        4.2810    2.0340    1.1950 hc        1 K03      0.083333
     51 H1C2        4.2610    0.8780    0.0900 hc        1 K03      0.083333
     52 H1C3        3.3780    2.1940   -0.1180 hc        1 K03      0.083333
@<TRIPOS>BOND
     1    1    2 1   
     2    2    8 1   
     3    3    4 1   
     4    3    7 1   
     5    4    5 1   
     6    5    6 1   
     7    5   29 1   
     8    6   30 1   
     9    7   28 1   
    10    8    9 1   
    11    8   27 1   
    12    9   10 1   
    13    9   19 1   
    14   10   11 1   
    15   11   12 1   
    16   11   18 1   
    17   12   19 1   
    18   13   14 1   
    19   13   33 1   
    20   13   34 1   
    21   14   15 1   
    22   14   16 1   
    23   14   17 1   
    24   15   35 1   
    25   15   36 1   
    26   15   37 1   
    27   16   38 1   
    28   16   39 1   
    29   16   40 1   
    30   17   18 1   
    31   17   41 1   
    32   17   42 1   
    33   18   31 1   
    34   18   32 1   
    35   19   20 1   
    36   20   21 1   
    37   20   22 1   
    38   22   23 1   
    39   22   25 1   
    40   23   24 1   
    41   23   43 1   
    42   23   44 1   
    43   24   47 1   
    44   24   48 1   
    45   24   49 1   
    46   25   26 1   
    47   25   45 1   
    48   25   46 1   
    49   26   50 1   
    50   26   51 1   
    51   26   52 1   
@<TRIPOS>SUBSTRUCTURE
     1 K03         1 TEMP              0 ****  ****    0 ROOT
