@<TRIPOS>MOLECULE
K03
   54    56     1     0     0
SMALL
bcc


@<TRIPOS>ATOM
      1 O12         0.0350   -0.9320   -0.1980 o         1 K03     -0.460100
      2 C11         1.1030   -0.4870    0.2070 c         1 K03      0.641700
      3 C13         1.6290   -0.4170    1.5260 cc        1 K03     -0.330700
      4 S17         3.0970    0.2130    2.0710 ss        1 K03      0.115200
      5 C16         2.7970   -0.1460    3.6530 cc        1 K03     -0.054100
      6 C15         1.5640   -0.7620    3.8360 cd        1 K03     -0.162000
      7 C14         0.8790   -0.9240    2.6130 cd        1 K03      0.016000
      8 N10         2.0240    0.0880   -0.8910 ny        1 K03     -0.513200
      9 C9          1.5000    0.0730   -2.2330 cc        1 K03     -0.173500
     10 S18         0.0130   -0.4950   -2.6720 ss        1 K03      0.532200
     11 C19         0.1880   -0.1270   -4.2440 cc        1 K03     -0.170400
     12 C26         1.4290    0.4630   -4.5450 cd        1 K03     -0.018300
     13 C25         1.7760    0.8680   -5.9250 c3        1 K03     -0.045100
     14 C22         0.5790    0.9050   -6.8880 c3        1 K03     -0.043000
     15 C24        -0.2110    2.1890   -6.6870 c3        1 K03     -0.099100
     16 C23         1.1110    0.8730   -8.3160 c3        1 K03     -0.099100
     17 C21        -0.3050   -0.3180   -6.6660 c3        1 K03     -0.074400
     18 C20        -0.8610   -0.3730   -5.2580 c3        1 K03     -0.028100
     19 C8          2.2240    0.5720   -3.3690 cd        1 K03     -0.216600
     20 C6          3.5740    1.0850   -3.2060 c         1 K03      0.593700
     21 O7          4.1240    1.2600   -2.1120 o         1 K03     -0.514100
     22 N3          4.4110    1.4090   -4.4120 nx        1 K03     -0.586200
     23 C4          5.8010    0.8480   -4.2500 c3        1 K03      0.118300
     24 C5          6.6460    0.9770   -5.4980 c3        1 K03     -0.133600
     25 C2          4.4140    2.8960   -4.6680 c3        1 K03      0.118300
     26 C1          5.2250    3.7200   -3.6930 c3        1 K03     -0.133600
     27 H10         2.9090   -0.4430   -0.8810 hn        1 K03      0.467300
     28 H14        -0.1120   -1.3850    2.5130 ha        1 K03      0.200000
     29 H16         3.5010    0.0830    4.4640 h4        1 K03      0.222000
     30 H15         1.1640   -1.0850    4.8060 ha        1 K03      0.210000
     31 H201       -1.6670    0.4080   -5.1470 hc        1 K03      0.088200
     32 H202       -1.3430   -1.3750   -5.0880 hc        1 K03      0.088200
     33 H251        2.2310    1.8960   -5.9310 hc        1 K03      0.056700
     34 H252        2.5210    0.1290   -6.3370 hc        1 K03      0.056700
     35 H241       -1.1430    2.1660   -7.3040 hc        1 K03      0.051700
     36 H242        0.3940    3.0730   -7.0030 hc        1 K03      0.051700
     37 H243       -0.4970    2.3170   -5.6160 hc        1 K03      0.051700
     38 H231        0.2630    0.9680   -9.0380 hc        1 K03      0.051700
     39 H232        1.8160    1.7220   -8.4890 hc        1 K03      0.051700
     40 H233        1.6430   -0.0870   -8.5210 hc        1 K03      0.051700
     41 H211       -1.1610   -0.2940   -7.3930 hc        1 K03      0.075700
     42 H212        0.2880   -1.2470   -6.8770 hc        1 K03      0.075700
     43 H4C1        5.6820   -0.2410   -3.9780 hx        1 K03      0.107200
     44 H4C2        6.2870    1.3810   -3.3830 hx        1 K03      0.107200
     45 H2C1        4.8200    3.0380   -5.7130 hx        1 K03      0.107200
     46 H2C2        3.3370    3.2340   -4.6490 hx        1 K03      0.107200
     47 H5C1        6.1650    0.4990   -6.3850 hc        1 K03      0.085200
     48 H5C2        7.6190    0.4520   -5.3060 hc        1 K03      0.085200
     49 H5C3        6.8740    2.0450   -5.7360 hc        1 K03      0.085200
     50 H1C1        4.9600    3.4960   -2.6310 hc        1 K03      0.085200
     51 H1C2        6.3230    3.5610   -3.8340 hc        1 K03      0.085200
     52 H1C3        5.0040    4.8010   -3.8920 hc        1 K03      0.085200
     53 H102        2.2540    1.0640   -0.6470 hn        1 K03      0.467300
     54 H31         3.9960    0.9550   -5.2370 hn        1 K03      0.461800
@<TRIPOS>BOND
     1    1    2 2   
     2    2    3 1   
     3    2    8 1   
     4    3    4 1   
     5    3    7 2   
     6    4    5 1   
     7    5    6 2   
     8    5   29 1   
     9    6    7 1   
    10    6   30 1   
    11    7   28 1   
    12    8    9 1   
    13    8   27 1   
    14    8   53 1   
    15    9   10 1   
    16    9   19 2   
    17   10   11 1   
    18   11   12 2   
    19   11   18 1   
    20   12   13 1   
    21   12   19 1   
    22   13   14 1   
    23   13   33 1   
    24   13   34 1   
    25   14   15 1   
    26   14   16 1   
    27   14   17 1   
    28   15   35 1   
    29   15   36 1   
    30   15   37 1   
    31   16   38 1   
    32   16   39 1   
    33   16   40 1   
    34   17   18 1   
    35   17   41 1   
    36   17   42 1   
    37   18   31 1   
    38   18   32 1   
    39   19   20 1   
    40   20   21 2   
    41   20   22 1   
    42   22   23 1   
    43   22   25 1   
    44   22   54 1   
    45   23   24 1   
    46   23   43 1   
    47   23   44 1   
    48   24   47 1   
    49   24   48 1   
    50   24   49 1   
    51   25   26 1   
    52   25   45 1   
    53   25   46 1   
    54   26   50 1   
    55   26   51 1   
    56   26   52 1   
@<TRIPOS>SUBSTRUCTURE
     1 K03         1 TEMP              0 ****  ****    0 ROOT
