@<TRIPOS>MOLECULE
K03
   54    56     1     0     0
SMALL
bcc


@<TRIPOS>ATOM
      1 O12         0.0080   -0.8820   -0.1910 o         1 K03     -0.460100
      2 C11         1.0800   -0.4450    0.2140 c         1 K03      0.641700
      3 C13         1.6030   -0.3720    1.5330 cc        1 K03     -0.330700
      4 S17         3.0760    0.2480    2.0780 ss        1 K03      0.115200
      5 C16         2.7690   -0.0970    3.6620 cc        1 K03     -0.054100
      6 C15         1.5300   -0.7000    3.8450 cd        1 K03     -0.162000
      7 C14         0.8460   -0.8640    2.6220 cd        1 K03      0.016000
      8 N10         2.0090    0.1130   -0.8870 n4        1 K03     -0.513200
      9 C9          1.4880    0.0930   -2.2290 cc        1 K03     -0.173500
     10 S18        -0.0040   -0.4610   -2.6680 ss        1 K03      0.532200
     11 C19         0.1780   -0.1070   -4.2420 cc        1 K03     -0.170400
     12 C26         1.4280    0.4670   -4.5440 cd        1 K03     -0.018300
     13 C25         1.7820    0.8570   -5.9260 c3        1 K03     -0.045100
     14 C22         0.5880    0.8990   -6.8940 c3        1 K03     -0.043000
     15 C24        -0.1880    2.1940   -6.7050 c3        1 K03     -0.099100
     16 C23         1.1240    0.8500   -8.3200 c3        1 K03     -0.099100
     17 C21        -0.3100   -0.3120   -6.6640 c3        1 K03     -0.074400
     18 C20        -0.8700   -0.3480   -5.2570 c3        1 K03     -0.028100
     19 C8          2.2200    0.5760   -3.3680 cd        1 K03     -0.216600
     20 C6          3.5760    1.0750   -3.2050 c         1 K03      0.593700
     21 O7          4.1260    1.2520   -2.1110 o         1 K03     -0.514100
     22 N3          4.4190    1.3820   -4.4110 n4        1 K03     -0.586200
     23 C4          5.8030    0.8070   -4.2420 c3        1 K03      0.118300
     24 C5          6.6520    0.9190   -5.4880 c3        1 K03     -0.133600
     25 C2          4.4370    2.8660   -4.6780 c3        1 K03      0.118300
     26 C1          5.2540    3.6890   -3.7070 c3        1 K03     -0.133600
     27 H10         2.8890   -0.4260   -0.8700 hn        1 K03      0.467300
     28 H14        -0.1490   -1.3170    2.5220 ha        1 K03      0.200000
     29 H16         3.4730    0.1300    4.4720 h4        1 K03      0.222000
     30 H15         1.1250   -1.0130    4.8160 ha        1 K03      0.210000
     31 H201       -1.6670    0.4430   -5.1540 hc        1 K03      0.088200
     32 H202       -1.3640   -1.3440   -5.0800 hc        1 K03      0.088200
     33 H251        2.5200    0.1060   -6.3310 hc        1 K03      0.056700
     34 H252        2.2490    1.8800   -5.9390 hc        1 K03      0.056700
     35 H241       -0.4750    2.3340   -5.6360 hc        1 K03      0.051700
     36 H242       -1.1180    2.1760   -7.3250 hc        1 K03      0.051700
     37 H243        0.4280    3.0690   -7.0270 hc        1 K03      0.051700
     38 H231        1.8390    1.6890   -8.4970 hc        1 K03      0.051700
     39 H232        0.2790    0.9480   -9.0440 hc        1 K03      0.051700
     40 H233        1.6450   -0.1180   -8.5160 hc        1 K03      0.051700
     41 H211       -1.1640   -0.2830   -7.3940 hc        1 K03      0.075700
     42 H212        0.2730   -1.2480   -6.8660 hc        1 K03      0.075700
     43 H4C1        6.2930    1.3430   -3.3770 hx        1 K03      0.107200
     44 H4C2        5.6720   -0.2780   -3.9620 hx        1 K03      0.107200
     45 H2C1        3.3640    3.2150   -4.6640 hx        1 K03      0.107200
     46 H2C2        4.8480    2.9970   -5.7230 hx        1 K03      0.107200
     47 H5C1        7.6190    0.3860   -5.2900 hc        1 K03      0.085200
     48 H5C2        6.8910    1.9830   -5.7340 hc        1 K03      0.085200
     49 H5C3        6.1680    0.4390   -6.3730 hc        1 K03      0.085200
     50 H1C1        5.0450    4.7710   -3.9140 hc        1 K03      0.085200
     51 H1C2        4.9850    3.4750   -2.6430 hc        1 K03      0.085200
     52 H1C3        6.3510    3.5190   -3.8450 hc        1 K03      0.085200
     53 H102        2.2480    1.0890   -0.6480 hn        1 K03      0.467300
     54 H31         4.0010    0.9250   -5.2340 hn        1 K03      0.461800
@<TRIPOS>BOND
     1    1    2 2   
     2    2    3 1   
     3    2    8 1   
     4    3    4 1   
     5    3    7 2   
     6    4    5 1   
     7    5    6 2   
     8    5   29 1   
     9    6    7 1   
    10    6   30 1   
    11    7   28 1   
    12    8    9 1   
    13    8   27 1   
    14    8   53 1   
    15    9   10 1   
    16    9   19 2   
    17   10   11 1   
    18   11   12 2   
    19   11   18 1   
    20   12   13 1   
    21   12   19 1   
    22   13   14 1   
    23   13   33 1   
    24   13   34 1   
    25   14   15 1   
    26   14   16 1   
    27   14   17 1   
    28   15   35 1   
    29   15   36 1   
    30   15   37 1   
    31   16   38 1   
    32   16   39 1   
    33   16   40 1   
    34   17   18 1   
    35   17   41 1   
    36   17   42 1   
    37   18   31 1   
    38   18   32 1   
    39   19   20 1   
    40   20   21 2   
    41   20   22 1   
    42   22   23 1   
    43   22   25 1   
    44   22   54 1   
    45   23   24 1   
    46   23   43 1   
    47   23   44 1   
    48   24   47 1   
    49   24   48 1   
    50   24   49 1   
    51   25   26 1   
    52   25   45 1   
    53   25   46 1   
    54   26   50 1   
    55   26   51 1   
    56   26   52 1   
@<TRIPOS>SUBSTRUCTURE
     1 K03         1 TEMP              0 ****  ****    0 ROOT
