@<TRIPOS>MOLECULE
K05
   42    44     1     0     0
SMALL
bcc


@<TRIPOS>ATOM
      1 N1          0.7490    0.6830   -1.8120 n2        1 K05     -0.542400
      2 N2          2.1090    0.3480   -1.8390 ny        1 K05     -0.368900
      3 C3          2.6560   -0.7570   -0.9310 c         1 K05      0.559700
      4 O3          2.2000   -1.8750   -1.1350 o         1 K05     -0.440100
      5 C1'         3.6260   -0.3410    0.0780 ca        1 K05     -0.200600
      6 C2'         3.5900   -1.0240    1.3060 ca        1 K05     -0.065000
      7 C3'         4.5010   -0.6820    2.3090 ca        1 K05      0.120100
      8 C4'         5.4610    0.3340    2.0690 ca        1 K05      0.119100
      9 C5'         5.4990    0.9920    0.8330 ca        1 K05     -0.174000
     10 C6'         4.5820    0.6570   -0.1580 ca        1 K05     -0.085000
     11 OH3         6.3140    0.6020    3.1040 oh        1 K05     -0.486100
     12 OH4         4.4090   -1.3630    3.4920 oh        1 K05     -0.469100
     13 C11        -0.1940   -0.1870   -1.5540 ce        1 K05      0.577800
     14 C12        -1.6010    0.1870   -1.5190 ca        1 K05     -0.258900
     15 C13        -2.0600    1.3500   -0.8910 ca        1 K05      0.227100
     16 O13        -1.1180    2.1400   -0.2830 os        1 K05     -0.328900
     17 C14        -3.4500    1.6490   -0.8450 ca        1 K05     -0.221000
     18 C15        -4.3520    0.7930   -1.4200 ca        1 K05     -0.012000
     19 C25        -3.9260   -0.3990   -2.0690 ca        1 K05     -0.082000
     20 C16        -4.8700   -1.2760   -2.6640 ca        1 K05     -0.083000
     21 C17        -4.4550   -2.4210   -3.3040 ca        1 K05     -0.131000
     22 C18        -3.0780   -2.7250   -3.3770 ca        1 K05     -0.074000
     23 C19        -2.1440   -1.8880   -2.8090 ca        1 K05     -0.165000
     24 C29        -2.5420   -0.7080   -2.1280 ca        1 K05      0.033000
     25 C10        -1.5820    3.3200    0.3770 c3        1 K05      0.110700
     26 HN2         2.3570    0.1080   -2.8140 hn        1 K05      0.466800
     27 H2'         2.8590   -1.8290    1.4910 ha        1 K05      0.184000
     28 H5'         6.2570    1.7690    0.6460 ha        1 K05      0.165000
     29 H6'         4.6570    1.1690   -1.1300 ha        1 K05      0.135000
     30 HOH3        6.9470    1.2840    2.8250 ho        1 K05      0.455000
     31 HOH4        5.1200   -1.0610    4.0830 ho        1 K05      0.458000
     32 H112       -0.0080   -1.2740   -1.3550 h4        1 K05      0.038800
     33 H14        -3.7990    2.5670   -0.3490 ha        1 K05      0.159000
     34 H15        -5.4320    1.0190   -1.3890 ha        1 K05      0.156000
     35 H16        -5.9400   -1.0220   -2.6040 ha        1 K05      0.149000
     36 H17        -5.1840   -3.1050   -3.7640 ha        1 K05      0.154000
     37 H18        -2.7580   -3.6410   -3.8990 ha        1 K05      0.148000
     38 H19        -1.0770   -2.1400   -2.8960 ha        1 K05      0.123000
     39 H101       -2.2700    3.0540    1.2150 h1        1 K05      0.060367
     40 H102       -0.6360    3.7740    0.7700 h1        1 K05      0.060367
     41 H103       -2.0780    4.0060   -0.3500 h1        1 K05      0.060367
     42 H22         2.5750    1.2400   -1.5940 hn        1 K05      0.466800
@<TRIPOS>BOND
     1    1    2 1   
     2    1   13 2   
     3    2    3 1   
     4    2   26 1   
     5    2   42 1   
     6    3    4 2   
     7    3    5 1   
     8    5    6 ar  
     9    5   10 ar  
    10    6    7 ar  
    11    6   27 1   
    12    7    8 ar  
    13    7   12 1   
    14    8    9 ar  
    15    8   11 1   
    16    9   10 ar  
    17    9   28 1   
    18   10   29 1   
    19   11   30 1   
    20   12   31 1   
    21   13   14 1   
    22   13   32 1   
    23   14   15 ar  
    24   14   24 ar  
    25   15   16 1   
    26   15   17 ar  
    27   16   25 1   
    28   17   18 ar  
    29   17   33 1   
    30   18   19 ar  
    31   18   34 1   
    32   19   20 ar  
    33   19   24 ar  
    34   20   21 ar  
    35   20   35 1   
    36   21   22 ar  
    37   21   36 1   
    38   22   23 ar  
    39   22   37 1   
    40   23   24 ar  
    41   23   38 1   
    42   25   39 1   
    43   25   40 1   
    44   25   41 1   
@<TRIPOS>SUBSTRUCTURE
     1 K05         1 TEMP              0 ****  ****    0 ROOT
