@<TRIPOS>MOLECULE
K05
   42    43     1     0     0
SMALL
bcc


@<TRIPOS>ATOM
      1 N1         -1.0830    3.2500   -2.5310 n1        1 K05      0.062000
      2 N2          2.1610   -2.6150   -0.6070 n         1 K05     -0.403000
      3 C3          1.9820   -1.3310   -0.1830 c2        1 K05      0.382000
      4 O3          0.8800   -0.7540   -0.3920 o         1 K05     -0.486000
      5 C1'         3.0950   -0.6440    0.5250 ca        1 K05     -0.139000
      6 C2'         2.7630    0.2120    1.5820 ca        1 K05     -0.104000
      7 C3'         3.7750    0.8910    2.2650 ca        1 K05      0.063000
      8 C4'         5.1250    0.7040    1.8820 ca        1 K05      0.040000
      9 C5'         5.4450   -0.1510    0.8240 ca        1 K05     -0.173000
     10 C6'         4.4280   -0.8240    0.1470 ca        1 K05     -0.093000
     11 OH3         6.0560    1.4090    2.6060 oh        1 K05     -0.255000
     12 OH4         3.3930    1.7340    3.2780 oh        1 K05     -0.247000
     13 C11        -1.2760    2.1900   -2.0960 c1        1 K05     -0.178000
     14 C12        -1.5260    0.8410   -1.6160 c3        1 K05     -0.028000
     15 C13        -2.0800    0.8510   -0.2230 c2        1 K05      0.310000
     16 O13        -1.4600    1.4090    0.8060 os        1 K05     -0.116000
     17 C14        -3.3080    0.2160    0.0970 c2        1 K05     -0.270000
     18 C15        -4.0280   -0.4400   -0.8670 c2        1 K05      0.124000
     19 C25        -3.5770   -0.5280   -2.2220 ca        1 K05     -0.134000
     20 C16        -4.3310   -1.2330   -3.1830 ca        1 K05     -0.049000
     21 C17        -3.8900   -1.3100   -4.4980 ca        1 K05     -0.125000
     22 C18        -2.6950   -0.6900   -4.8740 ca        1 K05     -0.046000
     23 C19        -1.9380    0.0100   -3.9340 ca        1 K05     -0.128000
     24 C29        -2.3700    0.0960   -2.6080 ca        1 K05     -0.020000
     25 C10        -0.1730    2.0440    0.6460 c3        1 K05     -0.111000
     26 HN2         1.4200   -3.0980   -1.0530 hn        1 K05      0.238000
     27 H2'         1.7140    0.3510    1.8830 ha        1 K05      0.154000
     28 H5'         6.4950   -0.2910    0.5250 ha        1 K05      0.154000
     29 H6'         4.6930   -1.4810   -0.6950 ha        1 K05      0.145000
     30 HOH3        6.9390    1.1740    2.2830 ho        1 K05      0.244000
     31 HOH4        4.1940    2.0750    3.7090 ho        1 K05      0.251000
     32 H112       -0.5180    0.2840   -1.5540 hc        1 K05      0.244000
     33 H14        -3.6610    0.2640    1.1430 ha        1 K05      0.197000
     34 H15        -4.9880   -0.9240   -0.6000 ha        1 K05      0.178000
     35 H16        -5.2720   -1.7220   -2.8830 ha        1 K05      0.160000
     36 H17        -4.4840   -1.8600   -5.2470 ha        1 K05      0.169000
     37 H18        -2.3490   -0.7500   -5.9200 ha        1 K05      0.167000
     38 H19        -0.9980    0.4980   -4.2400 ha        1 K05      0.163000
     39 H101        0.1420    2.2010    1.7120 h1        1 K05      0.141667
     40 H102        0.5350    1.3600    0.1110 h1        1 K05      0.141667
     41 H103       -0.3100    3.0190    0.1200 h1        1 K05      0.141667
     42 H22         2.9940   -3.1080   -0.4010 hn        1 K05      0.238000
@<TRIPOS>BOND
     1    1   13 1   
     2    2    3 1   
     3    2   26 1   
     4    2   42 1   
     5    3    4 1   
     6    3    5 1   
     7    5    6 1   
     8    5   10 1   
     9    6    7 1   
    10    6   27 1   
    11    7    8 1   
    12    7   12 1   
    13    8    9 1   
    14    8   11 1   
    15    9   10 1   
    16    9   28 1   
    17   10   29 1   
    18   11   30 1   
    19   12   31 1   
    20   13   14 1   
    21   14   15 1   
    22   14   24 1   
    23   14   32 1   
    24   15   16 1   
    25   15   17 1   
    26   16   25 1   
    27   17   18 1   
    28   17   33 1   
    29   18   19 1   
    30   18   34 1   
    31   19   20 1   
    32   19   24 1   
    33   20   21 1   
    34   20   35 1   
    35   21   22 1   
    36   21   36 1   
    37   22   23 1   
    38   22   37 1   
    39   23   24 1   
    40   23   38 1   
    41   25   39 1   
    42   25   40 1   
    43   25   41 1   
@<TRIPOS>SUBSTRUCTURE
     1 K05         1 TEMP              0 ****  ****    0 ROOT
