@<TRIPOS>MOLECULE
K05
   41    43     1     0     0
SMALL
bcc


@<TRIPOS>ATOM
      1 N1          5.1810   -2.1080   -2.0200 n2        1 K05     -0.381300
      2 N2          6.0610   -1.1550   -2.3200 n         1 K05     -0.348900
      3 C3          6.7750   -1.1290   -3.5390 c         1 K05      0.699700
      4 O3          6.6570   -1.9920   -4.4190 o         1 K05     -0.528100
      5 C1'         7.7160    0.0210   -3.6790 ca        1 K05     -0.154600
      6 C2'         8.9800   -0.2440   -4.2200 ca        1 K05     -0.119000
      7 C3'         9.8840    0.8050   -4.3880 ca        1 K05      0.034100
      8 C4'         9.5260    2.1240   -4.0230 ca        1 K05      0.137100
      9 C5'         8.2530    2.3760   -3.4950 ca        1 K05     -0.145000
     10 C6'         7.3550    1.3240   -3.3260 ca        1 K05     -0.099000
     11 OH3        10.3780    3.1890   -4.1590 oh        1 K05     -0.488100
     12 OH4        11.1550    0.6410   -4.8970 oh        1 K05     -0.515100
     13 C11         4.5540   -2.0960   -0.8740 ce        1 K05      0.341800
     14 C12         3.5780   -3.1400   -0.5350 ca        1 K05     -0.132900
     15 C13         3.9440   -4.4650   -0.3680 ca        1 K05      0.127100
     16 O13         5.2290   -4.9260   -0.6240 os        1 K05     -0.330900
     17 C14         2.9840   -5.4550   -0.0130 ca        1 K05     -0.135000
     18 C15         1.6750   -5.1000    0.1710 ca        1 K05     -0.102000
     19 C25         1.2610   -3.7470    0.0180 ca        1 K05     -0.047000
     20 C16        -0.0960   -3.3690    0.2120 ca        1 K05     -0.112000
     21 C17        -0.4880   -2.0630    0.0490 ca        1 K05     -0.131000
     22 C18         0.4590   -1.0780   -0.3190 ca        1 K05     -0.121000
     23 C19         1.7760   -1.4170   -0.5100 ca        1 K05     -0.121000
     24 C29         2.2140   -2.7600   -0.3430 ca        1 K05     -0.008000
     25 C10         6.1860   -4.5460    0.3630 c3        1 K05      0.119700
     26 HN2         6.2730   -0.4280   -1.6590 hn        1 K05      0.296500
     27 H2'         9.2440   -1.2700   -4.5220 ha        1 K05      0.160000
     28 H5'         7.9780    3.4060   -3.2260 ha        1 K05      0.160000
     29 H6'         6.3510    1.5410   -2.9330 ha        1 K05      0.141000
     30 HOH3       11.1990    2.8700   -4.5680 ho        1 K05      0.443000
     31 HOH4       11.2320   -0.2700   -5.2190 ho        1 K05      0.436000
     32 H112        4.6820   -1.3250   -0.0820 h4        1 K05     -0.009200
     33 H14         3.3230   -6.4970    0.0920 ha        1 K05      0.150000
     34 H15         0.9200   -5.8550    0.4400 ha        1 K05      0.137000
     35 H16        -0.8230   -4.1460    0.4930 ha        1 K05      0.133000
     36 H17        -1.5370   -1.7690    0.1970 ha        1 K05      0.134000
     37 H18         0.1240   -0.0390   -0.4520 ha        1 K05      0.133000
     38 H19         2.5100   -0.6520   -0.8070 ha        1 K05      0.132000
     39 H101        7.1520   -4.9420   -0.0390 h1        1 K05      0.038700
     40 H102        5.9380   -5.0200    1.3440 h1        1 K05      0.038700
     41 H103        6.2270   -3.4350    0.4700 h1        1 K05      0.038700
@<TRIPOS>BOND
     1    1    2 1   
     2    1   13 2   
     3    2    3 1   
     4    2   26 1   
     5    3    4 2   
     6    3    5 1   
     7    5    6 ar  
     8    5   10 ar  
     9    6    7 ar  
    10    6   27 1   
    11    7    8 ar  
    12    7   12 1   
    13    8    9 ar  
    14    8   11 1   
    15    9   10 ar  
    16    9   28 1   
    17   10   29 1   
    18   11   30 1   
    19   12   31 1   
    20   13   14 1   
    21   13   32 1   
    22   14   15 ar  
    23   14   24 ar  
    24   15   16 1   
    25   15   17 ar  
    26   16   25 1   
    27   17   18 ar  
    28   17   33 1   
    29   18   19 ar  
    30   18   34 1   
    31   19   20 ar  
    32   19   24 ar  
    33   20   21 ar  
    34   20   35 1   
    35   21   22 ar  
    36   21   36 1   
    37   22   23 ar  
    38   22   37 1   
    39   23   24 ar  
    40   23   38 1   
    41   25   39 1   
    42   25   40 1   
    43   25   41 1   
@<TRIPOS>SUBSTRUCTURE
     1 K05         1 TEMP              0 ****  ****    0 ROOT
