@<TRIPOS>MOLECULE
K05
   42    43     1     0     0
SMALL
bcc


@<TRIPOS>ATOM
      1 N1         -2.4250   -4.1060    0.0490 n1        1 K05      0.070000
      2 N2          2.5030    3.6870   -1.0500 n         1 K05     -0.408000
      3 C3          2.3490    2.4870   -0.4150 c2        1 K05      0.375000
      4 O3          1.2430    1.8890   -0.4770 o         1 K05     -0.471000
      5 C1'         3.4950    1.9220    0.3460 ca        1 K05     -0.135000
      6 C2'         3.2050    1.2040    1.5130 ca        1 K05     -0.100000
      7 C3'         4.2450    0.6450    2.2590 ca        1 K05      0.064000
      8 C4'         5.5830    0.8080    1.8250 ca        1 K05      0.038000
      9 C5'         5.8610    1.5200    0.6550 ca        1 K05     -0.174000
     10 C6'         4.8160    2.0760   -0.0820 ca        1 K05     -0.094000
     11 OH3         6.5450    0.2270    2.6160 oh        1 K05     -0.257000
     12 OH4         3.9030   -0.0580    3.3870 oh        1 K05     -0.246000
     13 C11        -2.6600   -3.0180   -0.2830 c1        1 K05     -0.174000
     14 C12        -2.9640   -1.6580   -0.6920 c3        1 K05      0.024000
     15 C13        -1.7640   -0.7640   -0.4830 c2        1 K05      0.286000
     16 O13        -1.2650   -0.8530    0.7410 os        1 K05     -0.131000
     17 C14        -1.2810    0.0880   -1.4930 c2        1 K05     -0.319000
     18 C15        -1.8650    0.0930   -2.7370 c2        1 K05      0.145000
     19 C25        -2.9790   -0.7440   -3.0590 ca        1 K05     -0.143000
     20 C16        -3.5470   -0.7140   -4.3480 ca        1 K05     -0.043000
     21 C17        -4.6200   -1.5410   -4.6600 ca        1 K05     -0.126000
     22 C18        -5.1410   -2.4060   -3.6940 ca        1 K05     -0.039000
     23 C19        -4.5910   -2.4450   -2.4110 ca        1 K05     -0.127000
     24 C29        -3.5140   -1.6200   -2.0860 ca        1 K05     -0.025000
     25 C10        -0.1210   -0.0440    1.1080 c3        1 K05     -0.094000
     26 HN2         1.7380    4.0940   -1.5290 hn        1 K05      0.236000
     27 H2'         2.1640    1.0770    1.8470 ha        1 K05      0.151000
     28 H5'         6.9020    1.6410    0.3170 ha        1 K05      0.153000
     29 H6'         5.0510    2.6200   -1.0090 ha        1 K05      0.144000
     30 HOH3        7.4150    0.4330    2.2410 ho        1 K05      0.243000
     31 HOH4        4.7210   -0.3380    3.8300 ho        1 K05      0.249000
     32 H112       -3.7780   -1.2570    0.0050 hc        1 K05      0.198000
     33 H14        -0.4160    0.7510   -1.2820 ha        1 K05      0.229000
     34 H15        -1.4650    0.7620   -3.5260 ha        1 K05      0.177000
     35 H16        -3.1340   -0.0310   -5.1090 ha        1 K05      0.160000
     36 H17        -5.0610   -1.5150   -5.6710 ha        1 K05      0.171000
     37 H18        -5.9900   -3.0650   -3.9440 ha        1 K05      0.170000
     38 H19        -5.0070   -3.1350   -1.6570 ha        1 K05      0.167000
     39 H101       -0.3890    1.0390    1.0450 h1        1 K05      0.139667
     40 H102        0.0680   -0.3720    2.1630 h1        1 K05      0.139667
     41 H103        0.7430   -0.2770    0.4370 h1        1 K05      0.139667
     42 H22         3.3400    4.2070   -0.9610 hn        1 K05      0.236000
@<TRIPOS>BOND
     1    1   13 1   
     2    2    3 1   
     3    2   26 1   
     4    2   42 1   
     5    3    4 1   
     6    3    5 1   
     7    5    6 1   
     8    5   10 1   
     9    6    7 1   
    10    6   27 1   
    11    7    8 1   
    12    7   12 1   
    13    8    9 1   
    14    8   11 1   
    15    9   10 1   
    16    9   28 1   
    17   10   29 1   
    18   11   30 1   
    19   12   31 1   
    20   13   14 1   
    21   14   15 1   
    22   14   24 1   
    23   14   32 1   
    24   15   16 1   
    25   15   17 1   
    26   16   25 1   
    27   17   18 1   
    28   17   33 1   
    29   18   19 1   
    30   18   34 1   
    31   19   20 1   
    32   19   24 1   
    33   20   21 1   
    34   20   35 1   
    35   21   22 1   
    36   21   36 1   
    37   22   23 1   
    38   22   37 1   
    39   23   24 1   
    40   23   38 1   
    41   25   39 1   
    42   25   40 1   
    43   25   41 1   
@<TRIPOS>SUBSTRUCTURE
     1 K05         1 TEMP              0 ****  ****    0 ROOT
