@<TRIPOS>MOLECULE
K08
   51    54     1     0     0
SMALL
bcc


@<TRIPOS>ATOM
      1 C01         0.0700   -0.0230   -0.3560 c3        1 K08     -0.053900
      2 C02         1.5100   -0.0770   -0.0830 cc        1 K08     -0.072200
      3 C03         2.1470   -0.0290    1.1280 cd        1 K08     -0.076400
      4 C04         3.6000   -0.1020    0.9050 ca        1 K08     -0.061800
      5 C05         3.8280   -0.2090   -0.5080 ca        1 K08     -0.065800
      6 C06         2.5160   -0.1990   -1.1780 cc        1 K08     -0.028200
      7 C07         2.1970   -0.2610   -2.4790 cf        1 K08     -0.053200
      8 C08         3.0990   -0.4180   -3.6100 ca        1 K08     -0.073800
      9 C09         3.9220   -1.5450   -3.7380 ca        1 K08     -0.114500
     10 C10         4.7310   -1.7020   -4.8610 ca        1 K08     -0.129000
     11 C11         4.7390   -0.7380   -5.8740 ca        1 K08     -0.066300
     12 C12         3.9160    0.3880   -5.7460 ca        1 K08     -0.129000
     13 C13         3.0980    0.5440   -4.6300 ca        1 K08     -0.114500
     14 C14         5.6150   -0.9160   -7.0740 c3        1 K08     -0.025400
     15 C15         4.7880   -1.0050   -8.3430 c3        1 K08     -0.088100
     16 C16         6.6300    0.2070   -7.1790 c3        1 K08     -0.088100
     17 C17         5.1190   -0.2720   -0.9970 ca        1 K08     -0.100000
     18 C18         6.1890   -0.2390   -0.0900 ca        1 K08     -0.134000
     19 C19         5.9660   -0.1410    1.2790 ca        1 K08     -0.126000
     20 C20         4.6620   -0.0690    1.7900 ca        1 K08     -0.117000
     21 C21         1.5530    0.1010    2.4710 c3        1 K08     -0.020200
     22 C22         1.5630   -1.2360    3.1970 c3        1 K08     -0.106700
     23 C23         1.0220   -1.1220    4.5730 cc        1 K08      0.395800
     24 N24         0.2400   -0.1540    5.1420 nd        1 K08     -0.377000
     25 N25         0.0110   -0.5290    6.3990 nd        1 K08     -0.048000
     26 N26         0.5710   -1.6450    6.6930 nc        1 K08     -0.195800
     27 N27         1.2190   -2.0720    5.5990 na        1 K08     -0.192400
     28 H1         -0.2560   -0.9410   -0.9090 hc        1 K08      0.049700
     29 H2         -0.1710    0.8690   -0.9890 hc        1 K08      0.049700
     30 H3         -0.5240    0.0470    0.5890 hc        1 K08      0.049700
     31 H4          1.1300   -0.1820   -2.7680 ha        1 K08      0.134000
     32 H5          3.9250   -2.3090   -2.9460 ha        1 K08      0.138000
     33 H6          5.3670   -2.5960   -4.9480 ha        1 K08      0.134500
     34 H7          3.9140    1.1550   -6.5360 ha        1 K08      0.134500
     35 H8          2.4520    1.4310   -4.5430 ha        1 K08      0.138000
     36 H9          6.1830   -1.8850   -6.9630 hc        1 K08      0.051700
     37 H10         5.4560   -1.1730   -9.2220 hc        1 K08      0.037200
     38 H11         4.2170   -0.0600   -8.5080 hc        1 K08      0.037200
     39 H12         4.0630   -1.8510   -8.2770 hc        1 K08      0.037200
     40 H13         6.1170    1.1910   -7.3060 hc        1 K08      0.037200
     41 H14         7.2580    0.2520   -6.2570 hc        1 K08      0.037200
     42 H15         7.2960    0.0380   -8.0590 hc        1 K08      0.037200
     43 H16         5.3120   -0.3430   -2.0790 ha        1 K08      0.146000
     44 H17         7.2190   -0.2890   -0.4740 ha        1 K08      0.132000
     45 H18         6.8190   -0.1130    1.9730 ha        1 K08      0.131000
     46 H19         4.4920    0.0210    2.8730 ha        1 K08      0.132000
     47 H20         0.4990    0.4840    2.4000 hc        1 K08      0.071200
     48 H21         2.1400    0.8530    3.0660 hc        1 K08      0.071200
     49 H22         0.9400   -1.9800    2.6300 hc        1 K08      0.071200
     50 H23         2.6160   -1.6290    3.2370 hc        1 K08      0.071200
     51 H24         1.7350   -2.9190    5.5780 hn        1 K08      0.331700
@<TRIPOS>BOND
     1    1    2 1   
     2    1   28 1   
     3    1   29 1   
     4    1   30 1   
     5    2    3 2   
     6    2    6 1   
     7    3    4 1   
     8    3   21 1   
     9    4    5 ar  
    10    4   20 ar  
    11    5    6 1   
    12    5   17 ar  
    13    6    7 2   
    14    7    8 1   
    15    7   31 1   
    16    8    9 ar  
    17    8   13 ar  
    18    9   10 ar  
    19    9   32 1   
    20   10   11 ar  
    21   10   33 1   
    22   11   12 ar  
    23   11   14 1   
    24   12   13 ar  
    25   12   34 1   
    26   13   35 1   
    27   14   15 1   
    28   14   16 1   
    29   14   36 1   
    30   15   37 1   
    31   15   38 1   
    32   15   39 1   
    33   16   40 1   
    34   16   41 1   
    35   16   42 1   
    36   17   18 ar  
    37   17   43 1   
    38   18   19 ar  
    39   18   44 1   
    40   19   20 ar  
    41   19   45 1   
    42   20   46 1   
    43   21   22 1   
    44   21   47 1   
    45   21   48 1   
    46   22   23 1   
    47   22   49 1   
    48   22   50 1   
    49   23   24 2   
    50   23   27 1   
    51   24   25 1   
    52   25   26 2   
    53   26   27 1   
    54   27   51 1   
@<TRIPOS>SUBSTRUCTURE
     1 K08         1 TEMP              0 ****  ****    0 ROOT
