@<TRIPOS>MOLECULE
K08
   51    54     1     0     0
SMALL
bcc


@<TRIPOS>ATOM
      1 C01         0.0790    0.0150   -0.3450 c3        1 K08     -0.053900
      2 C02         1.5190   -0.0630   -0.0760 cc        1 K08     -0.072200
      3 C03         2.1590   -0.0370    1.1350 cd        1 K08     -0.076400
      4 C04         3.6100   -0.1300    0.9080 ca        1 K08     -0.061800
      5 C05         3.8330   -0.2250   -0.5060 ca        1 K08     -0.065800
      6 C06         2.5210   -0.1890   -1.1740 cc        1 K08     -0.028200
      7 C07         2.1990   -0.2330   -2.4740 cf        1 K08     -0.053200
      8 C08         3.0960   -0.3930   -3.6090 ca        1 K08     -0.073800
      9 C09         3.9020   -1.5290   -3.7490 ca        1 K08     -0.114500
     10 C10         4.7070   -1.6880   -4.8750 ca        1 K08     -0.129000
     11 C11         4.7270   -0.7140   -5.8790 ca        1 K08     -0.066300
     12 C12         3.9210    0.4230   -5.7380 ca        1 K08     -0.129000
     13 C13         3.1080    0.5800   -4.6200 ca        1 K08     -0.114500
     14 C14         5.5990   -0.8930   -7.0820 c3        1 K08     -0.025400
     15 C15         4.7690   -0.9580   -8.3510 c3        1 K08     -0.088100
     16 C16         6.6290    0.2160   -7.1780 c3        1 K08     -0.088100
     17 C17         5.1230   -0.3020   -0.9980 ca        1 K08     -0.100000
     18 C18         6.1950   -0.2940   -0.0920 ca        1 K08     -0.134000
     19 C19         5.9750   -0.2070    1.2780 ca        1 K08     -0.126000
     20 C20         4.6730   -0.1210    1.7920 ca        1 K08     -0.117000
     21 C21         1.5680    0.0870    2.4800 c3        1 K08     -0.020200
     22 C22         1.5600   -1.2560    3.1920 c3        1 K08     -0.105700
     23 C23         1.0240   -1.1490    4.5710 cc        1 K08      0.395800
     24 N24         0.2480   -0.1800    5.1480 nd        1 K08     -0.377000
     25 N25         0.0210   -0.5620    6.4040 nd        1 K08     -0.048000
     26 N26         0.5750   -1.6830    6.6880 nc        1 K08     -0.195800
     27 N27         1.2180   -2.1070    5.5900 na        1 K08     -0.192400
     28 H1         -0.2610   -0.8920   -0.9070 hc        1 K08      0.049700
     29 H2         -0.1490    0.9170   -0.9690 hc        1 K08      0.049700
     30 H3         -0.5120    0.0840    0.6010 hc        1 K08      0.049700
     31 H4          1.1330   -0.1350   -2.7610 ha        1 K08      0.134000
     32 H5          3.8950   -2.3020   -2.9650 ha        1 K08      0.138000
     33 H6          5.3300   -2.5900   -4.9720 ha        1 K08      0.134500
     34 H7          3.9290    1.1970   -6.5200 ha        1 K08      0.134500
     35 H8          2.4750    1.4750   -4.5220 ha        1 K08      0.138000
     36 H9          6.1520   -1.8720   -6.9810 hc        1 K08      0.051700
     37 H10         5.4320   -1.1270   -9.2320 hc        1 K08      0.037200
     38 H11         4.2100   -0.0030   -8.5050 hc        1 K08      0.037200
     39 H12         4.0320   -1.7940   -8.2920 hc        1 K08      0.037200
     40 H13         6.1310    1.2090   -7.2950 hc        1 K08      0.037200
     41 H14         7.2600    0.2430   -6.2580 hc        1 K08      0.037200
     42 H15         7.2920    0.0460   -8.0610 hc        1 K08      0.037200
     43 H16         5.3130   -0.3650   -2.0800 ha        1 K08      0.146000
     44 H17         7.2230   -0.3550   -0.4790 ha        1 K08      0.132000
     45 H18         6.8290   -0.1990    1.9710 ha        1 K08      0.131000
     46 H19         4.5060   -0.0400    2.8760 ha        1 K08      0.132000
     47 H20         0.5200    0.4870    2.4150 hc        1 K08      0.070700
     48 H21         2.1670    0.8250    3.0820 hc        1 K08      0.070700
     49 H22         0.9230   -1.9850    2.6190 hc        1 K08      0.071200
     50 H23         2.6060   -1.6670    3.2250 hc        1 K08      0.071200
     51 H24         1.7280   -2.9570    5.5610 hn        1 K08      0.331700
@<TRIPOS>BOND
     1    1    2 1   
     2    1   28 1   
     3    1   29 1   
     4    1   30 1   
     5    2    3 2   
     6    2    6 1   
     7    3    4 1   
     8    3   21 1   
     9    4    5 ar  
    10    4   20 ar  
    11    5    6 1   
    12    5   17 ar  
    13    6    7 2   
    14    7    8 1   
    15    7   31 1   
    16    8    9 ar  
    17    8   13 ar  
    18    9   10 ar  
    19    9   32 1   
    20   10   11 ar  
    21   10   33 1   
    22   11   12 ar  
    23   11   14 1   
    24   12   13 ar  
    25   12   34 1   
    26   13   35 1   
    27   14   15 1   
    28   14   16 1   
    29   14   36 1   
    30   15   37 1   
    31   15   38 1   
    32   15   39 1   
    33   16   40 1   
    34   16   41 1   
    35   16   42 1   
    36   17   18 ar  
    37   17   43 1   
    38   18   19 ar  
    39   18   44 1   
    40   19   20 ar  
    41   19   45 1   
    42   20   46 1   
    43   21   22 1   
    44   21   47 1   
    45   21   48 1   
    46   22   23 1   
    47   22   49 1   
    48   22   50 1   
    49   23   24 2   
    50   23   27 1   
    51   24   25 1   
    52   25   26 2   
    53   26   27 1   
    54   27   51 1   
@<TRIPOS>SUBSTRUCTURE
     1 K08         1 TEMP              0 ****  ****    0 ROOT
