@<TRIPOS>MOLECULE
K09
   51    54     1     0     0
SMALL
bcc


@<TRIPOS>ATOM
      1 C01         0.1200    0.4840   -0.1960 c3        1 K09     -0.057900
      2 C02         1.5520    0.2710    0.0360 cc        1 K09     -0.058200
      3 C03         2.1940    0.0480    1.2250 cd        1 K09     -0.084400
      4 C04         3.6340   -0.1070    0.9650 ca        1 K09     -0.033800
      5 C05         3.8490    0.0340   -0.4470 ca        1 K09     -0.078800
      6 C06         2.5430    0.2840   -1.0790 cc        1 K09     -0.033200
      7 C07         2.2170    0.4790   -2.3650 cf        1 K09     -0.046200
      8 C08         3.1130    0.5480   -3.5090 ca        1 K09     -0.077800
      9 C09         2.9350   -0.3400   -4.5790 ca        1 K09     -0.114000
     10 C10         3.7500   -0.2580   -5.7050 ca        1 K09     -0.129000
     11 C11         4.7470    0.7220   -5.7930 ca        1 K09     -0.064300
     12 C12         4.9160    1.6150   -4.7280 ca        1 K09     -0.129000
     13 C13         4.1100    1.5290   -3.5960 ca        1 K09     -0.114000
     14 C14         5.6120    0.8060   -7.0110 c3        1 K09     -0.026400
     15 C15         5.4350    2.1390   -7.7120 c3        1 K09     -0.088100
     16 C16         7.0700    0.5790   -6.6610 c3        1 K09     -0.088100
     17 C17         5.1230   -0.0910   -0.9690 ca        1 K09     -0.076000
     18 C18         6.1970   -0.3440   -0.1070 ca        1 K09     -0.172000
     19 C19         5.9820   -0.4700    1.2740 ca        1 K09      0.127900
     20 C20         4.6840   -0.3520    1.8260 ca        1 K09     -0.155000
     21 F21         7.0300   -0.7130    2.0990 f         1 K09     -0.142900
     22 C22         1.6150   -0.0200    2.5790 c3        1 K09     -0.023200
     23 C23         1.4650   -1.4640    3.0350 c3        1 K09     -0.104700
     24 C24         0.8930   -1.5370    4.4020 cc        1 K09      0.392800
     25 N25        -0.2380   -0.9510    4.9040 nd        1 K09     -0.378000
     26 N26        -0.3380   -1.3300    6.1770 nd        1 K09     -0.048000
     27 N27         0.6200   -2.1020    6.5400 nc        1 K09     -0.194800
     28 N28         1.4260   -2.2730    5.4810 na        1 K09     -0.188400
     29 H1         -0.2820   -0.3000   -0.8870 hc        1 K09      0.052700
     30 H2         -0.4610    0.4410    0.7590 hc        1 K09      0.052700
     31 H3         -0.0520    1.4850   -0.6680 hc        1 K09      0.052700
     32 H5          1.1470    0.6030   -2.6280 ha        1 K09      0.136000
     33 H7          2.1510   -1.1090   -4.5250 ha        1 K09      0.138000
     34 H8          3.6040   -0.9680   -6.5340 ha        1 K09      0.136000
     35 H9          5.6920    2.3930   -4.7870 ha        1 K09      0.136000
     36 H10         4.2520    2.2370   -2.7650 ha        1 K09      0.138000
     37 H11         5.2980   -0.0070   -7.7300 hc        1 K09      0.052700
     38 H12         6.0600    2.1690   -8.6380 hc        1 K09      0.037700
     39 H13         4.3670    2.2920   -7.9970 hc        1 K09      0.037700
     40 H14         5.7480    2.9790   -7.0460 hc        1 K09      0.037700
     41 H15         7.2040   -0.4170   -6.1740 hc        1 K09      0.037700
     42 H16         7.6940    0.6100   -7.5860 hc        1 K09      0.037700
     43 H17         7.4350    1.3680   -5.9600 hc        1 K09      0.037700
     44 H18         5.3020    0.0060   -2.0520 ha        1 K09      0.152000
     45 H19         7.2150   -0.4460   -0.5090 ha        1 K09      0.149000
     46 H20         4.5360   -0.4520    2.9100 ha        1 K09      0.146000
     47 H21         0.6130    0.4870    2.6020 hc        1 K09      0.069200
     48 H22         2.2850    0.5290    3.2960 hc        1 K09      0.069200
     49 H23         0.7760   -2.0140    2.3350 hc        1 K09      0.073200
     50 H24         2.4650   -1.9750    3.0010 hc        1 K09      0.073200
     51 H25         2.2430   -2.8360    5.5130 hn        1 K09      0.333700
@<TRIPOS>BOND
     1    1    2 1   
     2    1   29 1   
     3    1   30 1   
     4    1   31 1   
     5    2    3 2   
     6    2    6 1   
     7    3    4 1   
     8    3   22 1   
     9    4    5 ar  
    10    4   20 ar  
    11    5    6 1   
    12    5   17 ar  
    13    6    7 2   
    14    7    8 1   
    15    7   32 1   
    16    8    9 ar  
    17    8   13 ar  
    18    9   10 ar  
    19    9   33 1   
    20   10   11 ar  
    21   10   34 1   
    22   11   12 ar  
    23   11   14 1   
    24   12   13 ar  
    25   12   35 1   
    26   13   36 1   
    27   14   15 1   
    28   14   16 1   
    29   14   37 1   
    30   15   38 1   
    31   15   39 1   
    32   15   40 1   
    33   16   41 1   
    34   16   42 1   
    35   16   43 1   
    36   17   18 ar  
    37   17   44 1   
    38   18   19 ar  
    39   18   45 1   
    40   19   20 ar  
    41   19   21 1   
    42   20   46 1   
    43   22   23 1   
    44   22   47 1   
    45   22   48 1   
    46   23   24 1   
    47   23   49 1   
    48   23   50 1   
    49   24   25 2   
    50   24   28 1   
    51   25   26 1   
    52   26   27 2   
    53   27   28 1   
    54   28   51 1   
@<TRIPOS>SUBSTRUCTURE
     1 K09         1 TEMP              0 ****  ****    0 ROOT
