@<TRIPOS>MOLECULE
K09
   51    54     1     0     0
SMALL
bcc


@<TRIPOS>ATOM
      1 C01         0.1090    0.4170   -0.2060 c3        1 K09     -0.057900
      2 C02         1.5450    0.2340    0.0300 cc        1 K09     -0.058200
      3 C03         2.1880    0.0280    1.2220 cd        1 K09     -0.084400
      4 C04         3.6320   -0.0980    0.9660 ca        1 K09     -0.033800
      5 C05         3.8480    0.0440   -0.4460 ca        1 K09     -0.078800
      6 C06         2.5390    0.2650   -1.0820 cc        1 K09     -0.033200
      7 C07         2.2120    0.4490   -2.3700 cf        1 K09     -0.046200
      8 C08         3.1090    0.5330   -3.5120 ca        1 K09     -0.077800
      9 C09         2.9520   -0.3610   -4.5800 ca        1 K09     -0.114000
     10 C10         3.7680   -0.2650   -5.7040 ca        1 K09     -0.129000
     11 C11         4.7460    0.7340   -5.7920 ca        1 K09     -0.064300
     12 C12         4.8940    1.6330   -4.7290 ca        1 K09     -0.129000
     13 C13         4.0870    1.5330   -3.5980 ca        1 K09     -0.114000
     14 C14         5.6120    0.8320   -7.0080 c3        1 K09     -0.026400
     15 C15         5.4100    2.1600   -7.7130 c3        1 K09     -0.088100
     16 C16         7.0730    0.6350   -6.6530 c3        1 K09     -0.088100
     17 C17         5.1250   -0.0570   -0.9650 ca        1 K09     -0.076000
     18 C18         6.2020   -0.2860   -0.0990 ca        1 K09     -0.172000
     19 C19         5.9860   -0.4120    1.2820 ca        1 K09      0.127900
     20 C20         4.6850   -0.3180    1.8310 ca        1 K09     -0.155000
     21 F21         7.0360   -0.6300    2.1100 f         1 K09     -0.142900
     22 C22         1.6080   -0.0470    2.5750 c3        1 K09     -0.023200
     23 C23         1.4840   -1.4920    3.0350 c3        1 K09     -0.104700
     24 C24         0.9090   -1.5710    4.4000 cc        1 K09      0.392800
     25 N25        -0.2410   -1.0160    4.8920 nd        1 K09     -0.378000
     26 N26        -0.3350   -1.3870    6.1680 nd        1 K09     -0.048000
     27 N27         0.6440   -2.1270    6.5410 nc        1 K09     -0.194800
     28 N28         1.4590   -2.2820    5.4870 na        1 K09     -0.188400
     29 H1         -0.2750   -0.3780   -0.8960 hc        1 K09      0.052700
     30 H2         -0.4730    0.3650    0.7470 hc        1 K09      0.052700
     31 H3         -0.0820    1.4130   -0.6820 hc        1 K09      0.052700
     32 H5          1.1410    0.5490   -2.6350 ha        1 K09      0.136000
     33 H7          2.1830   -1.1460   -4.5260 ha        1 K09      0.138000
     34 H8          3.6390   -0.9800   -6.5310 ha        1 K09      0.136000
     35 H9          5.6540    2.4260   -4.7880 ha        1 K09      0.136000
     36 H10         4.2120    2.2460   -2.7690 ha        1 K09      0.138000
     37 H11         5.3160    0.0110   -7.7260 hc        1 K09      0.052700
     38 H12         6.0360    2.2000   -8.6370 hc        1 K09      0.037700
     39 H13         4.3400    2.2900   -8.0010 hc        1 K09      0.037700
     40 H14         5.7040    3.0080   -7.0480 hc        1 K09      0.037700
     41 H15         7.2250   -0.3560   -6.1630 hc        1 K09      0.037700
     42 H16         7.6990    0.6770   -7.5770 hc        1 K09      0.037700
     43 H17         7.4200    1.4330   -5.9540 hc        1 K09      0.037700
     44 H18         5.3050    0.0390   -2.0470 ha        1 K09      0.152000
     45 H19         7.2230   -0.3680   -0.4970 ha        1 K09      0.149000
     46 H20         4.5350   -0.4170    2.9140 ha        1 K09      0.146000
     47 H21         0.5950    0.4410    2.5930 hc        1 K09      0.069200
     48 H22         2.2640    0.5180    3.2920 hc        1 K09      0.069200
     49 H23         0.8100   -2.0570    2.3340 hc        1 K09      0.073200
     50 H24         2.4950   -1.9820    3.0060 hc        1 K09      0.073200
     51 H25         2.2930   -2.8200    5.5270 hn        1 K09      0.333700
@<TRIPOS>BOND
     1    1    2 1   
     2    1   29 1   
     3    1   30 1   
     4    1   31 1   
     5    2    3 2   
     6    2    6 1   
     7    3    4 1   
     8    3   22 1   
     9    4    5 ar  
    10    4   20 ar  
    11    5    6 1   
    12    5   17 ar  
    13    6    7 2   
    14    7    8 1   
    15    7   32 1   
    16    8    9 ar  
    17    8   13 ar  
    18    9   10 ar  
    19    9   33 1   
    20   10   11 ar  
    21   10   34 1   
    22   11   12 ar  
    23   11   14 1   
    24   12   13 ar  
    25   12   35 1   
    26   13   36 1   
    27   14   15 1   
    28   14   16 1   
    29   14   37 1   
    30   15   38 1   
    31   15   39 1   
    32   15   40 1   
    33   16   41 1   
    34   16   42 1   
    35   16   43 1   
    36   17   18 ar  
    37   17   44 1   
    38   18   19 ar  
    39   18   45 1   
    40   19   20 ar  
    41   19   21 1   
    42   20   46 1   
    43   22   23 1   
    44   22   47 1   
    45   22   48 1   
    46   23   24 1   
    47   23   49 1   
    48   23   50 1   
    49   24   25 2   
    50   24   28 1   
    51   25   26 1   
    52   26   27 2   
    53   27   28 1   
    54   28   51 1   
@<TRIPOS>SUBSTRUCTURE
     1 K09         1 TEMP              0 ****  ****    0 ROOT
