@<TRIPOS>MOLECULE
K0I
   51    54     1     0     0
SMALL
bcc


@<TRIPOS>ATOM
      1 O2          0.2100    0.8320   -0.2290 o         1 K0I     -0.838800
      2 C1          1.2020    0.0680   -0.0640 c         1 K0I      0.916600
      3 O1          1.6450   -0.3030    1.0570 o         1 K0I     -0.838800
      4 C2          1.9520   -0.4400   -1.3180 c3        1 K0I     -0.221400
      5 C3          0.9920   -0.5260   -2.4920 c3        1 K0I      0.203800
      6 N1          1.6460   -0.7900   -3.7590 nh        1 K0I     -0.845900
      7 C4          1.0310   -0.4850   -4.9520 ca        1 K0I      0.704200
      8 N3          1.7960   -0.4380   -6.1060 nb        1 K0I     -0.788000
      9 C7          1.1190   -0.1970   -7.2580 cp        1 K0I      0.633000
     10 C8          1.9630   -0.1370   -8.5050 cp        1 K0I      0.387300
     11 N4          1.7460   -1.0510   -9.4800 nb        1 K0I     -0.635000
     12 C12         2.5160   -0.9620  -10.5800 ca        1 K0I      0.386200
     13 C11         3.5130    0.0130  -10.7660 ca        1 K0I     -0.254300
     14 C10         3.7250    0.9430   -9.7470 ca        1 K0I     -0.103000
     15 C9          2.9430    0.8740   -8.5940 ca        1 K0I     -0.212300
     16 N2         -0.2110    0.0330   -7.4210 nb        1 K0I     -0.773000
     17 C6         -0.9730   -0.0210   -6.2750 ca        1 K0I      0.659200
     18 C5         -0.3870   -0.2800   -5.0160 ca        1 K0I     -0.433600
     19 N5         -2.3950    0.1390   -6.3360 nh        1 K0I     -0.741300
     20 C22        -3.0030   -0.0230   -7.6480 c3        1 K0I      0.191300
     21 C21        -4.4920   -0.3820   -7.5900 c3        1 K0I     -0.043100
     22 C20        -5.3740    0.7930   -7.3610 ca        1 K0I     -0.068800
     23 C15        -5.3000    1.5250   -6.1640 ca        1 K0I     -0.068800
     24 C14        -4.3240    1.1540   -5.1050 c3        1 K0I     -0.043100
     25 C13        -2.8730    1.2870   -5.5760 c3        1 K0I      0.191300
     26 C19        -6.3060    1.1630   -8.3380 ca        1 K0I     -0.129500
     27 C18        -7.1590    2.2450   -8.1320 ca        1 K0I     -0.137500
     28 C17        -7.0880    2.9690   -6.9430 ca        1 K0I     -0.137500
     29 C16        -6.1630    2.6100   -5.9660 ca        1 K0I     -0.129500
     30 H21C        2.4050   -1.4370   -1.0950 hc        1 K0I      0.032700
     31 H22C        2.7800    0.2830   -1.5260 hc        1 K0I      0.032700
     32 H31C        0.2540   -1.3580   -2.3060 h1        1 K0I      0.060700
     33 H32C        0.4100    0.4420   -2.5400 h1        1 K0I      0.060700
     34 HA          2.6410   -0.8300   -3.7450 hn        1 K0I      0.430800
     35 H5         -0.9970   -0.3440   -4.1050 ha        1 K0I      0.173000
     36 H9          3.0850    1.5800   -7.7640 ha        1 K0I      0.156000
     37 H12         2.3170   -1.7210  -11.3570 h4        1 K0I      0.014100
     38 H11         4.1060    0.0340  -11.6880 ha        1 K0I      0.133000
     39 H10         4.4980    1.7180   -9.8490 ha        1 K0I      0.132000
     40 H221       -2.4820   -0.8750   -8.1730 h1        1 K0I      0.050950
     41 H222       -2.8760    0.9030   -8.2800 h1        1 K0I      0.050950
     42 H131       -2.2280    1.3990   -4.6560 h1        1 K0I      0.050950
     43 H132       -2.7770    2.2360   -6.1800 h1        1 K0I      0.050950
     44 H211       -4.7500   -0.8650   -8.5710 hc        1 K0I      0.059200
     45 H212       -4.6770   -1.1430   -6.7840 hc        1 K0I      0.059200
     46 H19        -6.3650    0.5940   -9.2770 ha        1 K0I      0.128500
     47 H141       -4.4470    1.8280   -4.2150 hc        1 K0I      0.059200
     48 H142       -4.5290    0.1040   -4.7590 hc        1 K0I      0.059200
     49 H16        -6.1080    3.1840   -5.0280 ha        1 K0I      0.128500
     50 H18        -7.8860    2.5270   -8.9070 ha        1 K0I      0.123000
     51 H17        -7.7600    3.8230   -6.7760 ha        1 K0I      0.123000
@<TRIPOS>BOND
     1    1    2 1   
     2    2    3 1   
     3    2    4 1   
     4    4    5 1   
     5    4   30 1   
     6    4   31 1   
     7    5    6 1   
     8    5   32 1   
     9    5   33 1   
    10    6    7 1   
    11    6   34 1   
    12    7    8 ar  
    13    7   18 ar  
    14    8    9 ar  
    15    9   10 1   
    16    9   16 ar  
    17   10   11 ar  
    18   10   15 ar  
    19   11   12 ar  
    20   12   13 ar  
    21   12   37 1   
    22   13   14 ar  
    23   13   38 1   
    24   14   15 ar  
    25   14   39 1   
    26   15   36 1   
    27   16   17 ar  
    28   17   18 ar  
    29   17   19 1   
    30   18   35 1   
    31   19   20 1   
    32   19   25 1   
    33   20   21 1   
    34   20   40 1   
    35   20   41 1   
    36   21   22 1   
    37   21   44 1   
    38   21   45 1   
    39   22   23 ar  
    40   22   26 ar  
    41   23   24 1   
    42   23   29 ar  
    43   24   25 1   
    44   24   47 1   
    45   24   48 1   
    46   25   42 1   
    47   25   43 1   
    48   26   27 ar  
    49   26   46 1   
    50   27   28 ar  
    51   27   50 1   
    52   28   29 ar  
    53   28   51 1   
    54   29   49 1   
@<TRIPOS>SUBSTRUCTURE
     1 K0I         1 TEMP              0 ****  ****    0 ROOT
