@<TRIPOS>MOLECULE
K0I
   51    54     1     0     0
SMALL
bcc


@<TRIPOS>ATOM
      1 O2          0.2100    0.8650   -0.2300 o         1 K0I     -0.838800
      2 C1          1.2050    0.1040   -0.0630 c         1 K0I      0.916600
      3 O1          1.6490   -0.2620    1.0590 o         1 K0I     -0.838800
      4 C2          1.9560   -0.4060   -1.3150 c3        1 K0I     -0.221400
      5 C3          0.9960   -0.4990   -2.4890 c3        1 K0I      0.203800
      6 N1          1.6500   -0.7650   -3.7550 nu        1 K0I     -0.845900
      7 C4          1.0340   -0.4670   -4.9490 ca        1 K0I      0.704200
      8 N3          1.7980   -0.4210   -6.1030 nb        1 K0I     -0.788000
      9 C7          1.1210   -0.1870   -7.2560 cp        1 K0I      0.633000
     10 C8          1.9640   -0.1290   -8.5030 cp        1 K0I      0.387300
     11 N4          1.7500   -1.0480   -9.4750 nb        1 K0I     -0.635000
     12 C12         2.5190   -0.9600  -10.5760 ca        1 K0I      0.386200
     13 C11         3.5130    0.0170  -10.7650 ca        1 K0I     -0.254300
     14 C10         3.7220    0.9520   -9.7500 ca        1 K0I     -0.103000
     15 C9          2.9410    0.8850   -8.5970 ca        1 K0I     -0.212300
     16 N2         -0.2110    0.0380   -7.4200 nb        1 K0I     -0.773000
     17 C6         -0.9710   -0.0130   -6.2730 ca        1 K0I      0.659200
     18 C5         -0.3850   -0.2650   -5.0130 ca        1 K0I     -0.433600
     19 N5         -2.3940    0.1420   -6.3350 nh        1 K0I     -0.741300
     20 C22        -3.0020   -0.0270   -7.6450 c3        1 K0I      0.191300
     21 C21        -4.4900   -0.3900   -7.5850 c3        1 K0I     -0.043100
     22 C20        -5.3750    0.7830   -7.3620 ca        1 K0I     -0.068800
     23 C15        -5.3030    1.5210   -6.1680 ca        1 K0I     -0.068800
     24 C14        -4.3260    1.1570   -5.1080 c3        1 K0I     -0.043100
     25 C13        -2.8750    1.2920   -5.5790 c3        1 K0I      0.191300
     26 C19        -6.3090    1.1470   -8.3390 ca        1 K0I     -0.129500
     27 C18        -7.1650    2.2280   -8.1380 ca        1 K0I     -0.137500
     28 C17        -7.0960    2.9570   -6.9530 ca        1 K0I     -0.137500
     29 C16        -6.1690    2.6040   -5.9740 ca        1 K0I     -0.129500
     30 H21C        2.7820    0.3180   -1.5260 hc        1 K0I      0.032700
     31 H22C        2.4110   -1.4010   -1.0890 hc        1 K0I      0.032700
     32 H31C        0.4110    0.4680   -2.5400 h1        1 K0I      0.060700
     33 H32C        0.2590   -1.3320   -2.3000 h1        1 K0I      0.060700
     34 HA          2.6460   -0.8010   -3.7410 hn        1 K0I      0.430800
     35 H5         -0.9950   -0.3280   -4.1020 ha        1 K0I      0.173000
     36 H9          3.0810    1.5940   -7.7690 ha        1 K0I      0.156000
     37 H12         2.3230   -1.7230  -11.3490 h4        1 K0I      0.014100
     38 H11         4.1060    0.0360  -11.6870 ha        1 K0I      0.133000
     39 H10         4.4930    1.7290   -9.8550 ha        1 K0I      0.132000
     40 H221       -2.4800   -0.8800   -8.1670 h1        1 K0I      0.050950
     41 H222       -2.8780    0.8960   -8.2820 h1        1 K0I      0.050950
     42 H131       -2.2310    1.4110   -4.6600 h1        1 K0I      0.050950
     43 H132       -2.7820    2.2390   -6.1880 h1        1 K0I      0.050950
     44 H211       -4.7470   -0.8780   -8.5640 hc        1 K0I      0.059200
     45 H212       -4.6730   -1.1480   -6.7750 hc        1 K0I      0.059200
     46 H19        -6.3660    0.5730   -9.2760 ha        1 K0I      0.128500
     47 H141       -4.4500    1.8350   -4.2210 hc        1 K0I      0.059200
     48 H142       -4.5280    0.1090   -4.7570 hc        1 K0I      0.059200
     49 H16        -6.1150    3.1830   -5.0390 ha        1 K0I      0.128500
     50 H18        -7.8930    2.5030   -8.9140 ha        1 K0I      0.123000
     51 H17        -7.7690    3.8100   -6.7890 ha        1 K0I      0.123000
@<TRIPOS>BOND
     1    1    2 1   
     2    2    3 1   
     3    2    4 1   
     4    4    5 1   
     5    4   30 1   
     6    4   31 1   
     7    5    6 1   
     8    5   32 1   
     9    5   33 1   
    10    6    7 1   
    11    6   34 1   
    12    7    8 ar  
    13    7   18 ar  
    14    8    9 ar  
    15    9   10 1   
    16    9   16 ar  
    17   10   11 ar  
    18   10   15 ar  
    19   11   12 ar  
    20   12   13 ar  
    21   12   37 1   
    22   13   14 ar  
    23   13   38 1   
    24   14   15 ar  
    25   14   39 1   
    26   15   36 1   
    27   16   17 ar  
    28   17   18 ar  
    29   17   19 1   
    30   18   35 1   
    31   19   20 1   
    32   19   25 1   
    33   20   21 1   
    34   20   40 1   
    35   20   41 1   
    36   21   22 1   
    37   21   44 1   
    38   21   45 1   
    39   22   23 ar  
    40   22   26 ar  
    41   23   24 1   
    42   23   29 ar  
    43   24   25 1   
    44   24   47 1   
    45   24   48 1   
    46   25   42 1   
    47   25   43 1   
    48   26   27 ar  
    49   26   46 1   
    50   27   28 ar  
    51   27   50 1   
    52   28   29 ar  
    53   28   51 1   
    54   29   49 1   
@<TRIPOS>SUBSTRUCTURE
     1 K0I         1 TEMP              0 ****  ****    0 ROOT
