@<TRIPOS>MOLECULE
K0I
   51    54     1     0     0
SMALL
bcc


@<TRIPOS>ATOM
      1 O2          4.1650    4.0590   -0.6950 o         1 K0I     -0.838800
      2 C1          5.1760    3.5460   -0.1360 c         1 K0I      0.916600
      3 O1          6.2380    4.1680    0.1380 o         1 K0I     -0.838800
      4 C2          5.1300    2.0420    0.2220 c3        1 K0I     -0.221400
      5 C3          3.6970    1.6220    0.4950 c3        1 K0I      0.203800
      6 N1          3.5280    0.1880    0.6330 nh        1 K0I     -0.845900
      7 C4          2.2960   -0.4020    0.4580 ca        1 K0I      0.704200
      8 N3          2.2320   -1.7730    0.2690 nb        1 K0I     -0.788000
      9 C7          0.9860   -2.3010    0.1670 cp        1 K0I      0.633000
     10 C8          0.9290   -3.7910   -0.0480 cp        1 K0I      0.387300
     11 N4          0.3370   -4.5610    0.8940 nb        1 K0I     -0.635000
     12 C12         0.3010   -5.8870    0.6630 ca        1 K0I      0.386200
     13 C11         0.8350   -6.4990   -0.4850 ca        1 K0I     -0.254300
     14 C10         1.4460   -5.6890   -1.4430 ca        1 K0I     -0.103000
     15 C9          1.5000   -4.3120   -1.2300 ca        1 K0I     -0.212300
     16 N2         -0.2090   -1.6520    0.2000 nb        1 K0I     -0.773000
     17 C6         -0.1460   -0.2910    0.3940 ca        1 K0I      0.659200
     18 C5          1.0930    0.3750    0.5300 ca        1 K0I     -0.433600
     19 N5         -1.3440    0.4860    0.5120 nh        1 K0I     -0.741300
     20 C22        -2.5630   -0.2550    0.7940 c3        1 K0I      0.191300
     21 C21        -3.6630    0.6010    1.4330 c3        1 K0I     -0.043100
     22 C20        -4.4230    1.4150    0.4490 ca        1 K0I     -0.068800
     23 C15        -3.7880    2.4280   -0.2900 ca        1 K0I     -0.068800
     24 C14        -2.3360    2.6960   -0.1190 c3        1 K0I     -0.043100
     25 C13        -1.4690    1.5010   -0.5260 c3        1 K0I      0.191300
     26 C19        -5.7930    1.1890    0.2700 ca        1 K0I     -0.129500
     27 C18        -6.5290    1.9580   -0.6280 ca        1 K0I     -0.137500
     28 C17        -5.9000    2.9650   -1.3590 ca        1 K0I     -0.137500
     29 C16        -4.5370    3.1970   -1.1890 ca        1 K0I     -0.129500
     30 H21C        5.5570    1.4800   -0.6460 hc        1 K0I      0.032700
     31 H22C        5.7800    1.8580    1.1120 hc        1 K0I      0.032700
     32 H31C        3.3450    2.1020    1.4530 h1        1 K0I      0.060700
     33 H32C        3.0490    2.0190   -0.3430 h1        1 K0I      0.060700
     34 HA          4.3380   -0.3710    0.4800 hn        1 K0I      0.430800
     35 H5          1.1430    1.4580    0.7070 ha        1 K0I      0.173000
     36 H9          1.9810   -3.6390   -1.9530 ha        1 K0I      0.156000
     37 H12        -0.1850   -6.4890    1.4500 h4        1 K0I      0.014100
     38 H11         0.7720   -7.5860   -0.6160 ha        1 K0I      0.133000
     39 H10         1.8810   -6.1280   -2.3520 ha        1 K0I      0.132000
     40 H221       -2.9760   -0.7430   -0.1350 h1        1 K0I      0.050950
     41 H222       -2.3150   -1.0710    1.5330 h1        1 K0I      0.050950
     42 H131       -0.4400    1.8960   -0.7650 h1        1 K0I      0.050950
     43 H132       -1.8940    1.0560   -1.4730 h1        1 K0I      0.050950
     44 H211       -4.3590   -0.1040    1.9620 hc        1 K0I      0.059200
     45 H212       -3.2220    1.2820    2.2120 hc        1 K0I      0.059200
     46 H19        -6.2930    0.3950    0.8450 ha        1 K0I      0.128500
     47 H141       -2.0270    3.5640   -0.7610 hc        1 K0I      0.059200
     48 H142       -2.1320    2.9820    0.9490 hc        1 K0I      0.059200
     49 H16        -4.0420    3.9920   -1.7680 ha        1 K0I      0.128500
     50 H18        -7.6040    1.7700   -0.7610 ha        1 K0I      0.123000
     51 H17        -6.4770    3.5750   -2.0680 ha        1 K0I      0.123000
@<TRIPOS>BOND
     1    1    2 1   
     2    2    3 1   
     3    2    4 1   
     4    4    5 1   
     5    4   30 1   
     6    4   31 1   
     7    5    6 1   
     8    5   32 1   
     9    5   33 1   
    10    6    7 1   
    11    6   34 1   
    12    7    8 ar  
    13    7   18 ar  
    14    8    9 ar  
    15    9   10 1   
    16    9   16 ar  
    17   10   11 ar  
    18   10   15 ar  
    19   11   12 ar  
    20   12   13 ar  
    21   12   37 1   
    22   13   14 ar  
    23   13   38 1   
    24   14   15 ar  
    25   14   39 1   
    26   15   36 1   
    27   16   17 ar  
    28   17   18 ar  
    29   17   19 1   
    30   18   35 1   
    31   19   20 1   
    32   19   25 1   
    33   20   21 1   
    34   20   40 1   
    35   20   41 1   
    36   21   22 1   
    37   21   44 1   
    38   21   45 1   
    39   22   23 ar  
    40   22   26 ar  
    41   23   24 1   
    42   23   29 ar  
    43   24   25 1   
    44   24   47 1   
    45   24   48 1   
    46   25   42 1   
    47   25   43 1   
    48   26   27 ar  
    49   26   46 1   
    50   27   28 ar  
    51   27   50 1   
    52   28   29 ar  
    53   28   51 1   
    54   29   49 1   
@<TRIPOS>SUBSTRUCTURE
     1 K0I         1 TEMP              0 ****  ****    0 ROOT
