@<TRIPOS>MOLECULE
K0I
   52    55     1     0     0
SMALL
bcc


@<TRIPOS>ATOM
      1 O2         -0.7130   -1.3360   -2.0430 oh        1 K0I     -0.577100
      2 C1         -0.2180   -0.1480   -1.5920 c         1 K0I      0.635100
      3 O1         -1.0810    0.7180   -1.4330 o         1 K0I     -0.508000
      4 C2          1.2500   -0.0060   -1.3290 c3        1 K0I     -0.187400
      5 C3          1.9980    0.4890   -2.5720 c3        1 K0I      0.192800
      6 N1          1.9180   -0.4370   -3.6780 nh        1 K0I     -0.857900
      7 C4          1.2580   -0.0250   -4.8560 ca        1 K0I      0.659200
      8 N3          1.7680   -0.4370   -6.0660 nb        1 K0I     -0.744000
      9 C7          1.0340   -0.1010   -7.1590 cp        1 K0I      0.646000
     10 C8          1.5710   -0.5500   -8.4920 cp        1 K0I      0.368300
     11 N4          1.6350   -1.8800   -8.7390 nb        1 K0I     -0.633000
     12 C12         2.1240   -2.2530   -9.9350 ca        1 K0I      0.392200
     13 C11         2.5640   -1.3470  -10.9200 ca        1 K0I     -0.240300
     14 C10         2.4850    0.0180  -10.6470 ca        1 K0I     -0.098000
     15 C9          1.9790    0.4350   -9.4140 ca        1 K0I     -0.212300
     16 N2         -0.1330    0.6000   -7.1960 nb        1 K0I     -0.761000
     17 C6         -0.6330    1.0290   -5.9900 ca        1 K0I      0.686200
     18 C5          0.0580    0.7280   -4.7780 ca        1 K0I     -0.432600
     19 N5         -1.7830    1.8550   -5.9410 nh        1 K0I     -0.735300
     20 C22        -2.3470    2.3250   -7.1950 c3        1 K0I      0.193300
     21 C21        -3.2150    1.3410   -7.9820 c3        1 K0I     -0.066600
     22 C20        -4.5970    1.2310   -7.4420 ca        1 K0I     -0.075800
     23 C15        -4.8370    0.7700   -6.1360 ca        1 K0I     -0.075800
     24 C14        -3.7190    0.3760   -5.2360 c3        1 K0I     -0.066600
     25 C13        -2.7720    1.5390   -4.9230 c3        1 K0I      0.193300
     26 C19        -5.6810    1.5730   -8.2590 ca        1 K0I     -0.126500
     27 C18        -6.9890    1.4620   -7.7920 ca        1 K0I     -0.131000
     28 C17        -7.2270    1.0050   -6.4970 ca        1 K0I     -0.131000
     29 C16        -6.1550    0.6610   -5.6760 ca        1 K0I     -0.126500
     30 H21C        1.3950    0.7510   -0.5130 hc        1 K0I      0.080700
     31 H22C        1.6700   -0.9850   -0.9790 hc        1 K0I      0.080700
     32 H31C        1.5870    1.5010   -2.8530 h1        1 K0I      0.062200
     33 H32C        3.0780    0.6330   -2.2760 h1        1 K0I      0.062200
     34 HA          2.7680   -0.9400   -3.8390 hn        1 K0I      0.422800
     35 H5         -0.3310    1.0590   -3.8060 ha        1 K0I      0.167000
     36 H9          1.8930    1.5000   -9.1640 ha        1 K0I      0.152000
     37 H12         2.1630   -3.3430  -10.1110 h4        1 K0I      0.024100
     38 H11         2.9550   -1.7150  -11.8770 ha        1 K0I      0.144000
     39 H10         2.8140    0.7580  -11.3900 ha        1 K0I      0.140000
     40 H221       -1.5050    2.6690   -7.8590 h1        1 K0I      0.066700
     41 H222       -2.9680    3.2310   -6.9360 h1        1 K0I      0.066700
     42 H131       -3.3810    2.4760   -4.7710 h1        1 K0I      0.066700
     43 H132       -2.2520    1.3130   -3.9500 h1        1 K0I      0.066700
     44 H211       -3.2490    1.7010   -9.0460 hc        1 K0I      0.064200
     45 H212       -2.7420    0.3220   -7.9960 hc        1 K0I      0.064200
     46 H19        -5.4980    1.9310   -9.2830 ha        1 K0I      0.131000
     47 H141       -3.1520   -0.4750   -5.7020 hc        1 K0I      0.064200
     48 H142       -4.1280    0.0030   -4.2580 hc        1 K0I      0.064200
     49 H16        -6.3460    0.2990   -4.6540 ha        1 K0I      0.131000
     50 H18        -7.8310    1.7340   -8.4450 ha        1 K0I      0.130000
     51 H17        -8.2570    0.9150   -6.1230 ha        1 K0I      0.130000
     52 H121        0.0140   -1.9280   -2.2870 ho        1 K0I      0.439000
@<TRIPOS>BOND
     1    1    2 1   
     2    1   52 1   
     3    2    3 2   
     4    2    4 1   
     5    4    5 1   
     6    4   30 1   
     7    4   31 1   
     8    5    6 1   
     9    5   32 1   
    10    5   33 1   
    11    6    7 1   
    12    6   34 1   
    13    7    8 ar  
    14    7   18 ar  
    15    8    9 ar  
    16    9   10 1   
    17    9   16 ar  
    18   10   11 ar  
    19   10   15 ar  
    20   11   12 ar  
    21   12   13 ar  
    22   12   37 1   
    23   13   14 ar  
    24   13   38 1   
    25   14   15 ar  
    26   14   39 1   
    27   15   36 1   
    28   16   17 ar  
    29   17   18 ar  
    30   17   19 1   
    31   18   35 1   
    32   19   20 1   
    33   19   25 1   
    34   20   21 1   
    35   20   40 1   
    36   20   41 1   
    37   21   22 1   
    38   21   44 1   
    39   21   45 1   
    40   22   23 ar  
    41   22   26 ar  
    42   23   24 1   
    43   23   29 ar  
    44   24   25 1   
    45   24   47 1   
    46   24   48 1   
    47   25   42 1   
    48   25   43 1   
    49   26   27 ar  
    50   26   46 1   
    51   27   28 ar  
    52   27   50 1   
    53   28   29 ar  
    54   28   51 1   
    55   29   49 1   
@<TRIPOS>SUBSTRUCTURE
     1 K0I         1 TEMP              0 ****  ****    0 ROOT
