@<TRIPOS>MOLECULE
K0L
   26    24     1     0     0
SMALL
bcc


@<TRIPOS>ATOM
      1 C1         -2.3500    0.3040    1.0150 c3        1 K0L     -0.172000
      2 C2         -0.8110    0.2870    0.9880 c2        1 K0L     -0.066000
      3 C3         -0.0930    0.3650    2.1830 c2        1 K0L     -0.184000
      4 C4          1.2860    0.4030    2.1580 c1        1 K0L     -0.001000
      5 C5          1.2540    0.2840   -0.2460 c1        1 K0L     -0.045000
      6 N           2.0090    0.4860    3.3740 n2        1 K0L     -0.307000
      7 C6          1.9640    0.3620    0.9350 c2        1 K0L     -0.184000
      8 C7          1.9930    0.3560   -1.5970 c2        1 K0L     -0.211000
      9 C8         -0.1370    0.2470   -0.2220 c2        1 K0L      0.052000
     10 O1         -0.8560    0.2280   -1.4350 os        1 K0L     -0.211000
     11 C9         -1.1000   -1.0950   -1.9510 c3        1 K0L     -0.099000
     12 C          -1.9420   -0.9970   -3.2150 c2        1 K0L      0.337000
     13 O          -2.1280    0.1180   -3.7580 o         1 K0L     -0.565000
     14 H6         -2.6850   -0.5860    0.8430 hc        1 K0L      0.082000
     15 H6A        -2.6810    0.9110    0.3320 hc        1 K0L      0.082000
     16 H6B        -2.6600    0.6080    1.9030 hc        1 K0L      0.082000
     17 H5         -0.5510    0.3970    3.0100 ha        1 K0L      0.116000
     18 HN1         2.8900    0.3810    3.3750 hn        1 K0L      0.155000
     19 HN1A        1.5640    0.6300    4.1620 hn        1 K0L      0.155000
     20 H3          2.9590    0.3910    0.9160 ha        1 K0L      0.119000
     21 H1          1.4670    0.9130   -2.2330 ha        1 K0L      0.104333
     22 H1A         2.8640    0.7500   -1.4680 ha        1 K0L      0.104333
     23 H1B         2.0940   -0.5510   -1.9640 ha        1 K0L      0.104333
     24 H9         -0.2460   -1.5290   -2.1590 h1        1 K0L      0.058500
     25 H9A        -1.5830   -1.6280   -1.2740 h1        1 K0L      0.058500
     26 OXT        -2.5220   -2.0310   -3.6730 o         1 K0L     -0.565000
@<TRIPOS>BOND
     1    1    2 1   
     2    1   14 1   
     3    1   15 1   
     4    1   16 1   
     5    2    3 1   
     6    2    9 1   
     7    3    4 1   
     8    3   17 1   
     9    4    7 1   
    10    5    7 1   
    11    5    9 1   
    12    6   18 1   
    13    6   19 1   
    14    7   20 1   
    15    8   21 1   
    16    8   22 1   
    17    8   23 1   
    18    9   10 1   
    19   10   11 1   
    20   11   12 1   
    21   11   24 1   
    22   11   25 1   
    23   12   13 1   
    24   12   26 1   
@<TRIPOS>SUBSTRUCTURE
     1 K0L         1 TEMP              0 ****  ****    0 ROOT
