@<TRIPOS>MOLECULE
K0L
   26    26     1     0     0
SMALL
bcc


@<TRIPOS>ATOM
      1 C1          0.1010    2.3070    0.3500 c3        1 K0L     -0.066300
      2 C2          0.9150    1.0780    0.2000 ca        1 K0L     -0.062800
      3 C3          2.2960    1.1850    0.0280 ca        1 K0L     -0.184000
      4 C4          3.1060    0.0390   -0.1040 ca        1 K0L      0.080600
      5 C5          1.1160   -1.3550    0.1020 ca        1 K0L     -0.062800
      6 N           4.5110    0.1570   -0.2030 nh        1 K0L     -0.798200
      7 C6          2.4950   -1.2310   -0.0650 ca        1 K0L     -0.184000
      8 C7          0.4980   -2.7010    0.1600 c3        1 K0L     -0.066300
      9 C8          0.3230   -0.2000    0.2310 ca        1 K0L      0.097100
     10 O1         -1.0280   -0.3500    0.4880 os        1 K0L     -0.327900
     11 C9         -1.8730   -0.0500   -0.6380 c3        1 K0L      0.001400
     12 C          -3.1840    0.5860   -0.1130 c         1 K0L      0.917600
     13 O          -3.1140    1.7310    0.4130 o         1 K0L     -0.830300
     14 H6          0.1330    2.9050   -0.5950 hc        1 K0L      0.053867
     15 H6A        -0.9780    2.0630    0.5750 hc        1 K0L      0.053867
     16 H6B         0.5060    2.9370    1.1790 hc        1 K0L      0.053867
     17 H5          2.7490    2.1870    0.0090 ha        1 K0L      0.117500
     18 HN1         4.7850    1.0300   -0.6040 hn        1 K0L      0.359800
     19 HN1A        4.9160   -0.6060   -0.7040 hn        1 K0L      0.359800
     20 H3          3.1050   -2.1410   -0.1620 ha        1 K0L      0.117500
     21 H1          0.5660   -3.1040    1.2020 hc        1 K0L      0.053867
     22 H1A        -0.5850   -2.6450   -0.1200 hc        1 K0L      0.053867
     23 H1B         1.0170   -3.4110   -0.5280 hc        1 K0L      0.053867
     24 H9         -1.3710    0.6660   -1.3360 h1        1 K0L      0.019200
     25 H9A        -2.0740   -1.0200   -1.1610 h1        1 K0L      0.019200
     26 OXT        -4.2480   -0.0620   -0.3050 o         1 K0L     -0.830300
@<TRIPOS>BOND
     1    1    2 1   
     2    1   14 1   
     3    1   15 1   
     4    1   16 1   
     5    2    3 ar  
     6    2    9 ar  
     7    3    4 ar  
     8    3   17 1   
     9    4    6 1   
    10    4    7 ar  
    11    5    7 ar  
    12    5    8 1   
    13    5    9 ar  
    14    6   18 1   
    15    6   19 1   
    16    7   20 1   
    17    8   21 1   
    18    8   22 1   
    19    8   23 1   
    20    9   10 1   
    21   10   11 1   
    22   11   12 1   
    23   11   24 1   
    24   11   25 1   
    25   12   13 1   
    26   12   26 1   
@<TRIPOS>SUBSTRUCTURE
     1 K0L         1 TEMP              0 ****  ****    0 ROOT
