@<TRIPOS>MOLECULE
K10
   46    48     1     0     0
SMALL
bcc


@<TRIPOS>ATOM
      1 N1          0.9790   -2.6510   -0.0110 nh        1 K10     -0.942500
      2 C1         -0.2720   -2.1820   -0.3600 ca        1 K10      0.748200
      3 N2         -1.1350   -2.9880   -1.0620 nb        1 K10     -0.799000
      4 C2         -2.3850   -2.5040   -1.3000 ca        1 K10      0.690900
      5 N3         -2.9340   -1.3190   -0.9620 nb        1 K10     -0.743000
      6 C3         -2.0730   -0.5060   -0.2720 ca        1 K10      0.472800
      7 C4         -0.7040   -0.8850    0.0580 ca        1 K10     -0.490500
      8 C5         -0.1750    0.2580    0.7770 cc        1 K10      0.382900
      9 N4         -1.1360    1.2140    0.8680 nd        1 K10     -0.522100
     10 N5         -2.2550    0.7880    0.2520 na        1 K10      0.003200
     11 C6         -3.5080    1.5770    0.1880 c3        1 K10      0.099700
     12 C7         -3.3520    2.9470    0.8700 c3        1 K10     -0.105433
     13 C8         -3.9130    1.8290   -1.2730 c3        1 K10     -0.105433
     14 C9         -4.6520    0.8340    0.8950 c3        1 K10     -0.105433
     15 C10         1.1560    0.3970    1.4240 c3        1 K10     -0.049400
     16 C11         2.3290    0.4170    0.5020 ca        1 K10     -0.084300
     17 C12         3.3780   -0.4790    0.7540 ca        1 K10     -0.150000
     18 C13         4.5290   -0.4910   -0.0370 ca        1 K10     -0.081300
     19 C14         4.6320    0.4140   -1.1000 ca        1 K10     -0.126000
     20 C15         3.6080    1.3210   -1.3430 ca        1 K10     -0.125000
     21 C16         2.4550    1.3440   -0.5460 ca        1 K10     -0.059300
     22 C17         1.4090    2.3550   -0.8240 c3        1 K10     -0.058800
     23 C18         5.6340   -1.4340    0.2510 c3        1 K10     -0.054800
     24 HN11        1.3070   -3.4810   -0.4460 hn        1 K10      0.431800
     25 HN12        1.6590   -1.9630    0.2170 hn        1 K10      0.431800
     26 H2         -3.0490   -3.1950   -1.8640 h5        1 K10      0.050100
     27 H71        -2.5560    3.5530    0.3760 hc        1 K10      0.051478
     28 H72        -4.3220    3.4940    0.7840 hc        1 K10      0.051478
     29 H73        -3.1030    2.8320    1.9510 hc        1 K10      0.051478
     30 H81        -4.1380    0.8740   -1.8040 hc        1 K10      0.051478
     31 H82        -4.8340    2.4600   -1.2790 hc        1 K10      0.051478
     32 H83        -3.1060    2.3700   -1.8210 hc        1 K10      0.051478
     33 H91        -4.3960    0.6370    1.9640 hc        1 K10      0.051478
     34 H92        -5.5650    1.4760    0.8600 hc        1 K10      0.051478
     35 H93        -4.8820   -0.1340    0.3910 hc        1 K10      0.051478
     36 H101        1.2570   -0.4590    2.1500 hc        1 K10      0.070700
     37 H102        1.1870    1.3480    2.0330 hc        1 K10      0.070700
     38 H12         3.3030   -1.1780    1.6020 ha        1 K10      0.131000
     39 H14         5.5290    0.4100   -1.7360 ha        1 K10      0.134000
     40 H15         3.7030    2.0390   -2.1720 ha        1 K10      0.134000
     41 H171        0.5290    1.8720   -1.3190 hc        1 K10      0.051033
     42 H172        1.0590    2.8310    0.1260 hc        1 K10      0.051033
     43 H173        1.7940    3.1580   -1.5000 hc        1 K10      0.051033
     44 H181        5.2840   -2.2930    0.8730 hc        1 K10      0.045033
     45 H182        6.0680   -1.8370   -0.6980 hc        1 K10      0.045033
     46 H183        6.4490   -0.9060    0.8090 hc        1 K10      0.045033
@<TRIPOS>BOND
     1    1    2 1   
     2    1   24 1   
     3    1   25 1   
     4    2    3 ar  
     5    2    7 ar  
     6    3    4 ar  
     7    4    5 ar  
     8    4   26 1   
     9    5    6 ar  
    10    6    7 ar  
    11    6   10 1   
    12    7    8 1   
    13    8    9 2   
    14    8   15 1   
    15    9   10 1   
    16   10   11 1   
    17   11   12 1   
    18   11   13 1   
    19   11   14 1   
    20   12   27 1   
    21   12   28 1   
    22   12   29 1   
    23   13   30 1   
    24   13   31 1   
    25   13   32 1   
    26   14   33 1   
    27   14   34 1   
    28   14   35 1   
    29   15   16 1   
    30   15   36 1   
    31   15   37 1   
    32   16   17 ar  
    33   16   21 ar  
    34   17   18 ar  
    35   17   38 1   
    36   18   19 ar  
    37   18   23 1   
    38   19   20 ar  
    39   19   39 1   
    40   20   21 ar  
    41   20   40 1   
    42   21   22 1   
    43   22   41 1   
    44   22   42 1   
    45   22   43 1   
    46   23   44 1   
    47   23   45 1   
    48   23   46 1   
@<TRIPOS>SUBSTRUCTURE
     1 K10         1 TEMP              0 ****  ****    0 ROOT
