@<TRIPOS>MOLECULE
K10
   46    40     1     0     0
SMALL
bcc


@<TRIPOS>ATOM
      1 N1         -3.4030   -0.6960    2.0790 n3        1 K10     -0.340000
      2 C1         -1.9850   -0.6110    2.1320 c2        1 K10      0.227000
      3 N2         -2.0620   -0.6800    3.4710 n2        1 K10     -0.272000
      4 C2         -0.9240   -0.7730    4.2160 c1        1 K10      0.027000
      5 N3          0.2930   -0.7970    3.6040 n1        1 K10     -0.215000
      6 C3          0.3740   -0.7270    2.2450 c1        1 K10      0.082000
      7 C4         -0.7480   -0.6350    1.5080 c1        1 K10     -0.280000
      8 C5         -0.3790   -0.5970    0.1700 c1        1 K10     -0.070000
      9 N4          0.9640   -0.6670    0.1070 n2        1 K10     -0.048000
     10 N5          1.4450   -0.7480    1.3850 n1        1 K10     -0.134000
     11 C6          2.8430   -0.7760    1.6390 c2        1 K10      0.119000
     12 C7          3.5880   -0.9600    0.3350 c3        1 K10     -0.223333
     13 C8          3.2650    0.5270    2.2810 c3        1 K10     -0.223333
     14 C9          3.1630   -1.9250    2.5690 c3        1 K10     -0.223333
     15 C10        -1.0680   -1.0330   -1.1050 c2        1 K10     -0.062000
     16 C11        -1.3000    0.1730   -1.9910 c2        1 K10     -0.082000
     17 C12        -1.1090    1.4500   -1.4860 c2        1 K10     -0.116000
     18 C13        -1.2600    2.5510   -2.3120 c1        1 K10     -0.069000
     19 C14        -1.6020    2.3770   -3.6430 c1        1 K10     -0.127500
     20 C15        -1.7940    1.1020   -4.1480 c1        1 K10     -0.127500
     21 C16        -1.6430   -0.0010   -3.3220 c1        1 K10     -0.087000
     22 C17        -1.9280   -1.3880   -3.8540 c3        1 K10     -0.182000
     23 C18        -1.0430    3.9440   -1.7630 c3        1 K10     -0.180000
     24 HN11       -3.8930   -0.6730    2.8520 hn        1 K10      0.226500
     25 HN12       -3.8260   -0.7690    1.2720 hn        1 K10      0.226500
     26 H2         -0.9820   -0.8240    5.1890 ha        1 K10      0.187000
     27 H71         3.2320   -1.7420   -0.1370 hc        1 K10      0.090889
     28 H72         3.4730   -0.1620   -0.2220 hc        1 K10      0.090889
     29 H73         4.5410   -1.0950    0.5200 hc        1 K10      0.090889
     30 H81         2.9590    1.2770    1.7300 hc        1 K10      0.090889
     31 H82         4.2420    0.5530    2.3550 hc        1 K10      0.090889
     32 H83         2.8680    0.5940    3.1750 hc        1 K10      0.090889
     33 H91         2.7410   -2.7430    2.2350 hc        1 K10      0.090889
     34 H92         4.1350   -2.0510    2.6100 hc        1 K10      0.090889
     35 H93         2.8220   -1.7240    3.4660 hc        1 K10      0.090889
     36 H101       -1.9260   -1.4480   -0.8870 ha        1 K10      0.112500
     37 H102       -0.5030   -1.6780   -1.5760 ha        1 K10      0.112500
     38 H12        -0.8670    1.5730   -0.5480 ha        1 K10      0.146000
     39 H14        -1.7080    3.1540   -4.2260 ha        1 K10      0.132500
     40 H15        -2.0350    0.9790   -5.0860 ha        1 K10      0.132500
     41 H171       -1.0860   -1.8780   -3.9580 hc        1 K10      0.085000
     42 H172       -2.3750   -1.3190   -4.7230 hc        1 K10      0.085000
     43 H173       -2.5090   -1.8660   -3.2250 hc        1 K10      0.085000
     44 H181       -1.3430    4.6050   -2.4210 hc        1 K10      0.085333
     45 H182       -0.0910    4.0770   -1.5760 hc        1 K10      0.085333
     46 H183       -1.5560    4.0510   -0.9350 hc        1 K10      0.085333
@<TRIPOS>BOND
     1    1    2 1   
     2    1   24 1   
     3    1   25 1   
     4    2    3 1   
     5    2    7 1   
     6    3    4 1   
     7    4   26 1   
     8    5    6 1   
     9    8    9 1   
    10    9   10 1   
    11   11   12 1   
    12   11   13 1   
    13   11   14 1   
    14   12   27 1   
    15   12   28 1   
    16   12   29 1   
    17   13   30 1   
    18   13   31 1   
    19   13   32 1   
    20   14   33 1   
    21   14   34 1   
    22   14   35 1   
    23   15   16 1   
    24   15   36 1   
    25   15   37 1   
    26   16   17 1   
    27   16   21 1   
    28   17   18 1   
    29   17   38 1   
    30   18   23 1   
    31   19   20 1   
    32   19   39 1   
    33   20   40 1   
    34   21   22 1   
    35   22   41 1   
    36   22   42 1   
    37   22   43 1   
    38   23   44 1   
    39   23   45 1   
    40   23   46 1   
@<TRIPOS>SUBSTRUCTURE
     1 K10         1 TEMP              0 ****  ****    0 ROOT
