@<TRIPOS>MOLECULE
K10
   47    49     1     0     0
SMALL
bcc


@<TRIPOS>ATOM
      1 N1          0.4730    1.9360   -0.5450 n4        1 K10     -0.833300
      2 C1          1.8460    1.3970   -0.4780 ca        1 K10      0.561200
      3 N2          2.5230    1.5740    0.6760 nb        1 K10     -0.704000
      4 C2          3.8060    1.0850    0.7190 ca        1 K10      0.679900
      5 N3          4.4860    0.4480   -0.2520 nb        1 K10     -0.629000
      6 C3          3.7880    0.2730   -1.4130 ca        1 K10      0.453800
      7 C4          2.3940    0.7420   -1.5960 ca        1 K10     -0.425500
      8 C5          2.0630    0.3450   -2.9500 cc        1 K10      0.357900
      9 N4          3.1430   -0.2760   -3.5010 nd        1 K10     -0.450100
     10 N5          4.1520   -0.3280   -2.6270 na        1 K10      0.046200
     11 C6          5.4800   -0.9610   -2.9230 c3        1 K10      0.092700
     12 C7          5.5200   -1.5190   -4.3540 c3        1 K10     -0.112767
     13 C8          6.6000    0.0770   -2.7840 c3        1 K10     -0.112767
     14 C9          5.7370   -2.1200   -1.9510 c3        1 K10     -0.112767
     15 C10         0.7840    0.4570   -3.7040 c3        1 K10     -0.060400
     16 C11        -0.0610    1.6390   -3.3810 ca        1 K10     -0.128300
     17 C12        -1.3360    1.4240   -2.8340 ca        1 K10     -0.190000
     18 C13        -2.2010    2.4900   -2.5790 ca        1 K10     -0.080300
     19 C14        -1.7750    3.7950   -2.8660 ca        1 K10     -0.129000
     20 C15        -0.5200    4.0150   -3.4220 ca        1 K10     -0.130000
     21 C16         0.3450    2.9470   -3.7010 ca        1 K10     -0.084300
     22 C17         1.6360    3.2080   -4.3770 c3        1 K10     -0.067800
     23 C18        -3.5640    2.2490   -2.0540 c3        1 K10     -0.069800
     24 HN11        0.4400    2.6720   -1.2710 hn        1 K10      0.478133
     25 HN12       -0.1690    1.1790   -0.8240 hn        1 K10      0.478133
     26 H2          4.3390    1.2440    1.6850 h5        1 K10      0.096100
     27 H71         5.3700   -0.7110   -5.1090 hc        1 K10      0.063256
     28 H72         4.7460   -2.3090   -4.5030 hc        1 K10      0.063256
     29 H73         6.5270   -1.9750   -4.5190 hc        1 K10      0.063256
     30 H81         6.6910    0.4510   -1.7360 hc        1 K10      0.063256
     31 H82         6.4350    0.9420   -3.4700 hc        1 K10      0.063256
     32 H83         7.5650   -0.4150   -3.0620 hc        1 K10      0.063256
     33 H91         6.7070   -2.5990   -2.2320 hc        1 K10      0.063256
     34 H92         5.8170   -1.7660   -0.8970 hc        1 K10      0.063256
     35 H93         4.9310   -2.8890   -2.0210 hc        1 K10      0.063256
     36 H101        1.0070    0.4900   -4.8120 hc        1 K10      0.094700
     37 H102        0.2030   -0.4930   -3.5230 hc        1 K10      0.094700
     38 H12        -1.6850    0.3920   -2.6570 ha        1 K10      0.149000
     39 H14        -2.4530    4.6440   -2.6780 ha        1 K10      0.160000
     40 H15        -0.2100    5.0420   -3.6790 ha        1 K10      0.159000
     41 H171        2.4720    2.6610   -3.8730 hc        1 K10      0.061033
     42 H172        1.5820    2.8520   -5.4390 hc        1 K10      0.061033
     43 H173        1.8790    4.2990   -4.3870 hc        1 K10      0.061033
     44 H181       -3.6320    1.2660   -1.5260 hc        1 K10      0.061700
     45 H182       -3.8730    3.0580   -1.3470 hc        1 K10      0.061700
     46 H183       -4.2950    2.2360   -2.9040 hc        1 K10      0.061700
     47 H13         0.1810    2.3270    0.3600 hn        1 K10      0.478133
@<TRIPOS>BOND
     1    1    2 1   
     2    1   24 1   
     3    1   25 1   
     4    1   47 1   
     5    2    3 ar  
     6    2    7 ar  
     7    3    4 ar  
     8    4    5 ar  
     9    4   26 1   
    10    5    6 ar  
    11    6    7 ar  
    12    6   10 1   
    13    7    8 1   
    14    8    9 2   
    15    8   15 1   
    16    9   10 1   
    17   10   11 1   
    18   11   12 1   
    19   11   13 1   
    20   11   14 1   
    21   12   27 1   
    22   12   28 1   
    23   12   29 1   
    24   13   30 1   
    25   13   31 1   
    26   13   32 1   
    27   14   33 1   
    28   14   34 1   
    29   14   35 1   
    30   15   16 1   
    31   15   36 1   
    32   15   37 1   
    33   16   17 ar  
    34   16   21 ar  
    35   17   18 ar  
    36   17   38 1   
    37   18   19 ar  
    38   18   23 1   
    39   19   20 ar  
    40   19   39 1   
    41   20   21 ar  
    42   20   40 1   
    43   21   22 1   
    44   22   41 1   
    45   22   42 1   
    46   22   43 1   
    47   23   44 1   
    48   23   45 1   
    49   23   46 1   
@<TRIPOS>SUBSTRUCTURE
     1 K10         1 TEMP              0 ****  ****    0 ROOT
