@<TRIPOS>MOLECULE
K10
   46    48     1     0     0
SMALL
bcc


@<TRIPOS>ATOM
      1 N1         -0.0720   -0.4140    0.2180 nh        1 K10     -0.948500
      2 C1          1.3060   -0.3050    0.1850 ca        1 K10      0.745200
      3 N2          2.0140   -0.4140    1.3570 nb        1 K10     -0.799000
      4 C2          3.3720   -0.3710    1.2750 ca        1 K10      0.689900
      5 N3          4.1660   -0.2160    0.1960 nb        1 K10     -0.739000
      6 C3          3.4640   -0.0970   -0.9750 ca        1 K10      0.471800
      7 C4          2.0060   -0.1350   -1.0490 ca        1 K10     -0.488500
      8 C5          1.7180    0.0140   -2.4630 cc        1 K10      0.381900
      9 N4          2.8820    0.1340   -3.1520 nd        1 K10     -0.513100
     10 N5          3.9180    0.0700   -2.2970 na        1 K10      0.006200
     11 C6          5.3360    0.1910   -2.7150 c3        1 K10      0.100700
     12 C7          5.4650    0.3730   -4.2370 c3        1 K10     -0.105433
     13 C8          5.9970    1.4050   -2.0440 c3        1 K10     -0.105433
     14 C9          6.1220   -1.0730   -2.3310 c3        1 K10     -0.105433
     15 C10         0.3930    0.0200   -3.1390 c3        1 K10     -0.043400
     16 C11        -0.0430    1.3940   -3.5300 ca        1 K10     -0.075300
     17 C12        -0.5660    2.2450   -2.5510 ca        1 K10     -0.124000
     18 C13        -1.0080    3.5320   -2.8680 ca        1 K10     -0.080300
     19 C14        -0.9220    3.9700   -4.1940 ca        1 K10     -0.124000
     20 C15        -0.4020    3.1320   -5.1740 ca        1 K10     -0.127000
     21 C16         0.0430    1.8410   -4.8600 ca        1 K10     -0.060300
     22 C17         0.5930    0.9830   -5.9360 c3        1 K10     -0.059800
     23 C18        -1.5670    4.4120   -1.8170 c3        1 K10     -0.052800
     24 HN11       -0.5710   -0.0270   -0.5450 hn        1 K10      0.428300
     25 HN12       -0.5250   -0.4060    1.1030 hn        1 K10      0.428300
     26 H2          3.8990   -0.4720    2.2490 h5        1 K10      0.051100
     27 H71         4.9490    1.3030   -4.5750 hc        1 K10      0.051589
     28 H72         5.0370   -0.5000   -4.7840 hc        1 K10      0.051589
     29 H73         6.5500    0.4560   -4.4900 hc        1 K10      0.051589
     30 H81         5.4530    2.3450   -2.3020 hc        1 K10      0.051589
     31 H82         6.0240    1.2930   -0.9350 hc        1 K10      0.051589
     32 H83         7.0460    1.4860   -2.4160 hc        1 K10      0.051589
     33 H91         7.1690   -0.9640   -2.7020 hc        1 K10      0.051589
     34 H92         6.1530   -1.2130   -1.2250 hc        1 K10      0.051589
     35 H93         5.6690   -1.9790   -2.8000 hc        1 K10      0.051589
     36 H101       -0.3770   -0.4420   -2.4660 hc        1 K10      0.062700
     37 H102        0.4420   -0.6410   -4.0510 hc        1 K10      0.062700
     38 H12        -0.6240    1.9030   -1.5070 ha        1 K10      0.118000
     39 H14        -1.2640    4.9810   -4.4600 ha        1 K10      0.132000
     40 H15        -0.3370    3.4880   -6.2140 ha        1 K10      0.132000
     41 H171        1.6130    0.6140   -5.6610 hc        1 K10      0.049033
     42 H172       -0.0700    0.0980   -6.1060 hc        1 K10      0.049033
     43 H173        0.6730    1.5460   -6.8990 hc        1 K10      0.049033
     44 H181       -2.6490    4.1740   -1.6550 hc        1 K10      0.043700
     45 H182       -1.4860    5.4880   -2.1070 hc        1 K10      0.043700
     46 H183       -1.0280    4.2670   -0.8480 hc        1 K10      0.043700
@<TRIPOS>BOND
     1    1    2 1   
     2    1   24 1   
     3    1   25 1   
     4    2    3 ar  
     5    2    7 ar  
     6    3    4 ar  
     7    4    5 ar  
     8    4   26 1   
     9    5    6 ar  
    10    6    7 ar  
    11    6   10 1   
    12    7    8 1   
    13    8    9 2   
    14    8   15 1   
    15    9   10 1   
    16   10   11 1   
    17   11   12 1   
    18   11   13 1   
    19   11   14 1   
    20   12   27 1   
    21   12   28 1   
    22   12   29 1   
    23   13   30 1   
    24   13   31 1   
    25   13   32 1   
    26   14   33 1   
    27   14   34 1   
    28   14   35 1   
    29   15   16 1   
    30   15   36 1   
    31   15   37 1   
    32   16   17 ar  
    33   16   21 ar  
    34   17   18 ar  
    35   17   38 1   
    36   18   19 ar  
    37   18   23 1   
    38   19   20 ar  
    39   19   39 1   
    40   20   21 ar  
    41   20   40 1   
    42   21   22 1   
    43   22   41 1   
    44   22   42 1   
    45   22   43 1   
    46   23   44 1   
    47   23   45 1   
    48   23   46 1   
@<TRIPOS>SUBSTRUCTURE
     1 K10         1 TEMP              0 ****  ****    0 ROOT
