@<TRIPOS>MOLECULE
K10
   46    48     1     0     0
SMALL
bcc


@<TRIPOS>ATOM
      1 N1         -0.0900   -0.4240    0.2030 nv        1 K10     -0.948500
      2 C1          1.2880   -0.3140    0.1770 ca        1 K10      0.745200
      3 N2          1.9900   -0.4270    1.3520 nb        1 K10     -0.799000
      4 C2          3.3480   -0.3830    1.2770 ca        1 K10      0.689900
      5 N3          4.1480   -0.2250    0.2030 nb        1 K10     -0.739000
      6 C3          3.4530   -0.1020   -0.9710 ca        1 K10      0.471800
      7 C4          1.9950   -0.1410   -1.0530 ca        1 K10     -0.488500
      8 C5          1.7140    0.0130   -2.4690 cc        1 K10      0.381900
      9 N4          2.8820    0.1350   -3.1500 nd        1 K10     -0.513100
     10 N5          3.9140    0.0690   -2.2900 na        1 K10      0.006200
     11 C6          5.3340    0.1900   -2.7010 c3        1 K10      0.100700
     12 C7          5.4710    0.3770   -4.2210 c3        1 K10     -0.105433
     13 C8          5.9910    1.4020   -2.0220 c3        1 K10     -0.105433
     14 C9          6.1170   -1.0750   -2.3160 c3        1 K10     -0.105433
     15 C10         0.3930    0.0200   -3.1510 c3        1 K10     -0.043400
     16 C11        -0.0410    1.3960   -3.5410 ca        1 K10     -0.075300
     17 C12        -0.5720    2.2430   -2.5620 ca        1 K10     -0.124000
     18 C13        -1.0110    3.5310   -2.8790 ca        1 K10     -0.080300
     19 C14        -0.9180    3.9730   -4.2030 ca        1 K10     -0.124000
     20 C15        -0.3910    3.1380   -5.1820 ca        1 K10     -0.127000
     21 C16         0.0540    1.8470   -4.8690 ca        1 K10     -0.060300
     22 C17         0.6120    0.9930   -5.9440 c3        1 K10     -0.059800
     23 C18        -1.5520    4.4180   -1.8230 c3        1 K10     -0.052800
     24 HN11       -0.5470   -0.4190    1.0840 hn        1 K10      0.428300
     25 HN12       -0.5850   -0.0350   -0.5620 hn        1 K10      0.428300
     26 H2          3.8700   -0.4870    2.2530 h5        1 K10      0.051100
     27 H71         4.9560    1.3080   -4.5590 hc        1 K10      0.051589
     28 H72         5.0460   -0.4950   -4.7730 hc        1 K10      0.051589
     29 H73         6.5570    0.4600   -4.4680 hc        1 K10      0.051589
     30 H81         6.0120    1.2870   -0.9130 hc        1 K10      0.051589
     31 H82         5.4500    2.3430   -2.2810 hc        1 K10      0.051589
     32 H83         7.0430    1.4830   -2.3880 hc        1 K10      0.051589
     33 H91         7.1660   -0.9650   -2.6820 hc        1 K10      0.051589
     34 H92         5.6660   -1.9800   -2.7900 hc        1 K10      0.051589
     35 H93         6.1430   -1.2190   -1.2100 hc        1 K10      0.051589
     36 H101        0.4470   -0.6380   -4.0640 hc        1 K10      0.062700
     37 H102       -0.3800   -0.4440   -2.4830 hc        1 K10      0.062700
     38 H12        -0.6400    1.8960   -1.5210 ha        1 K10      0.118000
     39 H14        -1.2630    4.9840   -4.4680 ha        1 K10      0.132000
     40 H15        -0.3200    3.4970   -6.2200 ha        1 K10      0.132000
     41 H171        0.6980    1.5590   -6.9040 hc        1 K10      0.049033
     42 H172       -0.0500    0.1070   -6.1210 hc        1 K10      0.049033
     43 H173        1.6300    0.6230   -5.6630 hc        1 K10      0.049033
     44 H181       -2.2430    5.1820   -2.2560 hc        1 K10      0.043700
     45 H182       -0.7140    4.9550   -1.3110 hc        1 K10      0.043700
     46 H183       -2.1120    3.8310   -1.0550 hc        1 K10      0.043700
@<TRIPOS>BOND
     1    1    2 1   
     2    1   24 1   
     3    1   25 1   
     4    2    3 ar  
     5    2    7 ar  
     6    3    4 ar  
     7    4    5 ar  
     8    4   26 1   
     9    5    6 ar  
    10    6    7 ar  
    11    6   10 1   
    12    7    8 1   
    13    8    9 2   
    14    8   15 1   
    15    9   10 1   
    16   10   11 1   
    17   11   12 1   
    18   11   13 1   
    19   11   14 1   
    20   12   27 1   
    21   12   28 1   
    22   12   29 1   
    23   13   30 1   
    24   13   31 1   
    25   13   32 1   
    26   14   33 1   
    27   14   34 1   
    28   14   35 1   
    29   15   16 1   
    30   15   36 1   
    31   15   37 1   
    32   16   17 ar  
    33   16   21 ar  
    34   17   18 ar  
    35   17   38 1   
    36   18   19 ar  
    37   18   23 1   
    38   19   20 ar  
    39   19   39 1   
    40   20   21 ar  
    41   20   40 1   
    42   21   22 1   
    43   22   41 1   
    44   22   42 1   
    45   22   43 1   
    46   23   44 1   
    47   23   45 1   
    48   23   46 1   
@<TRIPOS>SUBSTRUCTURE
     1 K10         1 TEMP              0 ****  ****    0 ROOT
