@<TRIPOS>MOLECULE
K11
   59    64     1     0     0
SMALL
bcc


@<TRIPOS>ATOM
      1 C38         7.1870    2.9290    3.3870 c3        1 K11      0.193100
      2 N37         6.4480    2.9170    2.1590 nh        1 K11     -0.828900
      3 C35         6.6650    1.8990    1.2150 ca        1 K11      0.864900
      4 N30         5.6880    1.7430    0.2340 nb        1 K11     -0.729000
      5 N34         7.8490    1.1700    1.2730 nb        1 K11     -0.741000
      6 C33         8.0500    0.2930    0.2800 ca        1 K11      0.461200
      7 C32         7.1380    0.0790   -0.7660 ca        1 K11     -0.414600
      8 C31         5.9450    0.8380   -0.7330 cp        1 K11      0.542800
      9 C24         4.9520    0.6380   -1.8010 cp        1 K11     -0.278800
     10 C25         5.3070    0.8430   -3.1390 ca        1 K11     -0.050000
     11 C26         4.3520    0.6670   -4.1400 ca        1 K11     -0.280300
     12 C27         3.0510    0.2890   -3.7670 ca        1 K11      0.438200
     13 N28         2.6700    0.0700   -2.4960 nb        1 K11     -0.708000
     14 C29         3.6130    0.2390   -1.5340 ca        1 K11      0.649600
     15 O36         3.3310   -0.0430   -0.2040 os        1 K11     -0.356400
     16 C20         1.9900   -0.1800    0.1670 ca        1 K11      0.120100
     17 C21         1.0790    0.8360   -0.0150 ca        1 K11     -0.124000
     18 C22        -0.2210    0.7090    0.5130 ca        1 K11     -0.080000
     19 C13         1.6460   -1.3810    0.8580 ca        1 K11     -0.028000
     20 C18         2.5880   -2.4320    1.0300 ca        1 K11     -0.095000
     21 C17         2.2350   -3.5910    1.6750 ca        1 K11     -0.133000
     22 C16         0.9190   -3.7470    2.1690 ca        1 K11     -0.112000
     23 C15        -0.0050   -2.7410    2.0230 ca        1 K11     -0.139000
     24 C14         0.3310   -1.5200    1.3740 ca        1 K11     -0.034000
     25 C23        -0.6000   -0.4310    1.2120 ca        1 K11      0.101600
     26 N19        -1.8770   -0.4690    1.8390 nh        1 K11     -0.651600
     27 C12        -3.0300   -0.4310    1.0290 cc        1 K11      0.612700
     28 N5         -4.3170   -0.7810    1.5770 na        1 K11     -0.289300
     29 C7         -5.2430   -0.4850    0.5600 ca        1 K11     -0.100200
     30 C8         -6.6310   -0.5860    0.5130 ca        1 K11     -0.073000
     31 C9         -7.2480   -0.2690   -0.6960 ca        1 K11     -0.169300
     32 C39        -8.7670   -0.3380   -0.7910 c3        1 K11      0.689200
     33 F2         -9.4030    0.8560   -0.5420 f         1 K11     -0.238967
     34 F3         -9.2480   -0.7200   -2.0200 f         1 K11     -0.238967
     35 F1         -9.3600   -1.2160    0.0860 f         1 K11     -0.238967
     36 C10        -6.5170    0.1280   -1.8270 ca        1 K11     -0.096000
     37 C11        -5.1320    0.2300   -1.7950 ca        1 K11     -0.091000
     38 C6         -4.4700   -0.0690   -0.5980 ca        1 K11      0.122400
     39 N4         -3.0990   -0.0500   -0.2810 nd        1 K11     -0.595100
     40 H38         8.2840    3.0270    3.1720 h1        1 K11      0.045367
     41 H38A        6.8530    3.8180    3.9850 h1        1 K11      0.045367
     42 H38B        7.0280    1.9980    3.9970 h1        1 K11      0.045367
     43 HN37        5.5020    3.2320    2.2240 hn        1 K11      0.430800
     44 H33         8.9980   -0.2750    0.3340 h4        1 K11      0.025100
     45 H32         7.3300   -0.6480   -1.5610 ha        1 K11      0.155000
     46 H25         6.3350    1.1480   -3.3900 ha        1 K11      0.149000
     47 H26         4.6040    0.8240   -5.1970 ha        1 K11      0.151000
     48 H27         2.2580    0.1460   -4.5240 h4        1 K11      0.031100
     49 H21         1.3520    1.7460   -0.5700 ha        1 K11      0.157000
     50 H22        -0.9300    1.5380    0.3550 ha        1 K11      0.159000
     51 H18         3.6050   -2.2890    0.6320 ha        1 K11      0.151000
     52 H17         2.9610   -4.4060    1.8090 ha        1 K11      0.137000
     53 H16         0.6440   -4.6870    2.6700 ha        1 K11      0.134000
     54 H15        -1.0240   -2.9100    2.4020 ha        1 K11      0.121000
     55 HN19       -1.9360   -1.1350    2.5850 hn        1 K11      0.419800
     56 HN5        -4.5370   -0.7260    2.5390 hn        1 K11      0.297700
     57 H8         -7.2220   -0.9070    1.3830 ha        1 K11      0.154000
     58 H10        -7.0600    0.3570   -2.7580 ha        1 K11      0.151000
     59 H11        -4.5650    0.5350   -2.6860 ha        1 K11      0.158000
@<TRIPOS>BOND
     1    1    2 1   
     2    1   40 1   
     3    1   41 1   
     4    1   42 1   
     5    2    3 1   
     6    2   43 1   
     7    3    4 ar  
     8    3    5 ar  
     9    4    8 ar  
    10    5    6 ar  
    11    6    7 ar  
    12    6   44 1   
    13    7    8 ar  
    14    7   45 1   
    15    8    9 1   
    16    9   10 ar  
    17    9   14 ar  
    18   10   11 ar  
    19   10   46 1   
    20   11   12 ar  
    21   11   47 1   
    22   12   13 ar  
    23   12   48 1   
    24   13   14 ar  
    25   14   15 1   
    26   15   16 1   
    27   16   17 ar  
    28   16   19 ar  
    29   17   18 ar  
    30   17   49 1   
    31   18   25 ar  
    32   18   50 1   
    33   19   20 ar  
    34   19   24 ar  
    35   20   21 ar  
    36   20   51 1   
    37   21   22 ar  
    38   21   52 1   
    39   22   23 ar  
    40   22   53 1   
    41   23   24 ar  
    42   23   54 1   
    43   24   25 ar  
    44   25   26 1   
    45   26   27 1   
    46   26   55 1   
    47   27   28 1   
    48   27   39 2   
    49   28   29 1   
    50   28   56 1   
    51   29   30 ar  
    52   29   38 ar  
    53   30   31 ar  
    54   30   57 1   
    55   31   32 1   
    56   31   36 ar  
    57   32   33 1   
    58   32   34 1   
    59   32   35 1   
    60   36   37 ar  
    61   36   58 1   
    62   37   38 ar  
    63   37   59 1   
    64   38   39 1   
@<TRIPOS>SUBSTRUCTURE
     1 K11         1 TEMP              0 ****  ****    0 ROOT
