@<TRIPOS>MOLECULE
K11
   61    66     1     0     0
SMALL
bcc


@<TRIPOS>ATOM
      1 C38         0.3590    2.3700    1.1660 c3        1 K11      0.085100
      2 N37         1.2420    1.7950    0.1210 n4        1 K11     -0.733700
      3 C35         1.8860    0.5310    0.6040 ca        1 K11      0.694900
      4 N30         3.1620    0.6460    1.0880 nb        1 K11     -0.657000
      5 N34         1.1150   -0.6030    0.5260 nb        1 K11     -0.657000
      6 C33         1.6980   -1.7230    0.9950 ca        1 K11      0.463200
      7 C32         3.0000   -1.7310    1.5320 ca        1 K11     -0.295600
      8 C31         3.7110   -0.5070    1.5610 cp        1 K11      0.547800
      9 C24         5.0530   -0.4680    2.1550 cp        1 K11     -0.315800
     10 C25         5.2060   -0.7240    3.5300 ca        1 K11     -0.035000
     11 C26         6.4730   -0.6810    4.1010 ca        1 K11     -0.246300
     12 C27         7.5750   -0.3740    3.2770 ca        1 K11      0.470200
     13 N28         7.4710   -0.1310    1.9600 nb        1 K11     -0.715000
     14 C29         6.2280   -0.1820    1.4170 ca        1 K11      0.648600
     15 O36         6.0560   -0.0050    0.0420 os        1 K11     -0.378400
     16 C20         7.1840    0.3440   -0.7040 ca        1 K11      0.192100
     17 C21         7.8450    1.5380   -0.4860 ca        1 K11     -0.142000
     18 C22         8.9330    1.8870   -1.3040 ca        1 K11     -0.036000
     19 C13         7.5550   -0.5420   -1.7610 ca        1 K11     -0.042000
     20 C18         6.8660   -1.7640   -1.9850 ca        1 K11     -0.083000
     21 C17         7.2430   -2.6080   -3.0010 ca        1 K11     -0.111000
     22 C16         8.3250   -2.2590   -3.8410 ca        1 K11     -0.050000
     23 C15         9.0090   -1.0800   -3.6500 ca        1 K11     -0.194000
     24 C14         8.6500   -0.1910   -2.6000 ca        1 K11     -0.005000
     25 C23         9.3400    1.0360   -2.3240 ca        1 K11     -0.076400
     26 N19        10.5280    1.3960   -3.1070 n4        1 K11     -0.542400
     27 C12        10.2090    2.1780   -4.3090 cc        1 K11      0.397700
     28 N5          9.1930    1.8060   -5.2210 na        1 K11     -0.240300
     29 C7          9.2160    2.7880   -6.2150 ca        1 K11     -0.048200
     30 C8          8.4490    2.9620   -7.3760 ca        1 K11     -0.089000
     31 C9          8.7500    4.0630   -8.1620 ca        1 K11     -0.107300
     32 C39         7.9480    4.2970   -9.4480 c3        1 K11      0.686200
     33 F2          6.6820    3.7670   -9.4160 f         1 K11     -0.219633
     34 F3          7.7640    5.6200   -9.7570 f         1 K11     -0.219633
     35 F1          8.5290    3.7480  -10.5620 f         1 K11     -0.219633
     36 C10         9.7790    4.9740   -7.8340 ca        1 K11     -0.094000
     37 C11        10.5480    4.8190   -6.6960 ca        1 K11     -0.044000
     38 C6         10.2770    3.7180   -5.8580 ca        1 K11      0.076400
     39 N4         10.8780    3.3140   -4.6600 nd        1 K11     -0.481100
     40 H38        -0.4580    1.6390    1.4150 hx        1 K11      0.118033
     41 H38A       -0.0910    3.3210    0.7690 hx        1 K11      0.118033
     42 H38B        0.9620    2.5900    2.0880 hx        1 K11      0.118033
     43 HN37        0.6890    1.5790   -0.7220 hn        1 K11      0.475800
     44 H33         1.0810   -2.6450    0.9340 h4        1 K11      0.082100
     45 H32         3.4510   -2.6570    1.9210 ha        1 K11      0.199000
     46 H25         4.3220   -0.9550    4.1470 ha        1 K11      0.163000
     47 H26         6.6210   -0.8790    5.1740 ha        1 K11      0.183000
     48 H27         8.6030   -0.3220    3.6890 h4        1 K11      0.057100
     49 H21         7.5490    2.2090    0.3370 ha        1 K11      0.182000
     50 H22         9.4510    2.8430   -1.1020 ha        1 K11      0.172000
     51 H18         6.0260   -2.0180   -1.3180 ha        1 K11      0.159000
     52 H17         6.7150   -3.5620   -3.1700 ha        1 K11      0.170000
     53 H16         8.6190   -2.9480   -4.6530 ha        1 K11      0.170000
     54 H15         9.8480   -0.8550   -4.3260 ha        1 K11      0.132000
     55 HN19       11.0260    0.5390   -3.3970 hn        1 K11      0.484800
     56 HN5         8.5480    1.0620   -5.1230 hn        1 K11      0.332700
     57 H8          7.6450    2.2630   -7.6540 ha        1 K11      0.173000
     58 H10         9.9630    5.8300   -8.5100 ha        1 K11      0.183000
     59 H11        11.3540    5.5280   -6.4440 ha        1 K11      0.182000
     60 H372        1.9780    2.4720   -0.1270 hn        1 K11      0.475800
     61 H192       11.1640    1.9630   -2.5180 hn        1 K11      0.484800
@<TRIPOS>BOND
     1    1    2 1   
     2    1   40 1   
     3    1   41 1   
     4    1   42 1   
     5    2    3 1   
     6    2   43 1   
     7    2   60 1   
     8    3    4 ar  
     9    3    5 ar  
    10    4    8 ar  
    11    5    6 ar  
    12    6    7 ar  
    13    6   44 1   
    14    7    8 ar  
    15    7   45 1   
    16    8    9 1   
    17    9   10 ar  
    18    9   14 ar  
    19   10   11 ar  
    20   10   46 1   
    21   11   12 ar  
    22   11   47 1   
    23   12   13 ar  
    24   12   48 1   
    25   13   14 ar  
    26   14   15 1   
    27   15   16 1   
    28   16   17 ar  
    29   16   19 ar  
    30   17   18 ar  
    31   17   49 1   
    32   18   25 ar  
    33   18   50 1   
    34   19   20 ar  
    35   19   24 ar  
    36   20   21 ar  
    37   20   51 1   
    38   21   22 ar  
    39   21   52 1   
    40   22   23 ar  
    41   22   53 1   
    42   23   24 ar  
    43   23   54 1   
    44   24   25 ar  
    45   25   26 1   
    46   26   27 1   
    47   26   55 1   
    48   26   61 1   
    49   27   28 1   
    50   27   39 2   
    51   28   29 1   
    52   28   56 1   
    53   29   30 ar  
    54   29   38 ar  
    55   30   31 ar  
    56   30   57 1   
    57   31   32 1   
    58   31   36 ar  
    59   32   33 1   
    60   32   34 1   
    61   32   35 1   
    62   36   37 ar  
    63   36   58 1   
    64   37   38 ar  
    65   37   59 1   
    66   38   39 1   
@<TRIPOS>SUBSTRUCTURE
     1 K11         1 TEMP              0 ****  ****    0 ROOT
