@<TRIPOS>MOLECULE
K11
   59    64     1     0     0
SMALL
bcc


@<TRIPOS>ATOM
      1 C38        -0.2240   -1.1280    0.8390 c3        1 K11      0.193100
      2 N37         0.8720   -0.2380    1.0840 nu        1 K11     -0.828900
      3 C35         1.9970   -0.6820    1.8000 ca        1 K11      0.864900
      4 N30         3.1480    0.0960    1.6940 nb        1 K11     -0.729000
      5 N34         1.8760   -1.8090    2.6080 nb        1 K11     -0.741000
      6 C33         2.9470   -2.1170    3.3530 ca        1 K11      0.461200
      7 C32         4.1440   -1.3840    3.3360 ca        1 K11     -0.414600
      8 C31         4.1940   -0.2720    2.4630 cp        1 K11      0.542800
      9 C24         5.4340    0.5190    2.4000 cp        1 K11     -0.278800
     10 C25         5.9440    1.1220    3.5560 ca        1 K11     -0.050000
     11 C26         7.1100    1.8830    3.4800 ca        1 K11     -0.280300
     12 C27         7.7380    2.0240    2.2300 ca        1 K11      0.438200
     13 N28         7.2900    1.4550    1.0980 nb        1 K11     -0.708000
     14 C29         6.1570    0.7110    1.1900 ca        1 K11      0.649600
     15 O36         5.6680    0.0200    0.0890 os        1 K11     -0.356400
     16 C20         6.1600    0.3640   -1.1730 ca        1 K11      0.120100
     17 C21         6.0440    1.6410   -1.6740 ca        1 K11     -0.124000
     18 C22         6.4160    1.9030   -3.0070 ca        1 K11     -0.080000
     19 C13         6.6780   -0.7070   -1.9620 ca        1 K11     -0.028000
     20 C18         6.8080   -2.0200   -1.4330 ca        1 K11     -0.095000
     21 C17         7.3300   -3.0340   -2.1970 ca        1 K11     -0.133000
     22 C16         7.7480   -2.7720   -3.5220 ca        1 K11     -0.112000
     23 C15         7.6230   -1.5130   -4.0580 ca        1 K11     -0.139000
     24 C14         7.0710   -0.4420   -3.3000 ca        1 K11     -0.034000
     25 C23         6.9050    0.8910   -3.8250 ca        1 K11      0.101600
     26 N19         7.1490    1.1650   -5.2000 nu        1 K11     -0.651600
     27 C12         8.1560    2.0920   -5.5360 cc        1 K11      0.612700
     28 N5          8.6540    2.1690   -6.8880 na        1 K11     -0.289300
     29 C7          9.5120    3.2820   -6.9010 ca        1 K11     -0.100200
     30 C8         10.2580    3.8660   -7.9230 ca        1 K11     -0.073000
     31 C9         11.0750    4.9410   -7.5760 ca        1 K11     -0.169300
     32 C39        11.8900    5.6300   -8.6630 c3        1 K11      0.689200
     33 F2         11.2700    6.7200   -9.2280 f         1 K11     -0.238967
     34 F3         13.1050    6.1180   -8.2460 f         1 K11     -0.238967
     35 F1         12.2030    4.8340   -9.7400 f         1 K11     -0.238967
     36 C10        11.1600    5.4210   -6.2600 ca        1 K11     -0.096000
     37 C11        10.4250    4.8470   -5.2300 ca        1 K11     -0.091000
     38 C6          9.5830    3.7700   -5.5330 ca        1 K11      0.122400
     39 N4          8.7350    3.0100   -4.7070 nd        1 K11     -0.595100
     40 H38        -1.0010   -0.5690    0.2530 h1        1 K11      0.045367
     41 H38A        0.0830   -2.0420    0.2600 h1        1 K11      0.045367
     42 H38B       -0.6720   -1.4600    1.8130 h1        1 K11      0.045367
     43 HN37        1.0740    0.4080    0.3490 hn        1 K11      0.430800
     44 H33         2.8350   -3.0100    3.9960 h4        1 K11      0.025100
     45 H32         5.0020   -1.6640    3.9540 ha        1 K11      0.154000
     46 H25         5.4170    0.9950    4.5140 ha        1 K11      0.149000
     47 H26         7.5280    2.3680    4.3700 ha        1 K11      0.151000
     48 H27         8.6590    2.6260    2.1180 h4        1 K11      0.031100
     49 H21         5.6660    2.4620   -1.0460 ha        1 K11      0.157000
     50 H22         6.3100    2.9330   -3.3850 ha        1 K11      0.159000
     51 H18         6.4790   -2.1980   -0.3970 ha        1 K11      0.151000
     52 H17         7.4330   -4.0510   -1.7900 ha        1 K11      0.137000
     53 H16         8.1800   -3.5900   -4.1180 ha        1 K11      0.134000
     54 H15         7.9790   -1.3460   -5.0840 ha        1 K11      0.121000
     55 HN19        7.1540    0.3450   -5.7750 hn        1 K11      0.419800
     56 HN5         8.1400    1.8740   -7.6780 hn        1 K11      0.297700
     57 H8         10.2160    3.4970   -8.9580 ha        1 K11      0.154000
     58 H10        11.8300    6.2690   -6.0450 ha        1 K11      0.151000
     59 H11        10.5020    5.2230   -4.2000 ha        1 K11      0.158000
@<TRIPOS>BOND
     1    1    2 1   
     2    1   40 1   
     3    1   41 1   
     4    1   42 1   
     5    2    3 1   
     6    2   43 1   
     7    3    4 ar  
     8    3    5 ar  
     9    4    8 ar  
    10    5    6 ar  
    11    6    7 ar  
    12    6   44 1   
    13    7    8 ar  
    14    7   45 1   
    15    8    9 1   
    16    9   10 ar  
    17    9   14 ar  
    18   10   11 ar  
    19   10   46 1   
    20   11   12 ar  
    21   11   47 1   
    22   12   13 ar  
    23   12   48 1   
    24   13   14 ar  
    25   14   15 1   
    26   15   16 1   
    27   16   17 ar  
    28   16   19 ar  
    29   17   18 ar  
    30   17   49 1   
    31   18   25 ar  
    32   18   50 1   
    33   19   20 ar  
    34   19   24 ar  
    35   20   21 ar  
    36   20   51 1   
    37   21   22 ar  
    38   21   52 1   
    39   22   23 ar  
    40   22   53 1   
    41   23   24 ar  
    42   23   54 1   
    43   24   25 ar  
    44   25   26 1   
    45   26   27 1   
    46   26   55 1   
    47   27   28 1   
    48   27   39 2   
    49   28   29 1   
    50   28   56 1   
    51   29   30 ar  
    52   29   38 ar  
    53   30   31 ar  
    54   30   57 1   
    55   31   32 1   
    56   31   36 ar  
    57   32   33 1   
    58   32   34 1   
    59   32   35 1   
    60   36   37 ar  
    61   36   58 1   
    62   37   38 ar  
    63   37   59 1   
    64   38   39 1   
@<TRIPOS>SUBSTRUCTURE
     1 K11         1 TEMP              0 ****  ****    0 ROOT
