@<TRIPOS>MOLECULE
K12
   43    39     1     0     0
SMALL
bcc


@<TRIPOS>ATOM
      1 P        -168.6690  -52.9470  -37.8920 p5        1 K12      1.798000
      2 C1       -166.4430  -52.4860  -37.4970 c1        1 K12      0.124000
      3 C2       -163.0850  -51.8770  -36.9690 c3        1 K12     -0.218500
      4 C3       -162.7890  -50.5680  -36.2980 c3        1 K12     -0.218500
      5 C4         86.8540   27.5240   20.0290 c3        1 K12     -0.279500
      6 C5         87.9880   28.4120   20.4710 c3        1 K12     -0.145500
      7 C6         89.3350   27.7650   20.2250 c3        1 K12     -0.160000
      8 C7         90.4710   28.6610   20.6710 c3        1 K12     -0.158000
      9 C8         91.8180   28.0150   20.4260 c3        1 K12     -0.160000
     10 C9         92.9590   28.9100   20.8710 c3        1 K12     -0.145500
     11 C10        94.3020   28.2860   20.6360 c3        1 K12     -0.279500
     12 C11        96.4240   30.0000   21.4170 c1        1 K12     -0.358000
     13 C12        97.3830   30.6490   21.7870 c1        1 K12     -0.467000
     14 O3'        98.4010   31.4120   22.2380 oh        1 K12     -0.230000
     15 O5'      -167.1410  -52.5660  -38.6420 os        1 K12     -0.693000
     16 OP1      -167.4540  -52.7590  -36.6540 os        1 K12     -0.693000
     17 OP2      -169.5870  -51.8080  -37.9260 o         1 K12     -0.765500
     18 H10        94.4530   28.0670   19.5540 hc        1 K12      0.087500
     19 H10A       94.4030   27.3340   21.2060 hc        1 K12      0.087500
     20 H1       -162.5960  -51.9240  -37.9720 hc        1 K12      0.071833
     21 H11        95.1730   29.0270   20.9850 hc        1 K12      0.087500
     22 H1A      -163.1720  -49.7170  -36.9120 hc        1 K12      0.071833
     23 H11A       92.8390   29.1450   21.9610 hc        1 K12      0.070500
     24 H2       -164.1920  -52.0140  -37.1100 hc        1 K12      0.071833
     25 H12        95.0200   30.7650   19.5750 ha        1 K12     -0.001000
     26 H2A      -162.7030  -52.7280  -36.3550 hc        1 K12      0.071833
     27 H12A       94.7080   31.0830   19.0590 ha        1 K12     -0.001000
     28 H3         85.8720   28.0200   20.2200 hc        1 K12      0.087500
     29 H3A      -163.2820  -50.5210  -35.2960 hc        1 K12      0.071833
     30 H4       -161.6900  -50.4280  -36.1530 hc        1 K12      0.071833
     31 H4A        86.8740   26.5550   20.5840 hc        1 K12      0.087500
     32 H5         86.9310   27.3020   18.9370 hc        1 K12      0.087500
     33 H5A        87.9390   29.3890   19.9220 hc        1 K12      0.070500
     34 H6         87.8810   28.6440   21.5640 hc        1 K12      0.070500
     35 H6A        89.3880   26.7890   20.7760 hc        1 K12      0.069000
     36 H7         89.4450   27.5330   19.1330 hc        1 K12      0.069000
     37 H7A        90.3600   28.8930   21.7620 hc        1 K12      0.074000
     38 H8         90.4180   29.6360   20.1190 hc        1 K12      0.074000
     39 H8A        91.8720   27.0400   20.9780 hc        1 K12      0.069000
     40 H9         91.9300   27.7820   19.3350 hc        1 K12      0.069000
     41 H9A        92.9020   29.8850   20.3170 hc        1 K12      0.070500
     42 OP3      -169.0320  -54.3510  -38.0860 o         1 K12     -0.765500
     43 HO3'       99.1860   31.0680   21.7850 ho        1 K12      0.152000
@<TRIPOS>BOND
     1    1   15 1   
     2    1   16 1   
     3    1   17 1   
     4    1   42 1   
     5    2   15 1   
     6    2   16 1   
     7    3    4 1   
     8    3   20 1   
     9    3   24 1   
    10    3   26 1   
    11    4   22 1   
    12    4   29 1   
    13    4   30 1   
    14    5    6 1   
    15    5   28 1   
    16    5   31 1   
    17    5   32 1   
    18    6    7 1   
    19    6   33 1   
    20    6   34 1   
    21    7    8 1   
    22    7   35 1   
    23    7   36 1   
    24    8    9 1   
    25    8   37 1   
    26    8   38 1   
    27    9   10 1   
    28    9   39 1   
    29    9   40 1   
    30   10   11 1   
    31   10   23 1   
    32   10   41 1   
    33   11   18 1   
    34   11   19 1   
    35   11   21 1   
    36   12   13 1   
    37   13   14 1   
    38   14   43 1   
    39   25   27 1   
@<TRIPOS>SUBSTRUCTURE
     1 K12         1 TEMP              0 ****  ****    0 ROOT
