@<TRIPOS>MOLECULE
K12
   43    38     1     0     0
SMALL
bcc


@<TRIPOS>ATOM
      1 P        -469.9960 -221.4840 -137.2970 p3        1 K12      2.416000
      2 C1       -467.1700 -219.8930 -136.3600 c2        1 K12      0.205000
      3 C2       -465.7610 -219.6730 -135.8840 c3        1 K12     -0.241000
      4 C3       -465.6030 -218.3300 -135.2230 c3        1 K12     -0.204000
      5 C4        233.8220  108.6500   65.0930 c3        1 K12     -0.281500
      6 C5        235.2620  108.6200   65.5350 c3        1 K12     -0.143500
      7 C6        235.4750  109.4190   66.8040 c3        1 K12     -0.160000
      8 C7        236.9220  109.3860   67.2450 c3        1 K12     -0.158000
      9 C8        237.1370  110.1840   68.5130 c3        1 K12     -0.160000
     10 C9        238.5860  110.1530   68.9580 c3        1 K12     -0.143500
     11 C10       238.8170  110.9390   70.2140 c3        1 K12     -0.281500
     12 C11       241.5350  110.8580   71.0310 c1        1 K12     -0.357000
     13 C12       242.7180  110.8510   71.3060 c1        1 K12     -0.466000
     14 O3'       244.0210  110.9040   71.6550 oh        1 K12     -0.230000
     15 O5'      -467.6810 -221.0170 -136.3780 o         1 K12     -0.312000
     16 OP1      -470.6900 -221.9720 -136.0920 o         1 K12     -1.140667
     17 OP2      -469.7540 -220.0330 -137.4650 o         1 K12     -1.140667
     18 H10       238.2100  110.5310   71.0550 hc        1 K12      0.088833
     19 H10A      238.5420  112.0090   70.0670 hc        1 K12      0.088833
     20 H1       -467.7270 -218.9950 -136.7120 h4        1 K12      0.148000
     21 H11       239.9670  110.8920   70.5360 hc        1 K12      0.088833
     22 H1A      -466.2530 -218.2590 -134.3170 hc        1 K12      0.070667
     23 H11A      239.2320  110.5620   68.1360 hc        1 K12      0.069000
     24 H2       -465.4620 -220.4910 -135.1770 hc        1 K12      0.098500
     25 H12       239.5530  110.1660   73.3080 ha        1 K12     -0.001000
     26 H2A      -465.0870 -219.7430 -136.7800 hc        1 K12      0.098500
     27 H12A      239.9270  110.3330   72.7630 ha        1 K12     -0.001000
     28 H3        233.6870  108.0560   64.1570 hc        1 K12      0.088833
     29 H3A      -464.5430 -218.1740 -134.9090 hc        1 K12      0.070667
     30 H4       -465.8890 -217.5080 -135.9230 hc        1 K12      0.070667
     31 H4A       233.4930  109.6990   64.8950 hc        1 K12      0.088833
     32 H5        233.1580  108.2210   65.8820 hc        1 K12      0.088833
     33 H5A       235.5810  107.5580   65.7060 hc        1 K12      0.069000
     34 H6        235.9150  109.0330   64.7210 hc        1 K12      0.069000
     35 H6A       235.1580  110.4820   66.6350 hc        1 K12      0.069500
     36 H7        234.8240  109.0070   67.6200 hc        1 K12      0.069500
     37 H7A       237.5730  109.7980   66.4290 hc        1 K12      0.073000
     38 H8        237.2390  108.3230   67.4130 hc        1 K12      0.073000
     39 H8A       236.8200  111.2470   68.3450 hc        1 K12      0.069500
     40 H9        236.4870  109.7730   69.3290 hc        1 K12      0.069500
     41 H9A       238.8990  109.0880   69.1200 hc        1 K12      0.069000
     42 OP3      -469.6730 -222.4080 -138.3990 o         1 K12     -1.140667
     43 HO3'      244.4230  110.1330   71.2250 ho        1 K12      0.152000
@<TRIPOS>BOND
     1    1   16 1   
     2    1   17 1   
     3    1   42 1   
     4    2    3 1   
     5    2   15 1   
     6    2   20 1   
     7    3    4 1   
     8    3   24 1   
     9    3   26 1   
    10    4   22 1   
    11    4   29 1   
    12    4   30 1   
    13    5    6 1   
    14    5   28 1   
    15    5   31 1   
    16    5   32 1   
    17    6    7 1   
    18    6   33 1   
    19    6   34 1   
    20    7    8 1   
    21    7   35 1   
    22    7   36 1   
    23    8    9 1   
    24    8   37 1   
    25    8   38 1   
    26    9   10 1   
    27    9   39 1   
    28    9   40 1   
    29   10   11 1   
    30   10   23 1   
    31   10   41 1   
    32   11   18 1   
    33   11   19 1   
    34   11   21 1   
    35   12   13 1   
    36   13   14 1   
    37   14   43 1   
    38   25   27 1   
@<TRIPOS>SUBSTRUCTURE
     1 K12         1 TEMP              0 ****  ****    0 ROOT
