@<TRIPOS>MOLECULE
K12
   43    41     1     0     0
SMALL
bcc


@<TRIPOS>ATOM
      1 P          -6.9590   -3.9340   -3.5210 p3        1 K12      2.505000
      2 C1         -5.2050   -2.5950   -2.0900 c3        1 K12      0.050000
      3 C2         -3.8930   -2.7630   -1.2950 c3        1 K12     -0.176000
      4 C3         -3.3000   -1.3510   -0.9630 c3        1 K12     -0.155000
      5 C4         -1.9430   -1.5170   -0.2630 c3        1 K12     -0.157000
      6 C5         -1.3330   -0.1590   -0.0180 c3        1 K12     -0.158000
      7 C6          0.0190   -0.3240    0.6770 c3        1 K12     -0.157000
      8 C7          0.7240    1.0320    0.7470 c3        1 K12     -0.158000
      9 C8          2.2090    0.8270    1.2350 c3        1 K12     -0.158000
     10 C9          2.9890    2.1800    1.1250 c3        1 K12     -0.157000
     11 C10         4.3560    2.0220    1.7240 c3        1 K12     -0.158000
     12 C11         5.1760    3.2990    1.4850 c3        1 K12     -0.162000
     13 C12         6.6280    3.0940    2.0520 c3        1 K12     -0.020000
     14 O3'         7.4320    4.2690    1.7700 oh        1 K12     -0.331000
     15 O5'        -5.5940   -3.8600   -2.6470 o         1 K12     -0.728000
     16 OP1        -7.0970   -5.3090   -4.1240 o         1 K12     -1.256667
     17 OP2        -6.9080   -2.8990   -4.6290 o         1 K12     -1.256667
     18 H10         4.2740    1.8640    2.6850 hc        1 K12      0.077000
     19 H10A        4.8000    1.2750    1.3140 hc        1 K12      0.077000
     20 H1         -5.9010   -2.2760   -1.4990 h1        1 K12      0.045000
     21 H11         5.2220    3.4840    0.5290 hc        1 K12      0.093000
     22 H1A        -5.0700   -1.9560   -2.8040 h1        1 K12      0.045000
     23 H11A        4.7420    4.0630    1.9520 hc        1 K12      0.093000
     24 H2         -4.0780   -3.2510   -0.4500 hc        1 K12      0.059000
     25 H12         7.0330    2.3150    1.6300 h1        1 K12      0.057000
     26 H2A        -3.2470   -3.2720   -1.8330 hc        1 K12      0.059000
     27 H12A        6.5800    2.9520    3.0380 h1        1 K12      0.057000
     28 H3         -3.1780   -0.8350   -1.8060 hc        1 K12      0.071000
     29 H3A        -3.9140   -0.8710   -0.3740 hc        1 K12      0.071000
     30 H4         -1.3520   -2.0380   -0.8240 hc        1 K12      0.068000
     31 H4A        -2.0710   -1.9770    0.5940 hc        1 K12      0.068000
     32 H5         -1.9290    0.3680    0.5500 hc        1 K12      0.074000
     33 H5A        -1.2060    0.2990   -0.8720 hc        1 K12      0.074000
     34 H6         -0.1170   -0.6650    1.5790 hc        1 K12      0.073000
     35 H6A         0.5750   -0.9560    0.1670 hc        1 K12      0.073000
     36 H7          0.7250    1.4450   -0.1410 hc        1 K12      0.077000
     37 H7A         0.2420    1.6260    1.3890 hc        1 K12      0.077000
     38 H8          2.2090    0.5200    2.1860 hc        1 K12      0.076000
     39 H8A         2.6510    0.1410    0.6660 hc        1 K12      0.076000
     40 H9          2.4990    2.8820    1.6130 hc        1 K12      0.080000
     41 H9A         3.0720    2.4300    0.1910 hc        1 K12      0.080000
     42 OP3        -8.1470   -3.6550   -2.6260 o         1 K12     -1.256667
     43 HO3'        8.2850    4.0740    1.8770 ho        1 K12      0.191000
@<TRIPOS>BOND
     1    1   16 1   
     2    1   17 1   
     3    1   42 1   
     4    2    3 1   
     5    2   15 1   
     6    2   20 1   
     7    2   22 1   
     8    3    4 1   
     9    3   24 1   
    10    3   26 1   
    11    4    5 1   
    12    4   28 1   
    13    4   29 1   
    14    5    6 1   
    15    5   30 1   
    16    5   31 1   
    17    6    7 1   
    18    6   32 1   
    19    6   33 1   
    20    7    8 1   
    21    7   34 1   
    22    7   35 1   
    23    8    9 1   
    24    8   36 1   
    25    8   37 1   
    26    9   10 1   
    27    9   38 1   
    28    9   39 1   
    29   10   11 1   
    30   10   40 1   
    31   10   41 1   
    32   11   12 1   
    33   11   18 1   
    34   11   19 1   
    35   12   13 1   
    36   12   21 1   
    37   12   23 1   
    38   13   14 1   
    39   13   25 1   
    40   13   27 1   
    41   14   43 1   
@<TRIPOS>SUBSTRUCTURE
     1 K12         1 TEMP              0 ****  ****    0 ROOT
