@<TRIPOS>MOLECULE
K12
   43    42     1     0     0
SMALL
bcc


@<TRIPOS>ATOM
      1 P           6.6780   -0.3090    0.0530 p5        1 K12      1.312900
      2 C1          4.1290   -0.1690    0.0350 c3        1 K12      0.200400
      3 C2          2.8430    0.6620   -0.0500 c3        1 K12     -0.097400
      4 C3          1.6170   -0.2200    0.0350 c3        1 K12     -0.076400
      5 C4          0.3390    0.5880   -0.0480 c3        1 K12     -0.078400
      6 C5         -0.8880   -0.2960    0.0380 c3        1 K12     -0.079400
      7 C6         -2.1630    0.5170   -0.0460 c3        1 K12     -0.078400
      8 C7         -3.3910   -0.3650    0.0390 c3        1 K12     -0.079400
      9 C8         -4.6610    0.4540   -0.0450 c3        1 K12     -0.079400
     10 C9         -5.8920   -0.4230    0.0400 c3        1 K12     -0.078400
     11 C10        -7.1590    0.4020   -0.0450 c3        1 K12     -0.079400
     12 C11        -8.3910   -0.4710    0.0390 c3        1 K12     -0.083400
     13 C12        -9.6480    0.3770   -0.0480 c3        1 K12      0.130400
     14 O3'       -10.7590   -0.5030    0.0380 oh        1 K12     -0.603800
     15 O5'         5.2280    0.6530   -0.0450 os        1 K12     -0.566200
     16 OP1         6.5100   -0.9730    1.3970 o         1 K12     -0.937167
     17 OP2         6.5140   -1.2240   -1.1340 o         1 K12     -0.937167
     18 H10        -7.1710    1.1540    0.7870 hc        1 K12      0.037700
     19 H10A       -7.1680    0.9750   -1.0100 hc        1 K12      0.037700
     20 H1          4.1440   -0.7380    1.0080 h1        1 K12      0.005700
     21 H11        -8.3930   -1.2230   -0.7920 hc        1 K12      0.053700
     22 H1A         4.1480   -0.9190   -0.8070 h1        1 K12      0.005700
     23 H11A       -8.3960   -1.0440    1.0030 hc        1 K12      0.053700
     24 H2          2.8350    1.4110    0.7820 hc        1 K12      0.019700
     25 H12        -9.6840    1.1180    0.7950 h1        1 K12      0.017700
     26 H2A         2.8380    1.2330   -1.0130 hc        1 K12      0.019700
     27 H12A       -9.6800    0.9370   -1.0210 h1        1 K12      0.017700
     28 H3          1.6400   -0.9720   -0.7970 hc        1 K12      0.031700
     29 H3A         1.6360   -0.7940    0.9990 hc        1 K12      0.031700
     30 H4          0.3170    1.3400    0.7840 hc        1 K12      0.028700
     31 H4A         0.3210    1.1620   -1.0120 hc        1 K12      0.028700
     32 H5         -0.8660   -1.0480   -0.7940 hc        1 K12      0.034700
     33 H5A        -0.8700   -0.8690    1.0020 hc        1 K12      0.034700
     34 H6         -2.1820    1.2700    0.7860 hc        1 K12      0.033700
     35 H6A        -2.1790    1.0900   -1.0100 hc        1 K12      0.033700
     36 H7         -3.3710   -1.1170   -0.7930 hc        1 K12      0.037700
     37 H7A        -3.3750   -0.9380    1.0030 hc        1 K12      0.037700
     38 H8         -4.6780    1.2060    0.7860 hc        1 K12      0.036700
     39 H8A        -4.6750    1.0270   -1.0100 hc        1 K12      0.036700
     40 H9         -5.8770   -1.1760   -0.7920 hc        1 K12      0.040700
     41 H9A        -5.8800   -0.9970    1.0040 hc        1 K12      0.040700
     42 OP3         7.7540    0.7370   -0.0490 o         1 K12     -0.937167
     43 HO3'      -11.5480    0.0480   -0.0190 ho        1 K12      0.392000
@<TRIPOS>BOND
     1    1   15 1   
     2    1   16 1   
     3    1   17 1   
     4    1   42 1   
     5    2    3 1   
     6    2   15 1   
     7    2   20 1   
     8    2   22 1   
     9    3    4 1   
    10    3   24 1   
    11    3   26 1   
    12    4    5 1   
    13    4   28 1   
    14    4   29 1   
    15    5    6 1   
    16    5   30 1   
    17    5   31 1   
    18    6    7 1   
    19    6   32 1   
    20    6   33 1   
    21    7    8 1   
    22    7   34 1   
    23    7   35 1   
    24    8    9 1   
    25    8   36 1   
    26    8   37 1   
    27    9   10 1   
    28    9   38 1   
    29    9   39 1   
    30   10   11 1   
    31   10   40 1   
    32   10   41 1   
    33   11   12 1   
    34   11   18 1   
    35   11   19 1   
    36   12   13 1   
    37   12   21 1   
    38   12   23 1   
    39   13   14 1   
    40   13   25 1   
    41   13   27 1   
    42   14   43 1   
@<TRIPOS>SUBSTRUCTURE
     1 K12         1 TEMP              0 ****  ****    0 ROOT
