@<TRIPOS>MOLECULE
K13
   80    82     1     0     0
SMALL
bcc


@<TRIPOS>ATOM
      1 N1          0.7430    1.5710   -0.8500 nv        1 K13     -0.768200
      2 C2          1.7260    1.0740   -0.0870 ca        1 K13      0.333600
      3 C3          1.5030   -0.0410    0.8000 ca        1 K13     -0.233500
      4 C4          2.5050   -0.5210    1.5880 ca        1 K13      0.067500
      5 C5          3.8270    0.0400    1.5890 ca        1 K13     -0.729500
      6 C6          4.0390    1.1320    0.6770 ca        1 K13      0.067500
      7 C7          3.0580    1.6330   -0.1180 ca        1 K13     -0.233500
      8 S8          4.9250   -0.4380    2.5110 s4        1 K13      1.700300
      9 O9          6.1280    0.2010    2.4990 o         1 K13     -0.470900
     10 O10         4.6640   -1.3480    3.4980 o         1 K13     -0.470900
     11 N11         6.0060   -2.2620    1.1630 n7        1 K13     -0.899200
     12 C12         5.1150   -2.8890    0.1910 c3        1 K13      0.116800
     13 C13         5.6960   -3.1280   -1.2110 c3        1 K13     -0.088700
     14 C14         6.8950   -4.0490   -1.1650 c3        1 K13     -0.100100
     15 C15         4.5970   -3.7020   -2.0980 c3        1 K13     -0.074400
     16 C16         6.7490   -3.1740    2.0290 c3        1 K13      0.114800
     17 C17         5.8790   -4.1190    2.8750 c3        1 K13      0.111100
     18 C18         4.8910   -3.5130   -3.5630 c3        1 K13     -0.099100
     19 O18         5.4910   -5.2900    2.1880 oh        1 K13     -0.601800
     20 C19         6.6370   -4.5040    4.1760 c3        1 K13      0.103500
     21 N20         5.7860   -5.4450    5.0020 ny        1 K13     -0.636800
     22 C21         4.6660   -4.7310    5.6810 c         1 K13      0.617100
     23 O22         4.8030   -4.1230    6.7310 o         1 K13     -0.411000
     24 O23         3.5210   -4.8770    4.9830 os        1 K13     -0.401900
     25 C24         2.3320   -4.2100    5.5180 c3        1 K13      0.138100
     26 C25         2.4730   -2.6870    5.3920 c3        1 K13      0.096400
     27 O26         1.6970   -2.2500    4.2730 os        1 K13     -0.432600
     28 C27         0.8760   -3.3060    3.7890 c3        1 K13      0.320900
     29 O28         1.3310   -3.5000    2.4570 os        1 K13     -0.446600
     30 C29         1.7940   -4.8490    2.2760 c3        1 K13      0.124400
     31 C30         1.4430   -5.6460    3.5330 c3        1 K13     -0.098400
     32 C31         1.1610   -4.5960    4.6010 c3        1 K13     -0.112700
     33 C32         7.9980   -5.1530    3.8820 c3        1 K13     -0.052100
     34 C33         8.5620   -7.0330    5.4350 ca        1 K13     -0.132500
     35 C34         9.2080   -7.5280    6.5660 ca        1 K13     -0.108500
     36 C35         9.9450   -6.6680    7.3840 ca        1 K13     -0.088000
     37 C36        10.0380   -5.3130    7.0650 ca        1 K13     -0.108500
     38 C37         9.3950   -4.8140    5.9320 ca        1 K13     -0.132500
     39 C38         8.6500   -5.6710    5.1130 ca        1 K13     -0.175300
     40 HN1        -0.1760    1.1850   -0.8180 hn        1 K13      0.471800
     41 HN1A        0.9040    2.3470   -1.4540 hn        1 K13      0.471800
     42 H3          0.5030   -0.5070    0.8430 ha        1 K13      0.178000
     43 H4          2.2930   -1.3770    2.2700 ha        1 K13      0.184500
     44 H6          5.0510    1.5850    0.6410 ha        1 K13      0.184500
     45 H7          3.2720    2.4810   -0.7930 ha        1 K13      0.178000
     46 H12         4.2320   -2.1900    0.0900 h1        1 K13      0.070700
     47 H12A        4.7270   -3.8680    0.5950 h1        1 K13      0.070700
     48 H13         6.0200   -2.1380   -1.6430 hc        1 K13      0.062700
     49 H14         7.1780   -4.3640   -2.2010 hc        1 K13      0.043033
     50 H14A        6.6670   -4.9690   -0.5730 hc        1 K13      0.043033
     51 H14B        7.7780   -3.5360   -0.7130 hc        1 K13      0.043033
     52 H15         3.6220   -3.2010   -1.8550 hc        1 K13      0.044200
     53 H15A        4.4740   -4.7950   -1.8740 hc        1 K13      0.044200
     54 H16         7.3550   -2.5230    2.7270 h1        1 K13      0.076700
     55 H16A        7.4720   -3.8070    1.4330 h1        1 K13      0.076700
     56 H17         4.8960   -3.6280    3.1610 h1        1 K13      0.122700
     57 H18         4.9960   -2.4290   -3.8130 hc        1 K13      0.048367
     58 H18A        5.8360   -4.0320   -3.8550 hc        1 K13      0.048367
     59 H18B        4.0580   -3.9360   -4.1760 hc        1 K13      0.048367
     60 HO18        6.2170   -5.5820    1.6170 ho        1 K13      0.432000
     61 H19         6.7930   -3.5740    4.8030 hx        1 K13      0.125700
     62 HN20        5.4030   -6.1680    4.3740 hn        1 K13      0.490300
     63 H24         2.2030   -4.5510    6.5780 h1        1 K13      0.112700
     64 H25         3.5310   -2.3690    5.2000 h1        1 K13      0.088700
     65 H25A        2.0690   -2.1750    6.3040 h1        1 K13      0.088700
     66 H27        -0.1840   -2.9480    3.7630 h2        1 K13      0.120700
     67 H29         2.9030   -4.8030    2.1120 h1        1 K13      0.060700
     68 H29A        1.2810   -5.2380    1.3610 h1        1 K13      0.060700
     69 H30         0.5230   -6.2630    3.3600 hc        1 K13      0.078700
     70 H30A        2.2670   -6.3410    3.8180 hc        1 K13      0.078700
     71 H31         0.2880   -4.8850    5.2390 hc        1 K13      0.117700
     72 H32         7.8700   -5.9780    3.1300 hc        1 K13      0.085200
     73 H32A        8.6460   -4.3620    3.4130 hc        1 K13      0.085200
     74 H35        10.4630   -7.0640    8.2740 ha        1 K13      0.167000
     75 H36        10.6310   -4.6360    7.7020 ha        1 K13      0.162500
     76 H37         9.4900   -3.7480    5.6760 ha        1 K13      0.134500
     77 H33         8.0250   -7.7260    4.7700 ha        1 K13      0.134500
     78 H111        6.6940   -1.7070    0.6670 hn        1 K13      0.401800
     79 H202        6.3870   -5.8850    5.7230 hn        1 K13      0.490300
     80 H34         9.1500   -8.6020    6.8070 ha        1 K13      0.162500
@<TRIPOS>BOND
     1    1    2 1   
     2    1   40 1   
     3    1   41 1   
     4    2    3 ar  
     5    2    7 ar  
     6    3    4 ar  
     7    3   42 1   
     8    4    5 ar  
     9    4   43 1   
    10    5    6 ar  
    11    5    8 1   
    12    6    7 ar  
    13    6   44 1   
    14    7   45 1   
    15    8    9 1   
    16    8   10 1   
    17   11   12 1   
    18   11   16 1   
    19   11   78 1   
    20   12   13 1   
    21   12   46 1   
    22   12   47 1   
    23   13   14 1   
    24   13   15 1   
    25   13   48 1   
    26   14   49 1   
    27   14   50 1   
    28   14   51 1   
    29   15   18 1   
    30   15   52 1   
    31   15   53 1   
    32   16   17 1   
    33   16   54 1   
    34   16   55 1   
    35   17   19 1   
    36   17   20 1   
    37   17   56 1   
    38   18   57 1   
    39   18   58 1   
    40   18   59 1   
    41   19   60 1   
    42   20   21 1   
    43   20   33 1   
    44   20   61 1   
    45   21   22 1   
    46   21   62 1   
    47   21   79 1   
    48   22   23 2   
    49   22   24 1   
    50   24   25 1   
    51   25   26 1   
    52   25   32 1   
    53   25   63 1   
    54   26   27 1   
    55   26   64 1   
    56   26   65 1   
    57   27   28 1   
    58   28   29 1   
    59   28   32 1   
    60   28   66 1   
    61   29   30 1   
    62   30   31 1   
    63   30   67 1   
    64   30   68 1   
    65   31   32 1   
    66   31   69 1   
    67   31   70 1   
    68   32   71 1   
    69   33   39 1   
    70   33   72 1   
    71   33   73 1   
    72   34   35 ar  
    73   34   39 ar  
    74   34   77 1   
    75   35   36 ar  
    76   35   80 1   
    77   36   37 ar  
    78   36   74 1   
    79   37   38 ar  
    80   37   75 1   
    81   38   39 ar  
    82   38   76 1   
@<TRIPOS>SUBSTRUCTURE
     1 K13         1 TEMP              0 ****  ****    0 ROOT
