@<TRIPOS>MOLECULE
K13
   81    84     1     0     0
SMALL
bcc


@<TRIPOS>ATOM
      1 N1          5.1340    3.5720   -1.2120 n4        1 K13     -0.724000
      2 C2          4.8600    2.2950   -0.5440 ca        1 K13      0.052600
      3 C3          4.0930    1.3170   -1.2000 ca        1 K13     -0.113500
      4 C4          3.7980    0.1280   -0.5350 ca        1 K13      0.023000
      5 C5          4.2490   -0.1160    0.7740 ca        1 K13     -0.434500
      6 C6          5.0350    0.8690    1.3960 ca        1 K13      0.023000
      7 C7          5.3460    2.0670    0.7550 ca        1 K13     -0.113500
      8 S8          3.6980   -1.4410    1.6180 sy        1 K13      1.450200
      9 O9          3.9970   -1.3390    2.9650 o         1 K13     -0.544300
     10 O10         2.4950   -1.8740    1.1170 o         1 K13     -0.544300
     11 N11         4.9680   -2.7200    1.0340 n4        1 K13     -0.623300
     12 C12         4.3110   -3.9120    0.4150 c3        1 K13      0.078800
     13 C13         3.7950   -3.6890   -1.0140 c3        1 K13     -0.089700
     14 C14         4.8820   -3.1870   -1.9370 c3        1 K13     -0.121100
     15 C15         3.2360   -5.0260   -1.5050 c3        1 K13     -0.074400
     16 C16         5.9330   -3.1220    2.0970 c3        1 K13      0.093800
     17 C17         5.3920   -4.1030    3.1610 c3        1 K13      0.113100
     18 C18         2.2670   -4.8430   -2.6450 c3        1 K13     -0.103100
     19 O18         5.4670   -5.4230    2.6680 oh        1 K13     -0.604800
     20 C19         6.3060   -4.0340    4.4200 c3        1 K13      0.134500
     21 N20         5.8380   -5.0180    5.4670 n4        1 K13     -0.638800
     22 C21         4.5270   -4.6050    6.0520 c         1 K13      0.613100
     23 O22         4.4290   -3.7530    6.9210 o         1 K13     -0.392000
     24 O23         3.5190   -5.3120    5.4990 os        1 K13     -0.409900
     25 C24         2.1780   -4.7230    5.5660 c3        1 K13      0.140100
     26 C25         2.1880   -3.3560    4.8660 c3        1 K13      0.082400
     27 O26         2.1530   -3.6350    3.4550 os        1 K13     -0.475600
     28 C27         1.4740   -4.8780    3.2530 c3        1 K13      0.325900
     29 O28         2.4170   -5.6430    2.5080 os        1 K13     -0.490600
     30 C29         2.4090   -7.0030    3.0010 c3        1 K13      0.125400
     31 C30         1.7580   -7.0130    4.3840 c3        1 K13     -0.103400
     32 C31         1.3060   -5.5820    4.6310 c3        1 K13     -0.110700
     33 C32         7.7760   -4.3090    4.0620 c3        1 K13     -0.045100
     34 C33         9.4380   -5.7100    5.2900 ca        1 K13     -0.132000
     35 C34        10.2840   -5.9310    6.3780 ca        1 K13     -0.106500
     36 C35        10.3210   -5.0200    7.4340 ca        1 K13     -0.080000
     37 C36         9.5100   -3.8820    7.4020 ca        1 K13     -0.106500
     38 C37         8.6670   -3.6570    6.3170 ca        1 K13     -0.132000
     39 C38         8.6230   -4.5730    5.2550 ca        1 K13     -0.195300
     40 HN1         6.0220    3.9720   -0.8750 hn        1 K13      0.489800
     41 HN1A        4.3710    4.2380   -1.0080 hn        1 K13      0.489800
     42 H3          3.7040    1.4680   -2.2260 ha        1 K13      0.198000
     43 H4          3.1650   -0.6250   -1.0520 ha        1 K13      0.197000
     44 H6          5.3960    0.7150    2.4340 ha        1 K13      0.197000
     45 H7          5.9570    2.8190    1.2900 ha        1 K13      0.198000
     46 H12         3.4480   -4.2150    1.0860 hx        1 K13      0.123200
     47 H12A        5.0590   -4.7600    0.3880 hx        1 K13      0.123200
     48 H13         2.9460   -2.9470   -0.9880 hc        1 K13      0.068700
     49 H14         5.0970   -2.1030   -1.7640 hc        1 K13      0.051700
     50 H14A        4.5560   -3.3000   -3.0030 hc        1 K13      0.051700
     51 H14B        5.8260   -3.7710   -1.8100 hc        1 K13      0.051700
     52 H15         2.7070   -5.5410   -0.6580 hc        1 K13      0.061700
     53 H15A        4.0840   -5.6850   -1.8270 hc        1 K13      0.061700
     54 H16         6.2780   -2.1790    2.6130 hx        1 K13      0.112200
     55 H16A        6.8220   -3.6190    1.6030 hx        1 K13      0.112200
     56 H17         4.3320   -3.8340    3.4500 h1        1 K13      0.099700
     57 H18         1.8790   -5.8410   -2.9690 hc        1 K13      0.056367
     58 H18A        1.3970   -4.2140   -2.3360 hc        1 K13      0.056367
     59 H18B        2.7590   -4.3630   -3.5240 hc        1 K13      0.056367
     60 HO18        4.5740   -5.6980    2.3980 ho        1 K13      0.460000
     61 H19         6.2070   -3.0060    4.8840 hx        1 K13      0.118700
     62 HN20        6.5540   -5.0470    6.2210 hn        1 K13      0.499300
     63 H24         1.8560   -4.7020    6.6360 h1        1 K13      0.138700
     64 H25         3.1060   -2.7440    5.0460 h1        1 K13      0.094200
     65 H25A        1.2720   -2.7700    5.1440 h1        1 K13      0.094200
     66 H27         0.5490   -4.6990    2.6500 h2        1 K13      0.129700
     67 H29         3.4800   -7.3290    3.0280 h1        1 K13      0.071700
     68 H29A        1.8390   -7.6220    2.2610 h1        1 K13      0.071700
     69 H30         2.4710   -7.3660    5.1680 hc        1 K13      0.093700
     70 H30A        0.8780   -7.7070    4.3960 hc        1 K13      0.093700
     71 H31         0.2490   -5.5400    5.0000 hc        1 K13      0.131700
     72 H32         7.8260   -5.1740    3.3440 hc        1 K13      0.087200
     73 H32A        8.1610   -3.3960    3.5290 hc        1 K13      0.087200
     74 H35        10.9970   -5.1920    8.2900 ha        1 K13      0.175000
     75 H36         9.5480   -3.1570    8.2310 ha        1 K13      0.169000
     76 H37         8.0620   -2.7390    6.2830 ha        1 K13      0.134500
     77 H33         9.4320   -6.4260    4.4530 ha        1 K13      0.134500
     78 H131        5.1940    3.4390   -2.2320 hn        1 K13      0.489800
     79 H111        5.5400   -2.2960    0.2950 hn        1 K13      0.450800
     80 H202        5.7550   -5.9500    5.0330 hn        1 K13      0.499300
     81 H34        10.9330   -6.8230    6.3950 ha        1 K13      0.169000
@<TRIPOS>BOND
     1    1    2 1   
     2    1   40 1   
     3    1   41 1   
     4    1   78 1   
     5    2    3 ar  
     6    2    7 ar  
     7    3    4 ar  
     8    3   42 1   
     9    4    5 ar  
    10    4   43 1   
    11    5    6 ar  
    12    5    8 1   
    13    6    7 ar  
    14    6   44 1   
    15    7   45 1   
    16    8    9 2   
    17    8   10 2   
    18    8   11 1   
    19   11   12 1   
    20   11   16 1   
    21   11   79 1   
    22   12   13 1   
    23   12   46 1   
    24   12   47 1   
    25   13   14 1   
    26   13   15 1   
    27   13   48 1   
    28   14   49 1   
    29   14   50 1   
    30   14   51 1   
    31   15   18 1   
    32   15   52 1   
    33   15   53 1   
    34   16   17 1   
    35   16   54 1   
    36   16   55 1   
    37   17   19 1   
    38   17   20 1   
    39   17   56 1   
    40   18   57 1   
    41   18   58 1   
    42   18   59 1   
    43   19   60 1   
    44   20   21 1   
    45   20   33 1   
    46   20   61 1   
    47   21   22 1   
    48   21   62 1   
    49   21   80 1   
    50   22   23 2   
    51   22   24 1   
    52   24   25 1   
    53   25   26 1   
    54   25   32 1   
    55   25   63 1   
    56   26   27 1   
    57   26   64 1   
    58   26   65 1   
    59   27   28 1   
    60   28   29 1   
    61   28   32 1   
    62   28   66 1   
    63   29   30 1   
    64   30   31 1   
    65   30   67 1   
    66   30   68 1   
    67   31   32 1   
    68   31   69 1   
    69   31   70 1   
    70   32   71 1   
    71   33   39 1   
    72   33   72 1   
    73   33   73 1   
    74   34   35 ar  
    75   34   39 ar  
    76   34   77 1   
    77   35   36 ar  
    78   35   81 1   
    79   36   37 ar  
    80   36   74 1   
    81   37   38 ar  
    82   37   75 1   
    83   38   39 ar  
    84   38   76 1   
@<TRIPOS>SUBSTRUCTURE
     1 K13         1 TEMP              0 ****  ****    0 ROOT
