@<TRIPOS>MOLECULE
K13
   78    81     1     0     0
SMALL
bcc


@<TRIPOS>ATOM
      1 N1         -1.2820    5.2740   -1.2910 nh        1 K13     -0.848200
      2 C2         -1.7760    3.9940   -1.4220 ca        1 K13      0.234600
      3 C3         -0.9000    2.8800   -1.5140 ca        1 K13     -0.235000
      4 C4         -1.4110    1.5960   -1.5800 ca        1 K13      0.032500
      5 C5         -2.7910    1.3460   -1.5590 ca        1 K13     -0.464500
      6 C6         -3.6530    2.4500   -1.4700 ca        1 K13      0.032500
      7 C7         -3.1750    3.7460   -1.4080 ca        1 K13     -0.235000
      8 S8         -3.3950   -0.2030   -1.6820 sy        1 K13      1.515200
      9 O9         -4.7890   -0.1340   -1.9090 o         1 K13     -0.659300
     10 O10        -2.6480   -0.9340   -2.6370 o         1 K13     -0.659300
     11 N11        -3.1040   -0.8450   -0.1970 n3        1 K13     -0.798500
     12 C12        -3.9070   -0.4770    0.9410 c3        1 K13      0.220800
     13 C13        -5.2310   -1.2490    1.0960 c3        1 K13     -0.093700
     14 C14        -4.9870   -2.7220    1.3340 c3        1 K13     -0.085100
     15 C15        -6.0110   -0.6310    2.2500 c3        1 K13     -0.074400
     16 C16        -2.0110   -1.7410    0.0390 c3        1 K13      0.194800
     17 C17        -0.8350   -1.1300    0.8350 c3        1 K13      0.075100
     18 C18        -7.4760   -0.9830    2.2020 c3        1 K13     -0.093100
     19 O18        -1.0060   -1.2770    2.2310 oh        1 K13     -0.592800
     20 C19         0.5150   -1.7410    0.3630 c3        1 K13      0.067700
     21 N20         1.6620   -1.0380    0.9080 n         1 K13     -0.499900
     22 C21         1.9700    0.2110    0.4030 c         1 K13      0.733100
     23 O22         1.5830    0.7320   -0.6580 o         1 K13     -0.595000
     24 O23         2.8700    0.8940    1.2040 os        1 K13     -0.431900
     25 C24         3.4110    2.1060    0.6720 c3        1 K13      0.131100
     26 C25         3.7230    3.0120    1.8810 c3        1 K13      0.121400
     27 O26         4.9670    3.6610    1.6180 os        1 K13     -0.419600
     28 C27         5.6740    2.9940    0.5800 c3        1 K13      0.321900
     29 O28         6.7730    2.3660    1.2160 os        1 K13     -0.419600
     30 C29         6.5960    0.9430    1.2280 c3        1 K13      0.124400
     31 C30         5.4750    0.5930    0.2500 c3        1 K13     -0.104400
     32 C31         4.7600    1.9070   -0.0410 c3        1 K13     -0.131700
     33 C32         0.5710   -3.2400    0.7030 c3        1 K13     -0.041100
     34 C33         2.7700   -4.4390    0.7950 ca        1 K13     -0.122000
     35 C34         3.8240   -5.1030    0.1690 ca        1 K13     -0.126500
     36 C35         3.8260   -5.2650   -1.2160 ca        1 K13     -0.127000
     37 C36         2.7690   -4.7610   -1.9750 ca        1 K13     -0.126500
     38 C37         1.7140   -4.0980   -1.3520 ca        1 K13     -0.122000
     39 C38         1.7080   -3.9310    0.0390 ca        1 K13     -0.083300
     40 HN1        -0.3310    5.4270   -1.5260 hn        1 K13      0.418800
     41 HN1A       -1.9060    6.0280   -1.4500 hn        1 K13      0.418800
     42 H3          0.1920    3.0220   -1.5250 ha        1 K13      0.143500
     43 H4         -0.7010    0.7500   -1.6590 ha        1 K13      0.156500
     44 H6         -4.7450    2.2730   -1.4640 ha        1 K13      0.156500
     45 H7         -3.8830    4.5860   -1.3430 ha        1 K13      0.143500
     46 H12        -3.3010   -0.6060    1.8850 h1        1 K13      0.053700
     47 H12A       -4.1540    0.6220    0.8420 h1        1 K13      0.053700
     48 H13        -5.8310   -1.1270    0.1480 hc        1 K13      0.081700
     49 H14        -5.9460   -3.2400    1.5770 hc        1 K13      0.032033
     50 H14A       -4.5560   -3.2020    0.4220 hc        1 K13      0.032033
     51 H14B       -4.2790   -2.8730    2.1850 hc        1 K13      0.032033
     52 H15        -5.5700   -0.9750    3.2230 hc        1 K13      0.038200
     53 H15A       -5.9070    0.4860    2.2150 hc        1 K13      0.038200
     54 H16        -2.3890   -2.6420    0.6080 h1        1 K13      0.067700
     55 H16A       -1.6240   -2.1020   -0.9610 h1        1 K13      0.067700
     56 H17        -0.7930   -0.0090    0.6860 h1        1 K13      0.097700
     57 H18        -7.9330   -0.6410    1.2410 hc        1 K13      0.035367
     58 H18A       -7.6270   -2.0860    2.2880 hc        1 K13      0.035367
     59 H18B       -8.0170   -0.4890    3.0450 hc        1 K13      0.035367
     60 HO18       -1.1920   -2.2080    2.4090 ho        1 K13      0.399000
     61 H19         0.5620   -1.6200   -0.7630 h1        1 K13      0.098700
     62 HN20        1.8600   -1.1910    1.8730 hn        1 K13      0.322500
     63 H24         2.6690    2.5870   -0.0210 h1        1 K13      0.088700
     64 H25         2.9640    3.8230    2.0040 h1        1 K13      0.065200
     65 H25A        3.8170    2.4140    2.8230 h1        1 K13      0.065200
     66 H27         6.0780    3.7780   -0.1080 h2        1 K13      0.100700
     67 H29         7.5820    0.5070    0.9290 h1        1 K13      0.052200
     68 H29A        6.3440    0.6380    2.2760 h1        1 K13      0.052200
     69 H30         5.8970    0.1680   -0.6940 hc        1 K13      0.066700
     70 H30A        4.7860   -0.1690    0.6900 hc        1 K13      0.066700
     71 H31         4.6330    2.0580   -1.1400 hc        1 K13      0.084700
     72 H32         0.6270   -3.3790    1.8160 hc        1 K13      0.056700
     73 H32A       -0.3920   -3.7020    0.3530 hc        1 K13      0.056700
     74 H34         4.6550   -5.5000    0.7710 ha        1 K13      0.134000
     75 H35         4.6570   -5.7890   -1.7090 ha        1 K13      0.133000
     76 H36         2.7670   -4.8860   -3.0680 ha        1 K13      0.134000
     77 H37         0.8810   -3.7020   -1.9540 ha        1 K13      0.132500
     78 H33         2.7750   -4.3140    1.8890 ha        1 K13      0.132500
@<TRIPOS>BOND
     1    1    2 1   
     2    1   40 1   
     3    1   41 1   
     4    2    3 ar  
     5    2    7 ar  
     6    3    4 ar  
     7    3   42 1   
     8    4    5 ar  
     9    4   43 1   
    10    5    6 ar  
    11    5    8 1   
    12    6    7 ar  
    13    6   44 1   
    14    7   45 1   
    15    8    9 2   
    16    8   10 2   
    17    8   11 1   
    18   11   12 1   
    19   11   16 1   
    20   12   13 1   
    21   12   46 1   
    22   12   47 1   
    23   13   14 1   
    24   13   15 1   
    25   13   48 1   
    26   14   49 1   
    27   14   50 1   
    28   14   51 1   
    29   15   18 1   
    30   15   52 1   
    31   15   53 1   
    32   16   17 1   
    33   16   54 1   
    34   16   55 1   
    35   17   19 1   
    36   17   20 1   
    37   17   56 1   
    38   18   57 1   
    39   18   58 1   
    40   18   59 1   
    41   19   60 1   
    42   20   21 1   
    43   20   33 1   
    44   20   61 1   
    45   21   22 1   
    46   21   62 1   
    47   22   23 2   
    48   22   24 1   
    49   24   25 1   
    50   25   26 1   
    51   25   32 1   
    52   25   63 1   
    53   26   27 1   
    54   26   64 1   
    55   26   65 1   
    56   27   28 1   
    57   28   29 1   
    58   28   32 1   
    59   28   66 1   
    60   29   30 1   
    61   30   31 1   
    62   30   67 1   
    63   30   68 1   
    64   31   32 1   
    65   31   69 1   
    66   31   70 1   
    67   32   71 1   
    68   33   39 1   
    69   33   72 1   
    70   33   73 1   
    71   34   35 ar  
    72   34   39 ar  
    73   34   78 1   
    74   35   36 ar  
    75   35   74 1   
    76   36   37 ar  
    77   36   75 1   
    78   37   38 ar  
    79   37   76 1   
    80   38   39 ar  
    81   38   77 1   
@<TRIPOS>SUBSTRUCTURE
     1 K13         1 TEMP              0 ****  ****    0 ROOT
