@<TRIPOS>MOLECULE
K13
   80    82     1     0     0
SMALL
bcc


@<TRIPOS>ATOM
      1 N1          0.7620    1.6550   -0.7420 nh        1 K13     -0.768200
      2 C2          1.7410    1.1390    0.0130 ca        1 K13      0.333600
      3 C3          1.5140    0.0030    0.8720 ca        1 K13     -0.233500
      4 C4          2.5120   -0.4970    1.6520 ca        1 K13      0.067500
      5 C5          3.8350    0.0610    1.6710 ca        1 K13     -0.729500
      6 C6          4.0520    1.1750    0.7870 ca        1 K13      0.067500
      7 C7          3.0740    1.6970    0.0000 ca        1 K13     -0.233500
      8 S8          4.9280   -0.4400    2.5860 s4        1 K13      1.700300
      9 O9          6.1330    0.1980    2.5940 o         1 K13     -0.470900
     10 O10         4.6620   -1.3730    3.5490 o         1 K13     -0.470900
     11 N11         6.0140   -2.2320    1.1980 n3        1 K13     -0.899200
     12 C12         5.1260   -2.8330    0.2070 c3        1 K13      0.116800
     13 C13         5.7130   -3.0370   -1.1980 c3        1 K13     -0.088700
     14 C14         6.9100   -3.9610   -1.1700 c3        1 K13     -0.100100
     15 C15         4.6170   -3.5880   -2.1040 c3        1 K13     -0.074400
     16 C16         6.7510   -3.1660    2.0450 c3        1 K13      0.114800
     17 C17         5.8760   -4.1310    2.8630 c3        1 K13      0.111100
     18 C18         4.9190   -3.3630   -3.5630 c3        1 K13     -0.099100
     19 O18         5.4880   -5.2840    2.1460 oh        1 K13     -0.601800
     20 C19         6.6280   -4.5500    4.1570 c3        1 K13      0.103500
     21 N20         5.7710   -5.5090    4.9560 n4        1 K13     -0.636800
     22 C21         4.6500   -4.8110    5.6470 c         1 K13      0.617100
     23 O22         4.7850   -4.2290    6.7140 o         1 K13     -0.411000
     24 O23         3.5080   -4.9370    4.9420 os        1 K13     -0.401900
     25 C24         2.3180   -4.2820    5.4890 c3        1 K13      0.138100
     26 C25         2.4620   -2.7560    5.4010 c3        1 K13      0.096400
     27 O26         1.6910   -2.2910    4.2900 os        1 K13     -0.432600
     28 C27         0.8700   -3.3330    3.7770 c3        1 K13      0.320900
     29 O28         1.3300   -3.4940    2.4420 os        1 K13     -0.446600
     30 C29         1.7910   -4.8400    2.2310 c3        1 K13      0.124400
     31 C30         1.4340   -5.6660    3.4660 c3        1 K13     -0.098400
     32 C31         1.1500   -4.6430    4.5580 c3        1 K13     -0.112700
     33 C32         7.9880   -5.1940    3.8520 c3        1 K13     -0.052100
     34 C33         8.5420   -7.1140    5.3580 ca        1 K13     -0.132500
     35 C34         9.1820   -7.6400    6.4790 ca        1 K13     -0.108500
     36 C35         9.9180   -6.8040    7.3210 ca        1 K13     -0.088000
     37 C36        10.0170   -5.4410    7.0370 ca        1 K13     -0.108500
     38 C37         9.3790   -4.9120    5.9150 ca        1 K13     -0.132500
     39 C38         8.6350   -5.7450    5.0720 ca        1 K13     -0.175300
     40 HN1        -0.1570    1.2710   -0.7220 hn        1 K13      0.471800
     41 HN1A        0.9270    2.4460   -1.3270 hn        1 K13      0.471800
     42 H3          0.5130   -0.4630    0.9000 ha        1 K13      0.178000
     43 H4          2.2960   -1.3690    2.3120 ha        1 K13      0.184500
     44 H6          5.0640    1.6280    0.7660 ha        1 K13      0.184500
     45 H7          3.2920    2.5600   -0.6530 ha        1 K13      0.178000
     46 H12         4.7350   -3.8210    0.5840 h1        1 K13      0.070700
     47 H12A        4.2450   -2.1300    0.1200 h1        1 K13      0.070700
     48 H13         6.0400   -2.0380   -1.6040 hc        1 K13      0.062700
     49 H14         7.1970   -4.2500   -2.2120 hc        1 K13      0.043033
     50 H14A        6.6780   -4.8950   -0.6020 hc        1 K13      0.043033
     51 H14B        7.7920   -3.4610   -0.7000 hc        1 K13      0.043033
     52 H15         4.4910   -4.6850   -1.9080 hc        1 K13      0.044200
     53 H15A        3.6420   -3.0910   -1.8530 hc        1 K13      0.044200
     54 H16         7.4750   -3.7860    1.4360 h1        1 K13      0.076700
     55 H16A        7.3550   -2.5340    2.7610 h1        1 K13      0.076700
     56 H17         4.8930   -3.6450    3.1580 h1        1 K13      0.122700
     57 H18         4.0880   -3.7690   -4.1900 hc        1 K13      0.048367
     58 H18A        5.0270   -2.2740   -3.7850 hc        1 K13      0.048367
     59 H18B        5.8640   -3.8780   -3.8640 hc        1 K13      0.048367
     60 HO18        6.2160   -5.5620    1.5700 ho        1 K13      0.432000
     61 H19         6.7830   -3.6360    4.8070 hx        1 K13      0.125700
     62 HN20        5.3900   -6.2160    4.3080 hn        1 K13      0.490300
     63 H24         2.1840   -4.6480    6.5400 h1        1 K13      0.112700
     64 H25         2.0560   -2.2660    6.3240 h1        1 K13      0.088700
     65 H25A        3.5210   -2.4350    5.2210 h1        1 K13      0.088700
     66 H27        -0.1900   -2.9730    3.7560 h2        1 K13      0.120700
     67 H29         1.2810   -5.2050    1.3040 h1        1 K13      0.060700
     68 H29A        2.9010   -4.7920    2.0720 h1        1 K13      0.060700
     69 H30         2.2560   -6.3700    3.7360 hc        1 K13      0.078700
     70 H30A        0.5140   -6.2770    3.2740 hc        1 K13      0.078700
     71 H31         0.2740   -4.9460    5.1850 hc        1 K13      0.117700
     72 H32         7.8620   -5.9980    3.0780 hc        1 K13      0.085200
     73 H32A        8.6400   -4.3920    3.4060 hc        1 K13      0.085200
     74 H35        10.4320   -7.2230    8.2020 ha        1 K13      0.167000
     75 H36        10.6090   -4.7820    7.6940 ha        1 K13      0.162500
     76 H37         9.4780   -3.8400    5.6870 ha        1 K13      0.134500
     77 H33         8.0050   -7.7880    4.6730 ha        1 K13      0.134500
     78 H111        6.7040   -1.6660    0.7190 hn        1 K13      0.401800
     79 H202        6.3690   -5.9690    5.6680 hn        1 K13      0.490300
     80 H34         9.1200   -8.7200    6.6920 ha        1 K13      0.162500
@<TRIPOS>BOND
     1    1    2 1   
     2    1   40 1   
     3    1   41 1   
     4    2    3 ar  
     5    2    7 ar  
     6    3    4 ar  
     7    3   42 1   
     8    4    5 ar  
     9    4   43 1   
    10    5    6 ar  
    11    5    8 1   
    12    6    7 ar  
    13    6   44 1   
    14    7   45 1   
    15    8    9 1   
    16    8   10 1   
    17   11   12 1   
    18   11   16 1   
    19   11   78 1   
    20   12   13 1   
    21   12   46 1   
    22   12   47 1   
    23   13   14 1   
    24   13   15 1   
    25   13   48 1   
    26   14   49 1   
    27   14   50 1   
    28   14   51 1   
    29   15   18 1   
    30   15   52 1   
    31   15   53 1   
    32   16   17 1   
    33   16   54 1   
    34   16   55 1   
    35   17   19 1   
    36   17   20 1   
    37   17   56 1   
    38   18   57 1   
    39   18   58 1   
    40   18   59 1   
    41   19   60 1   
    42   20   21 1   
    43   20   33 1   
    44   20   61 1   
    45   21   22 1   
    46   21   62 1   
    47   21   79 1   
    48   22   23 2   
    49   22   24 1   
    50   24   25 1   
    51   25   26 1   
    52   25   32 1   
    53   25   63 1   
    54   26   27 1   
    55   26   64 1   
    56   26   65 1   
    57   27   28 1   
    58   28   29 1   
    59   28   32 1   
    60   28   66 1   
    61   29   30 1   
    62   30   31 1   
    63   30   67 1   
    64   30   68 1   
    65   31   32 1   
    66   31   69 1   
    67   31   70 1   
    68   32   71 1   
    69   33   39 1   
    70   33   72 1   
    71   33   73 1   
    72   34   35 ar  
    73   34   39 ar  
    74   34   77 1   
    75   35   36 ar  
    76   35   80 1   
    77   36   37 ar  
    78   36   74 1   
    79   37   38 ar  
    80   37   75 1   
    81   38   39 ar  
    82   38   76 1   
@<TRIPOS>SUBSTRUCTURE
     1 K13         1 TEMP              0 ****  ****    0 ROOT
