@<TRIPOS>MOLECULE
K13
   78    75     1     0     0
SMALL
bcc


@<TRIPOS>ATOM
      1 N1         -3.7750    4.0540   -5.8720 n3        1 K13     -0.356000
      2 C2         -2.7310    3.7970   -4.9610 c2        1 K13      0.153000
      3 C3         -2.9200    4.0320   -3.6000 c2        1 K13     -0.233000
      4 C4         -1.8960    3.7690   -2.7000 c1        1 K13      0.036000
      5 C5         -0.6670    3.2660   -3.1580 c1        1 K13     -0.909000
      6 C6         -0.4780    3.0310   -4.5140 c1        1 K13      0.027000
      7 C7         -1.5110    3.2960   -5.4200 c1        1 K13     -0.240000
      8 S8          0.7250    3.1560   -2.0320 s4        1 K13      2.070800
      9 O9          1.8040    3.9900   -2.4580 o         1 K13     -0.545400
     10 O10         0.4140    3.7320   -0.7640 o         1 K13     -0.545400
     11 N11         1.2200    1.5390   -1.8710 n2        1 K13     -0.825000
     12 C12         1.5110    0.7560   -3.0540 c3        1 K13     -0.006000
     13 C13         2.7780    1.2850   -3.7160 c3        1 K13     -0.136000
     14 C14         3.9310    0.3360   -3.4280 c3        1 K13     -0.205000
     15 C15         2.5600    1.3860   -5.1990 c3        1 K13     -0.152000
     16 C16         1.4530    0.9700   -0.5340 c3        1 K13     -0.051000
     17 C17         0.2910   -0.0410   -0.1780 c3        1 K13     -0.031000
     18 C18         3.5350    2.3980   -5.7910 c3        1 K13     -0.211000
     19 O18         0.2860   -1.0710   -1.0850 oh        1 K13     -0.333000
     20 C19         0.5100   -0.5900    1.2120 c3        1 K13      0.036000
     21 N20        -0.6420   -1.3470    1.6170 n         1 K13     -0.312000
     22 C21        -1.0530   -1.3610    3.0190 c2        1 K13      0.388000
     23 O22        -0.6890   -0.4720    3.7690 o         1 K13     -0.409000
     24 O23        -1.9940   -2.3690    3.4900 os        1 K13     -0.272000
     25 C24        -2.8600   -1.9140    4.5750 c3        1 K13      0.019000
     26 C25        -3.8160   -1.2000    4.1060 c3        1 K13     -0.029000
     27 O26        -5.0180   -1.5110    5.0050 os        1 K13     -0.276000
     28 C27        -4.5980   -2.7610    5.8390 c3        1 K13      0.139000
     29 O28        -5.6380   -3.8980    5.7220 os        1 K13     -0.276000
     30 C29        -5.0380   -4.8900    4.7460 c3        1 K13     -0.025000
     31 C30        -4.0440   -4.2730    4.2150 c3        1 K13     -0.183000
     32 C31        -3.5700   -3.1910    5.3000 c3        1 K13     -0.171000
     33 C32         1.7380   -1.4940    1.2120 c3        1 K13     -0.127000
     34 C33         2.9220   -2.5370    3.0090 c1        1 K13     -0.126000
     35 C34         3.9680   -2.6250    3.9320 c1        1 K13     -0.126250
     36 C35         4.6240   -1.4680    4.3570 c1        1 K13     -0.126250
     37 C36         4.2350   -0.2180    3.8580 c1        1 K13     -0.126250
     38 C37         3.1850   -0.1280    2.9310 c1        1 K13     -0.126250
     39 C38         2.5300   -1.2840    2.5080 c1        1 K13     -0.074000
     40 HN1        -3.9270    3.4840   -6.5540 hn        1 K13      0.214500
     41 HN1A       -4.2720    4.8050   -5.7900 hn        1 K13      0.214500
     42 H3         -3.7970    4.3920   -3.2700 ha        1 K13      0.146000
     43 H4         -2.0320    3.9360   -1.7380 ha        1 K13      0.168000
     44 H6          0.4020    2.6700   -4.8440 ha        1 K13      0.152000
     45 H7         -1.3780    3.1290   -6.3850 ha        1 K13      0.138000
     46 H12         1.6420   -0.1850   -2.8000 h1        1 K13      0.080500
     47 H12A        0.7710    0.8240   -3.6750 h1        1 K13      0.080500
     48 H13         2.9930    2.1860   -3.3540 hc        1 K13      0.125000
     49 H14         3.9370   -0.3970   -4.1030 hc        1 K13      0.074000
     50 H14A        4.7900    0.8360   -3.4730 hc        1 K13      0.074000
     51 H14B        3.8230   -0.0470   -2.5340 hc        1 K13      0.074000
     52 H15         1.6290    1.6850   -5.3740 hc        1 K13      0.075500
     53 H15A        2.7080    0.5010   -5.6180 hc        1 K13      0.075500
     54 H16         1.4730    1.6970    0.1330 h1        1 K13      0.115000
     55 H16A        2.3070    0.4980   -0.5260 h1        1 K13      0.115000
     56 H17        -0.5690    0.4260   -0.2120 h1        1 K13      0.098000
     57 H18         3.6540    3.1390   -5.1690 hc        1 K13      0.075333
     58 H18A        4.4010    1.9640   -5.9520 hc        1 K13      0.075333
     59 H18B        3.1790    2.7350   -6.6340 hc        1 K13      0.075333
     60 HO18       -0.5440   -1.2310   -1.3450 ho        1 K13      0.209000
     61 H19         0.6520    0.1610    1.8440 h1        1 K13      0.130000
     62 HN20       -1.1200   -1.8450    0.9860 hn        1 K13      0.241000
     63 H24        -2.3530   -1.4090    5.2140 h1        1 K13      0.128000
     64 H25        -3.5900   -0.2580    4.1600 h1        1 K13      0.103500
     65 H25A       -4.0110   -1.4570    3.1670 h1        1 K13      0.103500
     66 H27        -4.4330   -2.5240    6.7790 h2        1 K13      0.140000
     67 H29        -5.6790   -5.1270    4.0770 h1        1 K13      0.091500
     68 H29A       -4.7350   -5.6710    5.2100 h1        1 K13      0.091500
     69 H30        -3.3160   -4.9030    4.0260 hc        1 K13      0.106500
     70 H30A       -4.3260   -3.8240    3.3900 hc        1 K13      0.106500
     71 H31        -2.9760   -3.5940    5.9570 hc        1 K13      0.124000
     72 H32         2.3050   -1.2740    0.4450 hc        1 K13      0.107000
     73 H32A        1.4560   -2.4260    1.1510 hc        1 K13      0.107000
     74 H33         2.4560   -3.3600    2.7070 ha        1 K13      0.130000
     75 H34         4.2410   -3.5020    4.2830 ha        1 K13      0.133250
     76 H35         5.3450   -1.5300    4.9940 ha        1 K13      0.133250
     77 H36         4.6990    0.5990    4.1570 ha        1 K13      0.133250
     78 H37         2.9110    0.7450    2.5840 ha        1 K13      0.133250
@<TRIPOS>BOND
     1    1    2 1   
     2    1   40 1   
     3    1   41 1   
     4    2    3 1   
     5    2    7 1   
     6    3    4 1   
     7    3   42 1   
     8    4   43 1   
     9    5    6 1   
    10    5    8 1   
    11    6   44 1   
    12    7   45 1   
    13    8    9 1   
    14    8   10 1   
    15   11   12 1   
    16   11   16 1   
    17   12   13 1   
    18   12   46 1   
    19   12   47 1   
    20   13   14 1   
    21   13   15 1   
    22   13   48 1   
    23   14   49 1   
    24   14   50 1   
    25   14   51 1   
    26   15   18 1   
    27   15   52 1   
    28   15   53 1   
    29   16   17 1   
    30   16   54 1   
    31   16   55 1   
    32   17   19 1   
    33   17   20 1   
    34   17   56 1   
    35   18   57 1   
    36   18   58 1   
    37   18   59 1   
    38   19   60 1   
    39   20   21 1   
    40   20   33 1   
    41   20   61 1   
    42   21   22 1   
    43   21   62 1   
    44   22   23 1   
    45   22   24 1   
    46   24   25 1   
    47   25   26 1   
    48   25   32 1   
    49   25   63 1   
    50   26   27 1   
    51   26   64 1   
    52   26   65 1   
    53   27   28 1   
    54   28   29 1   
    55   28   32 1   
    56   28   66 1   
    57   29   30 1   
    58   30   31 1   
    59   30   67 1   
    60   30   68 1   
    61   31   32 1   
    62   31   69 1   
    63   31   70 1   
    64   32   71 1   
    65   33   39 1   
    66   33   72 1   
    67   33   73 1   
    68   34   39 1   
    69   34   74 1   
    70   35   36 1   
    71   35   75 1   
    72   36   76 1   
    73   37   38 1   
    74   37   77 1   
    75   38   78 1   
@<TRIPOS>SUBSTRUCTURE
     1 K13         1 TEMP              0 ****  ****    0 ROOT
