@<TRIPOS>MOLECULE
K14
   82    84     1     0     0
SMALL
bcc


@<TRIPOS>ATOM
      1 C1         -0.6500   -1.1470    1.2840 c3        1 K14      0.096700
      2 O1          0.3270   -0.2290    0.7610 os        1 K14     -0.263900
      3 C2          1.5080   -0.1230    1.3880 ca        1 K14      0.306100
      4 C3          2.4370    0.7850    0.7990 ca        1 K14     -0.216000
      5 C4          3.6750    0.9510    1.3580 ca        1 K14      0.063500
      6 C5          4.0810    0.2420    2.5370 ca        1 K14     -0.699500
      7 C6          3.1160   -0.6500    3.1070 ca        1 K14      0.063500
      8 C7          1.8740   -0.8370    2.5610 ca        1 K14     -0.216000
      9 S8          5.4810    0.3780    3.1270 s4        1 K14      1.699300
     10 O9          5.8170   -0.3980    4.1910 o         1 K14     -0.454900
     11 O10         6.4290    1.1070    2.4740 o         1 K14     -0.454900
     12 N11         5.2260    2.2800    4.7870 n3        1 K14     -0.905200
     13 C12         3.9250    2.9520    4.7480 c3        1 K14      0.118800
     14 C13         3.0530    2.7780    6.0030 c3        1 K14     -0.084700
     15 C14         3.7110    3.4140    7.2080 c3        1 K14     -0.105100
     16 C15         1.6870    3.3970    5.7330 c3        1 K14     -0.075400
     17 C16         6.3630    3.1820    4.9670 c3        1 K14      0.112800
     18 C17         6.8030    3.9380    3.6980 c3        1 K14      0.112100
     19 C18         0.6400    2.9070    6.7020 c3        1 K14     -0.099100
     20 O18         6.0050    5.0900    3.4750 oh        1 K14     -0.612800
     21 C19         8.2550    4.4540    3.8940 c3        1 K14      0.142500
     22 N20         8.6870    5.2730    2.6950 n4        1 K14     -0.635800
     23 C21         8.8660    4.4290    1.4820 c         1 K14      0.613100
     24 O22         9.8290    3.6960    1.3130 o         1 K14     -0.413000
     25 O23         7.8400    4.6040    0.6220 os        1 K14     -0.405900
     26 C24         7.8520    3.7760   -0.5870 c3        1 K14      0.137100
     27 C25         7.5530    2.3150   -0.2250 c3        1 K14      0.097400
     28 O26         6.1640    2.0700   -0.4640 os        1 K14     -0.435600
     29 C27         5.6020    3.1190   -1.2430 c3        1 K14      0.320900
     30 O28         4.5710    3.6320   -0.4100 os        1 K14     -0.447600
     31 C29         4.7550    5.0410   -0.1950 c3        1 K14      0.132400
     32 C30         5.9510    5.5070   -1.0240 c3        1 K14     -0.100400
     33 C31         6.6640    4.2310   -1.4490 c3        1 K14     -0.112700
     34 C32         8.3930    5.2940    5.1720 c3        1 K14     -0.052100
     35 C33         9.6670    7.4280    5.4380 ca        1 K14     -0.130500
     36 C34        10.8680    8.1260    5.5620 ca        1 K14     -0.112000
     37 C35        12.0840    7.4470    5.4860 ca        1 K14     -0.090000
     38 C36        12.0990    6.0640    5.2860 ca        1 K14     -0.112000
     39 C37        10.9010    5.3640    5.1650 ca        1 K14     -0.130500
     40 C38         9.6770    6.0430    5.2360 ca        1 K14     -0.184300
     41 H1         -0.2470   -2.1880    1.2630 h1        1 K14      0.083700
     42 H1A        -1.5010   -1.0290    0.5620 h1        1 K14      0.083700
     43 H1B        -0.9500   -0.8400    2.3140 h1        1 K14      0.083700
     44 H3          2.1400    1.3360   -0.1110 ha        1 K14      0.192500
     45 H4          4.3970    1.6470    0.8740 ha        1 K14      0.187500
     46 H6          3.3990   -1.2140    4.0190 ha        1 K14      0.187500
     47 H7          1.1630   -1.5420    3.0230 ha        1 K14      0.192500
     48 H12         3.3750    2.5220    3.8610 h1        1 K14      0.060200
     49 H12A        4.0520    4.0580    4.5740 h1        1 K14      0.060200
     50 H13         2.9130    1.6790    6.2040 hc        1 K14      0.056700
     51 H14         4.6670    2.8960    7.4670 hc        1 K14      0.048700
     52 H14A        3.9280    4.4930    7.0200 hc        1 K14      0.048700
     53 H14B        3.0330    3.3450    8.0950 hc        1 K14      0.048700
     54 H15         1.3630    3.1450    4.6880 hc        1 K14      0.044700
     55 H15A        1.7660    4.5140    5.7970 hc        1 K14      0.044700
     56 H16         7.2370    2.5580    5.3160 h1        1 K14      0.084200
     57 H16A        6.1380    3.9530    5.7640 h1        1 K14      0.084200
     58 H17         6.7770    3.2660    2.7910 h1        1 K14      0.083700
     59 H18        -0.3490    3.3630    6.4540 hc        1 K14      0.048367
     60 H18A        0.5380    1.7960    6.6510 hc        1 K14      0.048367
     61 H18B        0.9000    3.1880    7.7510 hc        1 K14      0.048367
     62 HO18        5.1770    4.8010    3.0680 ho        1 K14      0.439000
     63 H19         8.9530    3.5640    3.9410 hx        1 K14      0.120700
     64 HN20        9.5910    5.7250    2.9260 hn        1 K14      0.494300
     65 H24         8.8480    3.9120   -1.0840 h1        1 K14      0.116700
     66 H25         8.1430    1.6190   -0.8770 h1        1 K14      0.088700
     67 H25A        7.7400    2.0880    0.8570 h1        1 K14      0.088700
     68 H27         5.1450    2.6780   -2.1650 h2        1 K14      0.123700
     69 H29         4.9340    5.1850    0.9020 h1        1 K14      0.054200
     70 H29A        3.7980    5.5380   -0.4980 h1        1 K14      0.054200
     71 H30         5.6020    6.0660   -1.9310 hc        1 K14      0.081200
     72 H30A        6.6100    6.1930   -0.4410 hc        1 K14      0.081200
     73 H31         7.0020    4.2870   -2.5160 hc        1 K14      0.119700
     74 H32         8.3380    4.5810    6.0420 hc        1 K14      0.095700
     75 H32A        7.5180    5.9950    5.2500 hc        1 K14      0.095700
     76 H35        13.0330    7.9980    5.5940 ha        1 K14      0.166000
     77 H36        13.0590    5.5250    5.2410 ha        1 K14      0.162500
     78 H37        10.9210    4.2700    5.0470 ha        1 K14      0.137500
     79 H33         8.7110    7.9690    5.5260 ha        1 K14      0.137500
     80 H111        5.2340    1.6510    5.5850 hn        1 K14      0.399800
     81 H202        7.9700    5.9940    2.5200 hn        1 K14      0.494300
     82 H34        10.8540    9.2150    5.7350 ha        1 K14      0.162500
@<TRIPOS>BOND
     1    1    2 1   
     2    1   41 1   
     3    1   42 1   
     4    1   43 1   
     5    2    3 1   
     6    3    4 ar  
     7    3    8 ar  
     8    4    5 ar  
     9    4   44 1   
    10    5    6 ar  
    11    5   45 1   
    12    6    7 ar  
    13    6    9 1   
    14    7    8 ar  
    15    7   46 1   
    16    8   47 1   
    17    9   10 1   
    18    9   11 1   
    19   12   13 1   
    20   12   17 1   
    21   12   80 1   
    22   13   14 1   
    23   13   48 1   
    24   13   49 1   
    25   14   15 1   
    26   14   16 1   
    27   14   50 1   
    28   15   51 1   
    29   15   52 1   
    30   15   53 1   
    31   16   19 1   
    32   16   54 1   
    33   16   55 1   
    34   17   18 1   
    35   17   56 1   
    36   17   57 1   
    37   18   20 1   
    38   18   21 1   
    39   18   58 1   
    40   19   59 1   
    41   19   60 1   
    42   19   61 1   
    43   20   62 1   
    44   21   22 1   
    45   21   34 1   
    46   21   63 1   
    47   22   23 1   
    48   22   64 1   
    49   22   81 1   
    50   23   24 2   
    51   23   25 1   
    52   25   26 1   
    53   26   27 1   
    54   26   33 1   
    55   26   65 1   
    56   27   28 1   
    57   27   66 1   
    58   27   67 1   
    59   28   29 1   
    60   29   30 1   
    61   29   33 1   
    62   29   68 1   
    63   30   31 1   
    64   31   32 1   
    65   31   69 1   
    66   31   70 1   
    67   32   33 1   
    68   32   71 1   
    69   32   72 1   
    70   33   73 1   
    71   34   40 1   
    72   34   74 1   
    73   34   75 1   
    74   35   36 ar  
    75   35   40 ar  
    76   35   79 1   
    77   36   37 ar  
    78   36   82 1   
    79   37   38 ar  
    80   37   76 1   
    81   38   39 ar  
    82   38   77 1   
    83   39   40 ar  
    84   39   78 1   
@<TRIPOS>SUBSTRUCTURE
     1 K14         1 TEMP              0 ****  ****    0 ROOT
