@<TRIPOS>MOLECULE
K14
   80    77     1     0     0
SMALL
bcc


@<TRIPOS>ATOM
      1 C1         -5.3220    0.0640    8.2980 c3        1 K14     -0.080000
      2 O1         -4.2320   -0.7370    7.8620 os        1 K14     -0.201000
      3 C2         -3.7970   -0.4490    6.5410 c2        1 K14      0.148000
      4 C3         -2.5690    0.1670    6.3340 c2        1 K14     -0.186000
      5 C4         -2.1010    0.3730    5.0360 c1        1 K14      0.010000
      6 C5         -2.8650   -0.0390    3.9460 c1        1 K14     -0.875000
      7 C6         -4.0940   -0.6560    4.1540 c1        1 K14      0.029000
      8 C7         -4.5610   -0.8610    5.4510 c1        1 K14     -0.237000
      9 S8         -2.3340    0.3840    2.2560 s4        1 K14      2.068800
     10 O9         -3.4480    0.8000    1.4490 o         1 K14     -0.547900
     11 O10        -1.5210    1.5750    2.2460 o         1 K14     -0.547900
     12 N11        -1.5140   -0.9310    1.5470 n2        1 K14     -0.832000
     13 C12        -2.1500   -2.2860    1.5310 c3        1 K14     -0.016000
     14 C13        -3.2900   -2.3020    0.5160 c3        1 K14     -0.126000
     15 C14        -2.8960   -3.1420   -0.6670 c3        1 K14     -0.217000
     16 C15        -4.5410   -2.8890    1.1610 c3        1 K14     -0.169000
     17 C16        -0.1150   -0.7640    1.0720 c3        1 K14     -0.040000
     18 C17        -0.0960    0.1490   -0.1640 c3        1 K14     -0.024000
     19 C18        -5.7840   -2.2700    0.5170 c3        1 K14     -0.208000
     20 O18        -0.6070    1.3940    0.1740 oh        1 K14     -0.347000
     21 C19         1.3340    0.3060   -0.6590 c3        1 K14      0.033000
     22 N20         1.3230    0.7520   -2.0160 n         1 K14     -0.309000
     23 C21         2.4010    0.3730   -2.9130 c2        1 K14      0.383000
     24 O22         3.0410   -0.6380   -2.7000 o         1 K14     -0.402000
     25 O23         2.7610    1.2350   -4.0090 os        1 K14     -0.271000
     26 C24         3.2830    0.5200   -5.1870 c3        1 K14      0.019000
     27 C25         2.3200    0.1460   -5.9350 c3        1 K14     -0.029000
     28 O26         2.8660    0.2550   -7.3630 os        1 K14     -0.276000
     29 C27         4.1950    1.0630   -7.2370 c3        1 K14      0.139000
     30 O28         4.2120    2.2970   -8.2340 os        1 K14     -0.277000
     31 C29         3.4610    3.1950   -7.7000 c3        1 K14     -0.025000
     32 C30         3.5220    2.9230   -6.2270 c3        1 K14     -0.183000
     33 C31         4.1920    1.5280   -6.0970 c3        1 K14     -0.171000
     34 C32         2.0580    1.3230    0.2060 c3        1 K14     -0.124000
     35 C33         4.2480    1.9510    0.7020 c1        1 K14     -0.121000
     36 C34         5.5130    1.8710    1.2780 c1        1 K14     -0.127500
     37 C35         6.0120    0.6420    1.6910 c1        1 K14     -0.127500
     38 C36         5.2490   -0.5070    1.5290 c1        1 K14     -0.127500
     39 C37         3.9830   -0.4280    0.9520 c1        1 K14     -0.127500
     40 C38         3.4840    0.8010    0.5390 c1        1 K14     -0.070000
     41 H1         -5.3890    0.0210    9.2790 h1        1 K14      0.091333
     42 H1A        -5.1760    0.9910    8.0220 h1        1 K14      0.091333
     43 H1B        -6.1540   -0.2700    7.8980 h1        1 K14      0.091333
     44 H3         -2.0320    0.4560    7.1000 ha        1 K14      0.161000
     45 H4         -1.2360    0.8070    4.8910 ha        1 K14      0.160000
     46 H6         -4.6300   -0.9450    3.3900 ha        1 K14      0.152000
     47 H7         -5.4270   -1.2950    5.5970 ha        1 K14      0.148000
     48 H12        -1.4810   -2.9590    1.2810 h1        1 K14      0.095500
     49 H12A       -2.5020   -2.4910    2.4190 h1        1 K14      0.095500
     50 H13        -3.4740   -1.3930    0.2210 hc        1 K14      0.093000
     51 H14        -1.9190   -3.1430   -0.7570 hc        1 K14      0.082000
     52 H14A       -3.2990   -2.7700   -1.4810 hc        1 K14      0.082000
     53 H14B       -3.2130   -4.0630   -0.5360 hc        1 K14      0.082000
     54 H15        -4.5530   -3.8620    1.0260 hc        1 K14      0.093000
     55 H15A       -4.5380   -2.6930    2.1170 hc        1 K14      0.093000
     56 H16         0.2560   -1.6400    0.8360 h1        1 K14      0.098000
     57 H16A        0.4260   -0.3610    1.7850 h1        1 K14      0.098000
     58 H17        -0.6430   -0.2460   -0.8690 h1        1 K14      0.100000
     59 H18        -5.6110   -1.3310    0.3130 hc        1 K14      0.073000
     60 H18A       -6.5440   -2.3360    1.1400 hc        1 K14      0.073000
     61 H18B       -5.9980   -2.7520   -0.3130 hc        1 K14      0.073000
     62 HO18       -1.0680    1.7260   -0.5180 ho        1 K14      0.241000
     63 H19         1.7920   -0.5530   -0.6030 h1        1 K14      0.124000
     64 HN20        0.6650    1.3170   -2.3070 hn        1 K14      0.240000
     65 H24         3.8150   -0.2560   -4.9060 h1        1 K14      0.132000
     66 H25         1.5510    0.7370   -5.8200 h1        1 K14      0.104500
     67 H25A        2.0720   -0.7800   -5.7350 h1        1 K14      0.104500
     68 H27         4.9740    0.4850   -7.3780 h2        1 K14      0.140000
     69 H29         3.8080    4.0900   -7.8950 h1        1 K14      0.091000
     70 H29A        2.5400    3.1070   -8.0250 h1        1 K14      0.091000
     71 H30         4.0650    3.6030   -5.7780 hc        1 K14      0.105500
     72 H30A        2.6210    2.9030   -5.8480 hc        1 K14      0.105500
     73 H31         5.1020    1.6030   -5.7440 hc        1 K14      0.124000
     74 H32         1.5580    1.4600    1.0370 hc        1 K14      0.105000
     75 H32A        2.1270    2.1740   -0.2770 hc        1 K14      0.105000
     76 H33         3.8980    2.8110    0.4140 ha        1 K14      0.132000
     77 H34         6.0470    2.6760    1.3920 ha        1 K14      0.131000
     78 H35         6.9020    0.5850    2.0970 ha        1 K14      0.131000
     79 H36         5.6000   -1.3700    1.8180 ha        1 K14      0.131000
     80 H37         3.4500   -1.2310    0.8380 ha        1 K14      0.131000
@<TRIPOS>BOND
     1    1    2 1   
     2    1   41 1   
     3    1   42 1   
     4    1   43 1   
     5    2    3 1   
     6    3    4 1   
     7    3    8 1   
     8    4    5 1   
     9    4   44 1   
    10    5   45 1   
    11    6    7 1   
    12    6    9 1   
    13    7   46 1   
    14    8   47 1   
    15    9   10 1   
    16    9   11 1   
    17   12   13 1   
    18   12   17 1   
    19   13   14 1   
    20   13   48 1   
    21   13   49 1   
    22   14   15 1   
    23   14   16 1   
    24   14   50 1   
    25   15   51 1   
    26   15   52 1   
    27   15   53 1   
    28   16   19 1   
    29   16   54 1   
    30   16   55 1   
    31   17   18 1   
    32   17   56 1   
    33   17   57 1   
    34   18   20 1   
    35   18   21 1   
    36   18   58 1   
    37   19   59 1   
    38   19   60 1   
    39   19   61 1   
    40   20   62 1   
    41   21   22 1   
    42   21   34 1   
    43   21   63 1   
    44   22   23 1   
    45   22   64 1   
    46   23   24 1   
    47   23   25 1   
    48   25   26 1   
    49   26   27 1   
    50   26   33 1   
    51   26   65 1   
    52   27   28 1   
    53   27   66 1   
    54   27   67 1   
    55   28   29 1   
    56   29   30 1   
    57   29   33 1   
    58   29   68 1   
    59   30   31 1   
    60   31   32 1   
    61   31   69 1   
    62   31   70 1   
    63   32   33 1   
    64   32   71 1   
    65   32   72 1   
    66   33   73 1   
    67   34   40 1   
    68   34   74 1   
    69   34   75 1   
    70   35   40 1   
    71   35   76 1   
    72   36   37 1   
    73   36   77 1   
    74   37   78 1   
    75   38   39 1   
    76   38   79 1   
    77   39   80 1   
@<TRIPOS>SUBSTRUCTURE
     1 K14         1 TEMP              0 ****  ****    0 ROOT
