@<TRIPOS>MOLECULE
K14
   82    84     1     0     0
SMALL
bcc


@<TRIPOS>ATOM
      1 C1         -0.1090   -2.1040    1.4570 c3        1 K14      0.096700
      2 O1          0.6710   -1.0220    0.9170 os        1 K14     -0.264900
      3 C2          1.8280   -0.7030    1.5180 ca        1 K14      0.305100
      4 C3          2.5590    0.3630    0.9170 ca        1 K14     -0.216000
      5 C4          3.7580    0.7520    1.4490 ca        1 K14      0.063500
      6 C5          4.3180    0.1220    2.6090 ca        1 K14     -0.697500
      7 C6          3.5460   -0.9330    3.1960 ca        1 K14      0.063500
      8 C7          2.3470   -1.3420    2.6770 ca        1 K14     -0.216000
      9 S8          5.6820    0.5080    3.1700 s4        1 K14      1.698300
     10 O9          6.1700   -0.1810    4.2370 o         1 K14     -0.462900
     11 O10         6.5030    1.3560    2.4840 o         1 K14     -0.462900
     12 N11         5.0900    2.3510    4.7220 n7        1 K14     -0.902200
     13 C12         3.8610    3.0560    4.3620 c3        1 K14      0.114800
     14 C13         2.8850    3.3480    5.5110 c3        1 K14     -0.087700
     15 C14         3.5190    4.2270    6.5670 c3        1 K14     -0.101100
     16 C15         1.6370    4.0030    4.9290 c3        1 K14     -0.075400
     17 C16         6.2520    3.1940    4.9940 c3        1 K14      0.112800
     18 C17         6.6670    4.1280    3.8440 c3        1 K14      0.111100
     19 C18         0.4500    3.8820    5.8490 c3        1 K14     -0.100100
     20 O18         5.9430    5.3400    3.8170 oh        1 K14     -0.599800
     21 C19         8.1890    4.4300    3.9370 c3        1 K14      0.103500
     22 N20         8.5940    5.3570    2.8120 ny        1 K14     -0.636800
     23 C21         8.6530    4.6480    1.5010 c         1 K14      0.616100
     24 O22         9.6160    3.9860    1.1460 o         1 K14     -0.410000
     25 O23         7.5230    4.8630    0.7970 os        1 K14     -0.401900
     26 C24         7.4180    4.1980   -0.5030 c3        1 K14      0.138100
     27 C25         7.2790    2.6810   -0.3150 c3        1 K14      0.097400
     28 O26         5.9010    2.3300   -0.4650 os        1 K14     -0.433600
     29 C27         5.1570    3.4290   -0.9780 c3        1 K14      0.320900
     30 O28         4.2120    3.7000    0.0480 os        1 K14     -0.447600
     31 C29         4.3450    5.0560    0.5080 c3        1 K14      0.124400
     32 C30         5.3440    5.7730   -0.4000 c3        1 K14     -0.099400
     33 C31         6.0900    4.6590   -1.1250 c3        1 K14     -0.112700
     34 C32         8.5740    5.0480    5.2890 c3        1 K14     -0.051100
     35 C33        10.3130    6.8380    5.1060 ca        1 K14     -0.132000
     36 C34        11.6390    7.2610    5.1750 ca        1 K14     -0.108000
     37 C35        12.6530    6.3440    5.4590 ca        1 K14     -0.087000
     38 C36        12.3380    5.0020    5.6760 ca        1 K14     -0.108000
     39 C37        11.0120    4.5740    5.6090 ca        1 K14     -0.132000
     40 C38         9.9930    5.4890    5.3200 ca        1 K14     -0.176300
     41 H1          0.4770   -3.0540    1.4210 h1        1 K14      0.083367
     42 H1A        -0.9850   -2.1420    0.7560 h1        1 K14      0.083367
     43 H1B        -0.4340   -1.8590    2.4960 h1        1 K14      0.083367
     44 H3          2.1420    0.8550    0.0210 ha        1 K14      0.192000
     45 H4          4.3250    1.5780    0.9610 ha        1 K14      0.188500
     46 H6          3.9490   -1.4390    4.0970 ha        1 K14      0.188500
     47 H7          1.7870   -2.1660    3.1510 ha        1 K14      0.192000
     48 H12         4.1070    4.0250    3.8400 h1        1 K14      0.072700
     49 H12A        3.3340    2.3930    3.6130 h1        1 K14      0.072700
     50 H13         2.5830    2.3730    5.9890 hc        1 K14      0.062700
     51 H14         2.7400    4.5850    7.2860 hc        1 K14      0.043367
     52 H14A        4.2870    3.6630    7.1500 hc        1 K14      0.043367
     53 H14B        4.0000    5.1220    6.1020 hc        1 K14      0.043367
     54 H15         1.3870    3.5220    3.9460 hc        1 K14      0.045700
     55 H15A        1.8490    5.0860    4.7240 hc        1 K14      0.045700
     56 H16         6.0850    3.8300    5.9150 h1        1 K14      0.078700
     57 H16A        7.1100    2.4900    5.2120 h1        1 K14      0.078700
     58 H17         6.4520    3.6570    2.8340 h1        1 K14      0.121700
     59 H18         0.6430    4.3870    6.8270 hc        1 K14      0.049033
     60 H18A        0.2080    2.8100    6.0500 hc        1 K14      0.049033
     61 H18B       -0.4440    4.3630    5.3810 hc        1 K14      0.049033
     62 HO18        5.7880    5.6400    4.7260 ho        1 K14      0.433000
     63 H19         8.7670    3.4680    3.7870 hx        1 K14      0.125700
     64 HN20        9.5330    5.7440    3.0260 hn        1 K14      0.490800
     65 H24         8.3190    4.4840   -1.1040 h1        1 K14      0.113700
     66 H25         7.5910    2.3450    0.7090 h1        1 K14      0.088200
     67 H25A        7.8580    2.1290   -1.1010 h1        1 K14      0.088200
     68 H27         4.6130    3.0930   -1.8970 h2        1 K14      0.123700
     69 H29         3.3210    5.5050    0.4650 h1        1 K14      0.061200
     70 H29A        4.7080    5.0130    1.5690 h1        1 K14      0.061200
     71 H30         6.0230    6.4370    0.1840 hc        1 K14      0.079700
     72 H30A        4.8040    6.4120   -1.1460 hc        1 K14      0.079700
     73 H31         6.2690    4.9180   -2.1990 hc        1 K14      0.118700
     74 H32         7.8910    5.9090    5.5210 hc        1 K14      0.085200
     75 H32A        8.4050    4.2590    6.0740 hc        1 K14      0.085200
     76 H35        13.7010    6.6820    5.5230 ha        1 K14      0.167000
     77 H36        13.1360    4.2790    5.9130 ha        1 K14      0.163000
     78 H37        10.7690    3.5180    5.8020 ha        1 K14      0.134000
     79 H33         9.5160    7.5760    4.9310 ha        1 K14      0.134000
     80 H111        4.9200    1.8110    5.5640 hn        1 K14      0.402800
     81 H202        7.9030    6.1220    2.7590 hn        1 K14      0.490800
     82 H34        11.8860    8.3250    5.0230 ha        1 K14      0.163000
@<TRIPOS>BOND
     1    1    2 1   
     2    1   41 1   
     3    1   42 1   
     4    1   43 1   
     5    2    3 1   
     6    3    4 ar  
     7    3    8 ar  
     8    4    5 ar  
     9    4   44 1   
    10    5    6 ar  
    11    5   45 1   
    12    6    7 ar  
    13    6    9 1   
    14    7    8 ar  
    15    7   46 1   
    16    8   47 1   
    17    9   10 1   
    18    9   11 1   
    19   12   13 1   
    20   12   17 1   
    21   12   80 1   
    22   13   14 1   
    23   13   48 1   
    24   13   49 1   
    25   14   15 1   
    26   14   16 1   
    27   14   50 1   
    28   15   51 1   
    29   15   52 1   
    30   15   53 1   
    31   16   19 1   
    32   16   54 1   
    33   16   55 1   
    34   17   18 1   
    35   17   56 1   
    36   17   57 1   
    37   18   20 1   
    38   18   21 1   
    39   18   58 1   
    40   19   59 1   
    41   19   60 1   
    42   19   61 1   
    43   20   62 1   
    44   21   22 1   
    45   21   34 1   
    46   21   63 1   
    47   22   23 1   
    48   22   64 1   
    49   22   81 1   
    50   23   24 2   
    51   23   25 1   
    52   25   26 1   
    53   26   27 1   
    54   26   33 1   
    55   26   65 1   
    56   27   28 1   
    57   27   66 1   
    58   27   67 1   
    59   28   29 1   
    60   29   30 1   
    61   29   33 1   
    62   29   68 1   
    63   30   31 1   
    64   31   32 1   
    65   31   69 1   
    66   31   70 1   
    67   32   33 1   
    68   32   71 1   
    69   32   72 1   
    70   33   73 1   
    71   34   40 1   
    72   34   74 1   
    73   34   75 1   
    74   35   36 ar  
    75   35   40 ar  
    76   35   79 1   
    77   36   37 ar  
    78   36   82 1   
    79   37   38 ar  
    80   37   76 1   
    81   38   39 ar  
    82   38   77 1   
    83   39   40 ar  
    84   39   78 1   
@<TRIPOS>SUBSTRUCTURE
     1 K14         1 TEMP              0 ****  ****    0 ROOT
