@<TRIPOS>MOLECULE
K14
   80    83     1     0     0
SMALL
bcc


@<TRIPOS>ATOM
      1 C1          2.2720    6.1120    0.9580 c3        1 K14      0.109700
      2 O1          1.3540    5.0280    1.0760 os        1 K14     -0.319900
      3 C2          1.8980    3.7710    1.1870 ca        1 K14      0.187100
      4 C3          0.9620    2.7270    1.3320 ca        1 K14     -0.208500
      5 C4          1.4200    1.4240    1.4470 ca        1 K14      0.018500
      6 C5          2.7910    1.1220    1.4150 ca        1 K14     -0.435500
      7 C6          3.7000    2.1780    1.2710 ca        1 K14      0.018500
      8 C7          3.2730    3.4960    1.1590 ca        1 K14     -0.208500
      9 S8          3.3320   -0.4550    1.5880 sy        1 K14      1.510200
     10 O9          4.7290   -0.4300    1.7990 o         1 K14     -0.655800
     11 O10         2.5640   -1.1140    2.5760 o         1 K14     -0.655800
     12 N11         2.9980   -1.1290    0.1290 n3        1 K14     -0.799500
     13 C12         3.8120   -0.8430   -1.0240 c3        1 K14      0.220800
     14 C13         5.0950   -1.6860   -1.1590 c3        1 K14     -0.093700
     15 C14         4.7740   -3.1520   -1.3430 c3        1 K14     -0.085100
     16 C15         5.8970   -1.1500   -2.3380 c3        1 K14     -0.074400
     17 C16         1.8600   -1.9780   -0.0700 c3        1 K14      0.193800
     18 C17         0.7080   -1.3340   -0.8740 c3        1 K14      0.076100
     19 C18         7.3420   -1.5730   -2.2850 c3        1 K14     -0.093100
     20 O18         0.8750   -1.5040   -2.2680 oh        1 K14     -0.592800
     21 C19        -0.6630   -1.8890   -0.3940 c3        1 K14      0.068700
     22 N20        -1.7840   -1.1390   -0.9300 n         1 K14     -0.500900
     23 C21        -2.0130    0.1370   -0.4470 c         1 K14      0.733100
     24 O22        -1.5640    0.6570    0.5890 o         1 K14     -0.596000
     25 O23        -2.8980    0.8490   -1.2370 os        1 K14     -0.430900
     26 C24        -3.3430    2.1090   -0.7260 c3        1 K14      0.131100
     27 C25        -3.6590    2.9860   -1.9540 c3        1 K14      0.121400
     28 O26        -4.8630    3.7000   -1.6740 os        1 K14     -0.418600
     29 C27        -5.5500    3.1190   -0.5730 c3        1 K14      0.321900
     30 O28        -6.7100    2.5220   -1.1260 os        1 K14     -0.419600
     31 C29        -6.6060    1.0930   -1.0770 c3        1 K14      0.125400
     32 C30        -5.4590    0.7290   -0.1360 c3        1 K14     -0.104400
     33 C31        -4.6640    2.0150    0.0570 c3        1 K14     -0.131700
     34 C32        -0.7830   -3.3850   -0.7300 c3        1 K14     -0.041100
     35 C33        -3.0300   -4.4910   -0.8150 ca        1 K14     -0.121500
     36 C34        -4.1090   -5.1090   -0.1840 ca        1 K14     -0.126000
     37 C35        -4.1140   -5.2680    1.2010 ca        1 K14     -0.126000
     38 C36        -3.0360   -4.8070    1.9560 ca        1 K14     -0.126000
     39 C37        -1.9550   -4.1890    1.3290 ca        1 K14     -0.121500
     40 C38        -1.9460   -4.0270   -0.0620 ca        1 K14     -0.083300
     41 H1          2.9320    6.1680    1.8570 h1        1 K14      0.050367
     42 H1A         2.8800    6.0110    0.0280 h1        1 K14      0.050367
     43 H1B         1.6040    7.0090    0.9000 h1        1 K14      0.050367
     44 H3         -0.1160    2.9480    1.3500 ha        1 K14      0.155500
     45 H4          0.6780    0.6120    1.5720 ha        1 K14      0.160500
     46 H6          4.7830    1.9550    1.2580 ha        1 K14      0.160500
     47 H7          4.0110    4.3030    1.0520 ha        1 K14      0.155500
     48 H12         3.1950   -0.9710   -1.9600 h1        1 K14      0.054200
     49 H12A        4.1160    0.2450   -0.9640 h1        1 K14      0.054200
     50 H13         5.7070   -1.5610   -0.2190 hc        1 K14      0.081700
     51 H14         4.0540   -3.2970   -2.1840 hc        1 K14      0.032700
     52 H14A        5.7040   -3.7260   -1.5720 hc        1 K14      0.032700
     53 H14B        4.3260   -3.5770   -0.4120 hc        1 K14      0.032700
     54 H15         5.4320   -1.5050   -3.2960 hc        1 K14      0.037700
     55 H15A        5.8490   -0.0280   -2.3430 hc        1 K14      0.037700
     56 H16         2.1890   -2.9120   -0.6160 h1        1 K14      0.069200
     57 H16A        1.4660   -2.2910    0.9430 h1        1 K14      0.069200
     58 H17         0.7080   -0.2110   -0.7380 h1        1 K14      0.097700
     59 H18         7.9010   -1.1370   -3.1480 hc        1 K14      0.035700
     60 H18A        7.8220   -1.2210   -1.3390 hc        1 K14      0.035700
     61 H18B        7.4360   -2.6850   -2.3320 hc        1 K14      0.035700
     62 HO18        1.0140   -2.4450   -2.4360 ho        1 K14      0.399000
     63 H19        -0.6980   -1.7640    0.7330 h1        1 K14      0.097700
     64 HN20       -2.0190   -1.3060   -1.8850 hn        1 K14      0.322500
     65 H24        -2.5410    2.5690   -0.0870 h1        1 K14      0.091700
     66 H25        -2.8690    3.7580   -2.1310 h1        1 K14      0.064700
     67 H25A       -3.8130    2.3620   -2.8700 h1        1 K14      0.064700
     68 H27        -5.8800    3.9540    0.0960 h2        1 K14      0.101700
     69 H29        -7.5980    0.7240   -0.7130 h1        1 K14      0.051200
     70 H29A       -6.4210    0.7260   -2.1190 h1        1 K14      0.051200
     71 H30        -5.8560    0.3720    0.8470 hc        1 K14      0.066200
     72 H30A       -4.8320   -0.0890   -0.5690 hc        1 K14      0.066200
     73 H31        -4.4760    2.2090    1.1400 hc        1 K14      0.086700
     74 H32        -0.8480   -3.5230   -1.8430 hc        1 K14      0.056700
     75 H32A        0.1620   -3.8850   -0.3820 hc        1 K14      0.056700
     76 H34        -4.9580   -5.4720   -0.7830 ha        1 K14      0.134500
     77 H35        -4.9660   -5.7550    1.6970 ha        1 K14      0.134000
     78 H36        -3.0360   -4.9300    3.0500 ha        1 K14      0.134500
     79 H37        -1.1060   -3.8270    1.9280 ha        1 K14      0.132000
     80 H33        -3.0330   -4.3690   -1.9080 ha        1 K14      0.132000
@<TRIPOS>BOND
     1    1    2 1   
     2    1   41 1   
     3    1   42 1   
     4    1   43 1   
     5    2    3 1   
     6    3    4 ar  
     7    3    8 ar  
     8    4    5 ar  
     9    4   44 1   
    10    5    6 ar  
    11    5   45 1   
    12    6    7 ar  
    13    6    9 1   
    14    7    8 ar  
    15    7   46 1   
    16    8   47 1   
    17    9   10 2   
    18    9   11 2   
    19    9   12 1   
    20   12   13 1   
    21   12   17 1   
    22   13   14 1   
    23   13   48 1   
    24   13   49 1   
    25   14   15 1   
    26   14   16 1   
    27   14   50 1   
    28   15   51 1   
    29   15   52 1   
    30   15   53 1   
    31   16   19 1   
    32   16   54 1   
    33   16   55 1   
    34   17   18 1   
    35   17   56 1   
    36   17   57 1   
    37   18   20 1   
    38   18   21 1   
    39   18   58 1   
    40   19   59 1   
    41   19   60 1   
    42   19   61 1   
    43   20   62 1   
    44   21   22 1   
    45   21   34 1   
    46   21   63 1   
    47   22   23 1   
    48   22   64 1   
    49   23   24 2   
    50   23   25 1   
    51   25   26 1   
    52   26   27 1   
    53   26   33 1   
    54   26   65 1   
    55   27   28 1   
    56   27   66 1   
    57   27   67 1   
    58   28   29 1   
    59   29   30 1   
    60   29   33 1   
    61   29   68 1   
    62   30   31 1   
    63   31   32 1   
    64   31   69 1   
    65   31   70 1   
    66   32   33 1   
    67   32   71 1   
    68   32   72 1   
    69   33   73 1   
    70   34   40 1   
    71   34   74 1   
    72   34   75 1   
    73   35   36 ar  
    74   35   40 ar  
    75   35   80 1   
    76   36   37 ar  
    77   36   76 1   
    78   37   38 ar  
    79   37   77 1   
    80   38   39 ar  
    81   38   78 1   
    82   39   40 ar  
    83   39   79 1   
@<TRIPOS>SUBSTRUCTURE
     1 K14         1 TEMP              0 ****  ****    0 ROOT
