@<TRIPOS>MOLECULE
K14
   82    84     1     0     0
SMALL
bcc


@<TRIPOS>ATOM
      1 C1         -0.1490   -2.5290    0.7950 c3        1 K14      0.097700
      2 O1         -0.0400   -1.1080    0.5980 os        1 K14     -0.265900
      3 C2          1.1130   -0.5020    0.9290 ca        1 K14      0.303100
      4 C3          1.1500    0.9050    0.7010 ca        1 K14     -0.216500
      5 C4          2.2810    1.6090    1.0120 ca        1 K14      0.070000
      6 C5          3.4420    0.9850    1.5710 ca        1 K14     -0.685500
      7 C6          3.3740   -0.4280    1.7670 ca        1 K14      0.070000
      8 C7          2.2520   -1.1570    1.4650 ca        1 K14     -0.216500
      9 S8          4.6900    1.7980    1.9350 s4        1 K14      1.744300
     10 O9          5.7800    1.1390    2.4160 o         1 K14     -0.474400
     11 O10         4.6260    3.1590    1.9280 o         1 K14     -0.474400
     12 N11         5.0030    2.6670    4.7370 n3        1 K14     -0.878200
     13 C12         3.7980    3.3880    5.1260 c3        1 K14      0.138800
     14 C13         3.2300    3.0770    6.5190 c3        1 K14     -0.091700
     15 C14         4.2010    3.4750    7.6070 c3        1 K14     -0.100100
     16 C15         1.9000    3.8040    6.6770 c3        1 K14     -0.074400
     17 C16         6.2450    3.3770    5.0110 c3        1 K14      0.129800
     18 C17         6.7860    4.0940    3.7570 c3        1 K14      0.130100
     19 C18         1.0680    3.2330    7.7970 c3        1 K14     -0.098100
     20 O18         6.0300    5.2470    3.4300 oh        1 K14     -0.621800
     21 C19         8.2400    4.5760    3.9790 c3        1 K14      0.143500
     22 N20         8.7420    5.2580    2.7140 n4        1 K14     -0.633800
     23 C21         8.9320    4.2820    1.6150 c         1 K14      0.610100
     24 O22         9.8940    3.5330    1.5250 o         1 K14     -0.410000
     25 O23         7.9060    4.3300    0.7260 os        1 K14     -0.403900
     26 C24         7.9030    3.3090   -0.3140 c3        1 K14      0.134100
     27 C25         7.4390    1.9700    0.2810 c3        1 K14      0.110400
     28 O26         6.0050    1.9280    0.1180 os        1 K14     -0.579600
     29 C27         5.6630    2.6830   -1.0790 c3        1 K14      0.337900
     30 O28         4.5100    3.3740   -0.6870 os        1 K14     -0.432600
     31 C29         4.7820    4.7930   -0.5840 c3        1 K14      0.125400
     32 C30         6.1580    5.0550   -1.1950 c3        1 K14     -0.101400
     33 C31         6.8170    3.6870   -1.3360 c3        1 K14     -0.106700
     34 C32         8.3570    5.5410    5.1670 c3        1 K14     -0.051100
     35 C33         9.9210    7.4370    4.6990 ca        1 K14     -0.135000
     36 C34        11.1700    8.0440    4.8120 ca        1 K14     -0.110000
     37 C35        12.2100    7.3880    5.4740 ca        1 K14     -0.091000
     38 C36        11.9970    6.1250    6.0270 ca        1 K14     -0.110000
     39 C37        10.7480    5.5140    5.9170 ca        1 K14     -0.135000
     40 C38         9.7040    6.1650    5.2490 ca        1 K14     -0.173300
     41 H1         -1.1930   -2.7410    0.4410 h1        1 K14      0.082700
     42 H1A        -0.0330   -2.7760    1.8770 h1        1 K14      0.082700
     43 H1B         0.6040   -3.0620    0.1670 h1        1 K14      0.082700
     44 H3          0.2590    1.3970    0.2730 ha        1 K14      0.191000
     45 H4          2.3200    2.7000    0.8160 ha        1 K14      0.172000
     46 H6          4.2630   -0.9440    2.1810 ha        1 K14      0.172000
     47 H7          2.2340   -2.2470    1.6350 ha        1 K14      0.191000
     48 H12         3.9750    4.4980    5.0470 h1        1 K14      0.051700
     49 H12A        3.0170    3.1160    4.3570 h1        1 K14      0.051700
     50 H13         3.0410    1.9690    6.5930 hc        1 K14      0.055700
     51 H14         3.7470    3.2920    8.6130 hc        1 K14      0.043700
     52 H14A        4.4570    4.5600    7.5340 hc        1 K14      0.043700
     53 H14B        5.1430    2.8780    7.5410 hc        1 K14      0.043700
     54 H15         1.3200    3.7300    5.7190 hc        1 K14      0.043700
     55 H15A        2.0930    4.8930    6.8660 hc        1 K14      0.043700
     56 H16         7.0310    2.6430    5.3490 h1        1 K14      0.073200
     57 H16A        6.1150    4.1520    5.8230 h1        1 K14      0.073200
     58 H17         6.7830    3.3790    2.8790 h1        1 K14      0.034700
     59 H18         0.8590    2.1490    7.6260 hc        1 K14      0.046367
     60 H18A        1.5880    3.3400    8.7790 hc        1 K14      0.046367
     61 H18B        0.0920    3.7740    7.8590 hc        1 K14      0.046367
     62 HO18        5.1470    4.9510    3.1590 ho        1 K14      0.460000
     63 H19         8.9080    3.6790    4.1470 hx        1 K14      0.118700
     64 HN20        8.0450    5.9690    2.4400 hn        1 K14      0.496300
     65 H24         8.9310    3.2490   -0.7600 h1        1 K14      0.127700
     66 H25         7.6520    1.8650    1.3740 h1        1 K14      0.106700
     67 H25A        7.8730    1.1080   -0.2900 h1        1 K14      0.106700
     68 H27         5.4200    1.9530   -1.8910 h2        1 K14      0.136700
     69 H29         3.9530    5.2980   -1.1420 h1        1 K14      0.083700
     70 H29A        4.7440    5.0510    0.5070 h1        1 K14      0.083700
     71 H30         6.0520    5.5300   -2.2050 hc        1 K14      0.086700
     72 H30A        6.7520    5.7540   -0.5580 hc        1 K14      0.086700
     73 H31         7.2430    3.5540   -2.3650 hc        1 K14      0.123700
     74 H32         8.1550    4.9370    6.0950 hc        1 K14      0.100700
     75 H32A        7.5540    6.3250    5.0930 hc        1 K14      0.100700
     76 H35        13.1940    7.8750    5.5730 ha        1 K14      0.166000
     77 H36        12.8120    5.6120    6.5630 ha        1 K14      0.161000
     78 H37        10.5800    4.5270    6.3750 ha        1 K14      0.136000
     79 H33         9.0910    7.9820    4.2240 ha        1 K14      0.136000
     80 H111        5.0330    1.7790    5.2120 hn        1 K14      0.383800
     81 H202        9.6470    5.7180    2.9270 hn        1 K14      0.496300
     82 H34        11.3320    9.0520    4.3950 ha        1 K14      0.161000
@<TRIPOS>BOND
     1    1    2 1   
     2    1   41 1   
     3    1   42 1   
     4    1   43 1   
     5    2    3 1   
     6    3    4 ar  
     7    3    8 ar  
     8    4    5 ar  
     9    4   44 1   
    10    5    6 ar  
    11    5   45 1   
    12    6    7 ar  
    13    6    9 1   
    14    7    8 ar  
    15    7   46 1   
    16    8   47 1   
    17    9   10 1   
    18    9   11 1   
    19   12   13 1   
    20   12   17 1   
    21   12   80 1   
    22   13   14 1   
    23   13   48 1   
    24   13   49 1   
    25   14   15 1   
    26   14   16 1   
    27   14   50 1   
    28   15   51 1   
    29   15   52 1   
    30   15   53 1   
    31   16   19 1   
    32   16   54 1   
    33   16   55 1   
    34   17   18 1   
    35   17   56 1   
    36   17   57 1   
    37   18   20 1   
    38   18   21 1   
    39   18   58 1   
    40   19   59 1   
    41   19   60 1   
    42   19   61 1   
    43   20   62 1   
    44   21   22 1   
    45   21   34 1   
    46   21   63 1   
    47   22   23 1   
    48   22   64 1   
    49   22   81 1   
    50   23   24 2   
    51   23   25 1   
    52   25   26 1   
    53   26   27 1   
    54   26   33 1   
    55   26   65 1   
    56   27   28 1   
    57   27   66 1   
    58   27   67 1   
    59   28   29 1   
    60   29   30 1   
    61   29   33 1   
    62   29   68 1   
    63   30   31 1   
    64   31   32 1   
    65   31   69 1   
    66   31   70 1   
    67   32   33 1   
    68   32   71 1   
    69   32   72 1   
    70   33   73 1   
    71   34   40 1   
    72   34   74 1   
    73   34   75 1   
    74   35   36 ar  
    75   35   40 ar  
    76   35   79 1   
    77   36   37 ar  
    78   36   82 1   
    79   37   38 ar  
    80   37   76 1   
    81   38   39 ar  
    82   38   77 1   
    83   39   40 ar  
    84   39   78 1   
@<TRIPOS>SUBSTRUCTURE
     1 K14         1 TEMP              0 ****  ****    0 ROOT
