@<TRIPOS>MOLECULE
K15
   67    69     1     0     0
SMALL
bcc


@<TRIPOS>ATOM
      1 O           0.3200   -2.9990    1.2180 o         1 K15     -0.779300
      2 C           1.4260   -2.4340    1.0850 c         1 K15      0.916600
      3 CA          1.5060   -0.9030    1.4770 c3        1 K15     -0.052500
      4 N           0.1280   -0.3210    1.4530 n4        1 K15     -0.828600
      5 CB          2.1690   -0.7720    2.8480 c3        1 K15     -0.110400
      6 CG          3.6370   -1.1950    2.8040 c3        1 K15      0.129800
      7 ND          3.8880   -2.6500    3.0830 n4        1 K15     -0.676400
      8 CE          4.1750   -2.9130    4.5290 c3        1 K15      0.098800
      9 C11         3.0750   -2.4710    5.4850 c3        1 K15     -0.101400
     10 C12         3.4590   -2.8610    6.9000 c3        1 K15     -0.081400
     11 C13         2.3960   -2.4180    7.8840 c3        1 K15     -0.079400
     12 C14         2.7720   -2.8060    9.3000 c3        1 K15     -0.079400
     13 C15         1.7190   -2.3680   10.2850 c3        1 K15     -0.097100
     14 C5'         5.0030   -3.1440    2.2080 c3        1 K15      0.105800
     15 C4'         5.3550   -4.6220    2.3960 c3        1 K15      0.086100
     16 O4'         4.1580   -5.4100    2.4170 os        1 K15     -0.433600
     17 C1'         4.3470   -6.6350    1.6780 c3        1 K15      0.261800
     18 C2'         5.6510   -6.4790    0.8290 c3        1 K15      0.076100
     19 O2'         6.4970   -7.5290    1.2420 oh        1 K15     -0.582800
     20 C3'         6.2550   -5.1190    1.2420 c3        1 K15      0.101100
     21 O3'         7.5950   -5.2120    1.6420 oh        1 K15     -0.564800
     22 N9          3.1600   -6.9270    0.9060 na        1 K15     -0.282000
     23 C8          2.2550   -6.0520    0.2560 cc        1 K15      0.519700
     24 N7          1.2510   -6.6840   -0.3790 nd        1 K15     -0.580100
     25 C5          1.4670   -8.0460   -0.1440 ca        1 K15     -0.128200
     26 C6          0.7970   -9.2270   -0.5080 ca        1 K15      0.519200
     27 N6         -0.4140   -9.1270   -1.3430 n4        1 K15     -0.815300
     28 C4          2.6770   -8.2320    0.6870 ca        1 K15      0.454800
     29 N3          3.1250   -9.4460    1.0840 nb        1 K15     -0.619000
     30 C2          2.3610  -10.4850    0.6490 ca        1 K15      0.677900
     31 N1          1.2350  -10.4510   -0.1170 nb        1 K15     -0.670000
     32 OXT         2.5120   -2.9500    0.7130 o         1 K15     -0.779300
     33 H1          2.1210   -0.3690    0.6970 hx        1 K15      0.115700
     34 H2          0.0130    0.4150    2.1490 hn        1 K15      0.464800
     35 H3         -0.0700    0.0510    0.5210 hn        1 K15      0.464800
     36 H5          1.5930   -1.3670    3.6070 hc        1 K15      0.084700
     37 H6          2.1590    0.3020    3.1850 hc        1 K15      0.084700
     38 H7          4.2160   -0.5980    3.5670 hx        1 K15      0.110700
     39 H8          4.0500   -0.9600    1.7780 hx        1 K15      0.110700
     40 H10         5.1420   -2.3960    4.7910 hx        1 K15      0.104700
     41 H11         4.3180   -4.0290    4.6360 hx        1 K15      0.104700
     42 H12         2.1010   -2.9600    5.2160 hc        1 K15      0.057200
     43 H13         2.9330   -1.3590    5.4330 hc        1 K15      0.057200
     44 H14         3.5910   -3.9730    6.9650 hc        1 K15      0.057700
     45 H15         4.4410   -2.3900    7.1710 hc        1 K15      0.057700
     46 H16         1.4130   -2.8870    7.6160 hc        1 K15      0.044200
     47 H17         2.2640   -1.3060    7.8240 hc        1 K15      0.044200
     48 H18         3.7560   -2.3390    9.5670 hc        1 K15      0.046700
     49 H19         2.9050   -3.9180    9.3600 hc        1 K15      0.046700
     50 H20         2.0160   -2.6640   11.3200 hc        1 K15      0.043367
     51 H21         0.7350   -2.8420   10.0520 hc        1 K15      0.043367
     52 H22         1.5900   -1.2580   10.2600 hc        1 K15      0.043367
     53 H23         5.9270   -2.5370    2.4230 hx        1 K15      0.124700
     54 H24         4.6700   -2.9750    1.1380 hx        1 K15      0.124700
     55 H25         5.8750   -4.7860    3.3830 h1        1 K15      0.088700
     56 H26         4.4820   -7.4630    2.4450 h2        1 K15      0.139700
     57 H27         5.4600   -6.5140   -0.2750 h1        1 K15      0.088700
     58 H28         7.1760   -7.6440    0.5600 ho        1 K15      0.445000
     59 H29         6.2630   -4.3980    0.3780 h1        1 K15      0.109700
     60 H30         7.6950   -5.9810    2.2260 ho        1 K15      0.434000
     61 H31         2.3680   -4.9430    0.3050 h5        1 K15      0.152800
     62 H32        -0.1330   -8.8900   -2.3030 hn        1 K15      0.481133
     63 H33        -1.0090   -8.3750   -0.9700 hn        1 K15      0.481133
     64 H34         2.6990  -11.5040    0.9590 h5        1 K15      0.107100
     65 HN3        -0.5400   -1.0960    1.6410 hn        1 K15      0.464800
     66 HD1         3.0440   -3.1880    2.8030 hn        1 K15      0.479800
     67 H63        -0.9350  -10.0140   -1.3490 hn        1 K15      0.481133
@<TRIPOS>BOND
     1    1    2 1   
     2    2    3 1   
     3    2   32 1   
     4    3    4 1   
     5    3    5 1   
     6    3   33 1   
     7    4   34 1   
     8    4   35 1   
     9    4   65 1   
    10    5    6 1   
    11    5   36 1   
    12    5   37 1   
    13    6    7 1   
    14    6   38 1   
    15    6   39 1   
    16    7    8 1   
    17    7   14 1   
    18    7   66 1   
    19    8    9 1   
    20    8   40 1   
    21    8   41 1   
    22    9   10 1   
    23    9   42 1   
    24    9   43 1   
    25   10   11 1   
    26   10   44 1   
    27   10   45 1   
    28   11   12 1   
    29   11   46 1   
    30   11   47 1   
    31   12   13 1   
    32   12   48 1   
    33   12   49 1   
    34   13   50 1   
    35   13   51 1   
    36   13   52 1   
    37   14   15 1   
    38   14   53 1   
    39   14   54 1   
    40   15   16 1   
    41   15   20 1   
    42   15   55 1   
    43   16   17 1   
    44   17   18 1   
    45   17   22 1   
    46   17   56 1   
    47   18   19 1   
    48   18   20 1   
    49   18   57 1   
    50   19   58 1   
    51   20   21 1   
    52   20   59 1   
    53   21   60 1   
    54   22   23 1   
    55   22   28 1   
    56   23   24 2   
    57   23   61 1   
    58   24   25 1   
    59   25   26 ar  
    60   25   28 ar  
    61   26   27 1   
    62   26   31 ar  
    63   27   62 1   
    64   27   63 1   
    65   27   67 1   
    66   28   29 ar  
    67   29   30 ar  
    68   30   31 ar  
    69   30   64 1   
@<TRIPOS>SUBSTRUCTURE
     1 K15         1 TEMP              0 ****  ****    0 ROOT
