@<TRIPOS>MOLECULE
K15
   66    68     1     0     0
SMALL
bcc


@<TRIPOS>ATOM
      1 O           2.0480   -2.4670   -1.2610 o         1 K15     -0.776300
      2 C           2.7040   -2.2130   -0.2310 c         1 K15      0.942600
      3 CA          2.0810   -1.1110    0.7420 c3        1 K15     -0.066500
      4 N           0.6400   -0.9250    0.3850 nz        1 K15     -0.829600
      5 CB          2.2750   -1.4710    2.2110 c3        1 K15     -0.100400
      6 CG          3.7600   -1.4700    2.5870 c3        1 K15      0.138800
      7 ND          4.3440   -2.8380    2.7980 nx        1 K15     -0.664400
      8 CE          4.2730   -3.2500    4.2380 c3        1 K15      0.098800
      9 C11         2.8560   -3.3640    4.7850 c3        1 K15     -0.102400
     10 C12         2.9160   -3.8100    6.2330 c3        1 K15     -0.079400
     11 C13         1.5260   -3.8950    6.8270 c3        1 K15     -0.079400
     12 C14         1.5790   -4.3400    8.2730 c3        1 K15     -0.079400
     13 C15         0.1990   -4.4280    8.8710 c3        1 K15     -0.095100
     14 C5'         5.7570   -2.9080    2.3010 c3        1 K15      0.109800
     15 C4'         6.2710   -4.3150    1.9360 c3        1 K15      0.089100
     16 O4'         5.5430   -5.3400    2.6030 os        1 K15     -0.444600
     17 C1'         4.9990   -6.3160    1.6780 c3        1 K15      0.249800
     18 C2'         5.5810   -5.9860    0.2720 c3        1 K15      0.084100
     19 O2'         6.5620   -6.9720    0.0190 oh        1 K15     -0.585800
     20 C3'         6.2480   -4.5990    0.4160 c3        1 K15      0.083100
     21 O3'         7.5440   -4.5700   -0.1230 oh        1 K15     -0.571800
     22 N9          3.5640   -6.2950    1.7440 na        1 K15     -0.294000
     23 C8          2.6650   -5.4020    1.0970 cc        1 K15      0.367700
     24 N7          1.4020   -5.5090    1.5270 nd        1 K15     -0.553100
     25 C5          1.4270   -6.5070    2.5150 ca        1 K15     -0.246200
     26 C6          0.4060   -7.1090    3.3230 ca        1 K15      0.745200
     27 N6         -0.8950   -6.6580    3.2500 nv        1 K15     -0.931500
     28 C4          2.7880   -7.0070    2.6810 ca        1 K15      0.468800
     29 N3          3.1380   -7.9750    3.5730 nb        1 K15     -0.723000
     30 C2          2.0750   -8.4460    4.2760 ca        1 K15      0.696900
     31 N1          0.7650   -8.0950    4.2120 nb        1 K15     -0.770000
     32 OXT         3.7950   -2.7090    0.1440 o         1 K15     -0.776300
     33 H1          2.6110   -0.1450    0.5020 hx        1 K15      0.105700
     34 H2          0.3410    0.0380    0.5200 hn        1 K15      0.461467
     35 H3          0.0530   -1.5510    0.9370 hn        1 K15      0.461467
     36 H5          1.7640   -0.7140    2.8660 hc        1 K15      0.075200
     37 H6          1.7980   -2.4680    2.4190 hc        1 K15      0.075200
     38 H7          3.9040   -0.8870    3.5410 hx        1 K15      0.103700
     39 H8          4.3450   -0.9610    1.7650 hx        1 K15      0.103700
     40 H10         4.7870   -4.2540    4.3260 hx        1 K15      0.111200
     41 H11         4.8560   -2.4970    4.8410 hx        1 K15      0.111200
     42 H12         2.2650   -4.1100    4.1880 hc        1 K15      0.056200
     43 H13         2.3300   -2.3750    4.7190 hc        1 K15      0.056200
     44 H14         3.4160   -4.8120    6.3000 hc        1 K15      0.056200
     45 H15         3.5350   -3.0870    6.8280 hc        1 K15      0.056200
     46 H16         1.0240   -2.8930    6.7610 hc        1 K15      0.043700
     47 H17         0.9050   -4.6180    6.2350 hc        1 K15      0.043700
     48 H18         2.0820   -5.3410    8.3380 hc        1 K15      0.045200
     49 H19         2.2020   -3.6180    8.8650 hc        1 K15      0.045200
     50 H20        -0.4280   -5.1630    8.3120 hc        1 K15      0.040033
     51 H21         0.2620   -4.7580    9.9370 hc        1 K15      0.040033
     52 H22        -0.3100   -3.4350    8.8400 hc        1 K15      0.040033
     53 H23         6.4180   -2.4680    3.0990 hx        1 K15      0.108700
     54 H24         5.8310   -2.2760    1.3650 hx        1 K15      0.108700
     55 H25         7.3310   -4.3840    2.3200 h1        1 K15      0.100700
     56 H26         5.3710   -7.3180    2.0580 h2        1 K15      0.155700
     57 H27         4.8000   -5.9760   -0.5330 h1        1 K15      0.093700
     58 H28         6.7050   -6.9930   -0.9370 ho        1 K15      0.436000
     59 H29         5.6740   -3.8150   -0.1570 h1        1 K15      0.142700
     60 H30         8.0310   -5.3400    0.2100 ho        1 K15      0.425000
     61 H31         3.0040   -4.7380    0.2800 h5        1 K15      0.112800
     62 H32        -1.6030   -7.1910    3.7030 hn        1 K15      0.437800
     63 H33        -1.1530   -6.1860    2.4160 hn        1 K15      0.437800
     64 H34         2.3100   -9.2480    5.0110 h5        1 K15      0.069100
     65 HN3         0.5480   -1.1950   -0.6210 hn        1 K15      0.461467
     66 HD1         3.7980   -3.5050    2.2200 hn        1 K15      0.474800
@<TRIPOS>BOND
     1    1    2 1   
     2    2    3 1   
     3    2   32 1   
     4    3    4 1   
     5    3    5 1   
     6    3   33 1   
     7    4   34 1   
     8    4   35 1   
     9    4   65 1   
    10    5    6 1   
    11    5   36 1   
    12    5   37 1   
    13    6    7 1   
    14    6   38 1   
    15    6   39 1   
    16    7    8 1   
    17    7   14 1   
    18    7   66 1   
    19    8    9 1   
    20    8   40 1   
    21    8   41 1   
    22    9   10 1   
    23    9   42 1   
    24    9   43 1   
    25   10   11 1   
    26   10   44 1   
    27   10   45 1   
    28   11   12 1   
    29   11   46 1   
    30   11   47 1   
    31   12   13 1   
    32   12   48 1   
    33   12   49 1   
    34   13   50 1   
    35   13   51 1   
    36   13   52 1   
    37   14   15 1   
    38   14   53 1   
    39   14   54 1   
    40   15   16 1   
    41   15   20 1   
    42   15   55 1   
    43   16   17 1   
    44   17   18 1   
    45   17   22 1   
    46   17   56 1   
    47   18   19 1   
    48   18   20 1   
    49   18   57 1   
    50   19   58 1   
    51   20   21 1   
    52   20   59 1   
    53   21   60 1   
    54   22   23 1   
    55   22   28 1   
    56   23   24 2   
    57   23   61 1   
    58   24   25 1   
    59   25   26 ar  
    60   25   28 ar  
    61   26   27 1   
    62   26   31 ar  
    63   27   62 1   
    64   27   63 1   
    65   28   29 ar  
    66   29   30 ar  
    67   30   31 ar  
    68   30   64 1   
@<TRIPOS>SUBSTRUCTURE
     1 K15         1 TEMP              0 ****  ****    0 ROOT
