@<TRIPOS>MOLECULE
K15
   64    66     1     0     0
SMALL
bcc


@<TRIPOS>ATOM
      1 O          -2.1890    5.8360   -0.4490 o         1 K15     -0.841800
      2 C          -2.2190    4.8490    0.3390 c         1 K15      0.889600
      3 CA         -2.8520    3.5130   -0.1830 c3        1 K15      0.017500
      4 N          -3.2050    3.5230   -1.5970 n3        1 K15     -0.894800
      5 CB         -1.9200    2.3640    0.2050 c3        1 K15     -0.072400
      6 CG         -2.6360    1.0210    0.0990 c3        1 K15      0.157800
      7 ND         -1.8260   -0.1550    0.4250 n3        1 K15     -0.734600
      8 CE         -2.6210   -1.3720    0.5240 c3        1 K15      0.166800
      9 C11        -3.6090   -1.5880   -0.6210 c3        1 K15     -0.083400
     10 C12        -4.2110   -2.9740   -0.5280 c3        1 K15     -0.078400
     11 C13        -5.2230   -3.2030   -1.6290 c3        1 K15     -0.079400
     12 C14        -5.8260   -4.5900   -1.5450 c3        1 K15     -0.080400
     13 C15        -6.8350   -4.8220   -2.6400 c3        1 K15     -0.091100
     14 C5'        -0.9860    0.0660    1.5920 c3        1 K15      0.146800
     15 C4'        -0.2680   -1.1650    2.1580 c3        1 K15      0.090100
     16 O4'         0.4670   -1.8750    1.1460 os        1 K15     -0.398600
     17 C1'         1.8580   -1.5720    1.2180 c3        1 K15      0.224800
     18 C2'         2.1250   -0.8830    2.5990 c3        1 K15      0.078100
     19 O2'         2.9170   -1.7380    3.3960 oh        1 K15     -0.597800
     20 C3'         0.7350   -0.7420    3.2560 c3        1 K15      0.124100
     21 O3'         0.5830   -1.5190    4.4200 oh        1 K15     -0.577800
     22 N9          2.2810   -0.7810    0.0850 na        1 K15     -0.290000
     23 C8          1.5130   -0.2530   -0.9840 cc        1 K15      0.449700
     24 N7          2.2540    0.3750   -1.9080 nd        1 K15     -0.553100
     25 C5          3.5780    0.2780   -1.4520 ca        1 K15     -0.209200
     26 C6          4.8270    0.7560   -1.9680 ca        1 K15      0.741200
     27 N6          4.8680    1.4020   -3.1850 nh        1 K15     -0.939500
     28 C4          3.6160   -0.4530   -0.1910 ca        1 K15      0.435800
     29 N3          4.7640   -0.7040    0.5100 nb        1 K15     -0.755000
     30 C2          5.8600   -0.1920   -0.0960 ca        1 K15      0.674900
     31 N1          5.9760    0.5110   -1.2540 nb        1 K15     -0.796000
     32 OXT        -1.7960    4.8660    1.5280 o         1 K15     -0.841800
     33 H1         -3.8220    3.3890    0.3840 h1        1 K15      0.040700
     34 H2         -3.6060    4.4270   -1.7950 hn        1 K15      0.333800
     35 H3         -2.3600    3.4660   -2.1380 hn        1 K15      0.333800
     36 H5         -1.0060    2.3680   -0.4420 hc        1 K15      0.053700
     37 H6         -1.5950    2.5610    1.2620 hc        1 K15      0.053700
     38 H7         -3.5580    1.0630    0.7510 h1        1 K15      0.037700
     39 H8         -2.9740    0.8790   -0.9670 h1        1 K15      0.037700
     40 H10        -1.8920   -2.2340    0.5220 h1        1 K15      0.024200
     41 H11        -3.1980   -1.4150    1.4960 h1        1 K15      0.024200
     42 H12        -4.4260   -0.8200   -0.5740 hc        1 K15      0.053700
     43 H13        -3.0910   -1.4670   -1.6070 hc        1 K15      0.053700
     44 H14        -3.3990   -3.7450   -0.5970 hc        1 K15      0.035200
     45 H15        -4.7060   -3.1050    0.4710 hc        1 K15      0.035200
     46 H16        -6.0370   -2.4340   -1.5580 hc        1 K15      0.042200
     47 H17        -4.7290   -3.0680   -2.6270 hc        1 K15      0.042200
     48 H18        -5.0110   -5.3570   -1.6160 hc        1 K15      0.035200
     49 H19        -6.3180   -4.7230   -0.5450 hc        1 K15      0.035200
     50 H20        -6.3580   -4.7170   -3.6440 hc        1 K15      0.029700
     51 H21        -7.2680   -5.8480   -2.5600 hc        1 K15      0.029700
     52 H22        -7.6680   -4.0810   -2.5710 hc        1 K15      0.029700
     53 H23        -0.2010    0.8130    1.2740 h1        1 K15      0.055200
     54 H24        -1.5680    0.5150    2.4510 h1        1 K15      0.055200
     55 H25        -1.0000   -1.9190    2.5570 h1        1 K15      0.085700
     56 H26         2.3920   -2.5700    1.1660 h2        1 K15      0.091700
     57 H27         2.6140    0.1200    2.4880 h1        1 K15      0.083700
     58 H28         3.8210   -1.6710    3.0590 ho        1 K15      0.429000
     59 H29         0.5530    0.3150    3.5950 h1        1 K15      0.109700
     60 H30         0.9610   -2.3920    4.2480 ho        1 K15      0.415000
     61 H31         0.4150   -0.3640   -0.9930 h5        1 K15      0.118800
     62 H32         4.0040    1.7410   -3.5380 hn        1 K15      0.435300
     63 H33         5.6900    1.9000   -3.4320 hn        1 K15      0.435300
     64 H34         6.8210   -0.3640    0.4360 h5        1 K15      0.042100
@<TRIPOS>BOND
     1    1    2 1   
     2    2    3 1   
     3    2   32 1   
     4    3    4 1   
     5    3    5 1   
     6    3   33 1   
     7    4   34 1   
     8    4   35 1   
     9    5    6 1   
    10    5   36 1   
    11    5   37 1   
    12    6    7 1   
    13    6   38 1   
    14    6   39 1   
    15    7    8 1   
    16    7   14 1   
    17    8    9 1   
    18    8   40 1   
    19    8   41 1   
    20    9   10 1   
    21    9   42 1   
    22    9   43 1   
    23   10   11 1   
    24   10   44 1   
    25   10   45 1   
    26   11   12 1   
    27   11   46 1   
    28   11   47 1   
    29   12   13 1   
    30   12   48 1   
    31   12   49 1   
    32   13   50 1   
    33   13   51 1   
    34   13   52 1   
    35   14   15 1   
    36   14   53 1   
    37   14   54 1   
    38   15   16 1   
    39   15   20 1   
    40   15   55 1   
    41   16   17 1   
    42   17   18 1   
    43   17   22 1   
    44   17   56 1   
    45   18   19 1   
    46   18   20 1   
    47   18   57 1   
    48   19   58 1   
    49   20   21 1   
    50   20   59 1   
    51   21   60 1   
    52   22   23 1   
    53   22   28 1   
    54   23   24 2   
    55   23   61 1   
    56   24   25 1   
    57   25   26 ar  
    58   25   28 ar  
    59   26   27 1   
    60   26   31 ar  
    61   27   62 1   
    62   27   63 1   
    63   28   29 ar  
    64   29   30 ar  
    65   30   31 ar  
    66   30   64 1   
@<TRIPOS>SUBSTRUCTURE
     1 K15         1 TEMP              0 ****  ****    0 ROOT
