@<TRIPOS>MOLECULE
K15
   66    68     1     0     0
SMALL
bcc


@<TRIPOS>ATOM
      1 O           3.4670   -2.5420   -0.6890 o         1 K15     -0.765800
      2 C           3.0130   -1.7850    0.2080 c         1 K15      0.919600
      3 CA          1.4840   -2.0230    0.5970 c3        1 K15     -0.062500
      4 N           0.7770   -2.6270   -0.5740 n4        1 K15     -0.824600
      5 CB          1.3990   -2.9150    1.8370 c3        1 K15     -0.104400
      6 CG          2.2200   -2.3440    2.9920 c3        1 K15      0.102800
      7 ND          3.3460   -3.2210    3.4560 n4        1 K15     -0.672400
      8 CE          3.9200   -2.6840    4.7360 c3        1 K15      0.106800
      9 C11         3.0870   -3.0230    5.9660 c3        1 K15     -0.106400
     10 C12         3.7990   -2.5150    7.2050 c3        1 K15     -0.079400
     11 C13         2.9910   -2.8220    8.4490 c3        1 K15     -0.080400
     12 C14         3.6970   -2.3200    9.6920 c3        1 K15     -0.079400
     13 C15         2.8990   -2.6200   10.9340 c3        1 K15     -0.096100
     14 C5'         4.4130   -3.3620    2.4150 c3        1 K15      0.073800
     15 C4'         5.2840   -4.6100    2.6070 c3        1 K15      0.072100
     16 O4'         4.4430   -5.7600    2.6820 os        1 K15     -0.439600
     17 C1'         4.5110   -6.5500    1.4730 c3        1 K15      0.250800
     18 C2'         5.7710   -6.0680    0.6920 c3        1 K15      0.083100
     19 O2'         6.7290   -7.0930    0.8530 oh        1 K15     -0.581800
     20 C3'         6.2440   -4.7790    1.4080 c3        1 K15      0.096100
     21 O3'         7.5790   -4.8700    1.8320 oh        1 K15     -0.566800
     22 N9          3.2790   -6.4460    0.7360 na        1 K15     -0.294000
     23 C8          2.8810   -5.4670   -0.2100 cc        1 K15      0.398700
     24 N7          1.6070   -5.5920   -0.6080 nd        1 K15     -0.605100
     25 C5          1.1020   -6.6970    0.0960 ca        1 K15     -0.237200
     26 C6         -0.1710   -7.3590    0.0990 ca        1 K15      0.730200
     27 N6         -1.2140   -6.8610   -0.6660 nh        1 K15     -0.925500
     28 C4          2.1380   -7.2440    0.9650 ca        1 K15      0.466800
     29 N3          1.9500   -8.3100    1.7920 nb        1 K15     -0.714000
     30 C2          0.6970   -8.8240    1.7050 ca        1 K15      0.696900
     31 N1         -0.3490   -8.4360    0.9300 nb        1 K15     -0.758000
     32 OXT         3.6150   -0.9310    0.8870 o         1 K15     -0.765800
     33 H1          1.0200   -1.0200    0.8160 hx        1 K15      0.110700
     34 H2          0.3160   -1.8950   -1.1150 hn        1 K15      0.462800
     35 H3          1.5040   -3.0760   -1.1730 hn        1 K15      0.462800
     36 H5          1.7260   -3.9590    1.5770 hc        1 K15      0.074700
     37 H6          0.3290   -2.9850    2.1770 hc        1 K15      0.074700
     38 H7          1.5430   -2.1950    3.8820 hx        1 K15      0.127200
     39 H8          2.6670   -1.3400    2.7050 hx        1 K15      0.127200
     40 H10         4.9520   -3.1250    4.8580 hx        1 K15      0.105700
     41 H11         4.0250   -1.5660    4.6280 hx        1 K15      0.105700
     42 H12         2.9420   -4.1340    6.0490 hc        1 K15      0.062200
     43 H13         2.0720   -2.5500    5.9030 hc        1 K15      0.062200
     44 H14         4.8100   -2.9960    7.2870 hc        1 K15      0.054700
     45 H15         3.9600   -1.4080    7.1240 hc        1 K15      0.054700
     46 H16         1.9810   -2.3400    8.3730 hc        1 K15      0.046200
     47 H17         2.8280   -3.9290    8.5310 hc        1 K15      0.046200
     48 H18         3.8630   -1.2140    9.6080 hc        1 K15      0.044700
     49 H19         4.7080   -2.8020    9.7680 hc        1 K15      0.044700
     50 H20         2.7440   -3.7200   11.0490 hc        1 K15      0.040700
     51 H21         3.4370   -2.2440   11.8380 hc        1 K15      0.040700
     52 H22         1.8970   -2.1280   10.8900 hc        1 K15      0.040700
     53 H23         5.0410   -2.4250    2.4010 hx        1 K15      0.131700
     54 H24         3.9070   -3.4570    1.4080 hx        1 K15      0.131700
     55 H25         5.8550   -4.5820    3.5760 h1        1 K15      0.101700
     56 H26         4.6310   -7.6200    1.8340 h2        1 K15      0.160700
     57 H27         5.5680   -5.8760   -0.3950 h1        1 K15      0.088700
     58 H28         7.4490   -6.9120    0.2310 ho        1 K15      0.439000
     59 H29         6.2190   -3.8880    0.7210 h1        1 K15      0.124700
     60 H30         7.6960   -5.7140    2.2960 ho        1 K15      0.428000
     61 H31         3.5790   -4.6960   -0.5890 h5        1 K15      0.116800
     62 H32        -2.0350   -7.4250   -0.7310 hn        1 K15      0.429300
     63 H33        -0.9400   -6.4120   -1.5110 hn        1 K15      0.429300
     64 H34         0.4970   -9.7050    2.3580 h5        1 K15      0.074100
     65 HN3         0.0960   -3.3310   -0.2880 hn        1 K15      0.462800
     66 HD1         2.9740   -4.1660    3.6400 hn        1 K15      0.451800
@<TRIPOS>BOND
     1    1    2 1   
     2    2    3 1   
     3    2   32 1   
     4    3    4 1   
     5    3    5 1   
     6    3   33 1   
     7    4   34 1   
     8    4   35 1   
     9    4   65 1   
    10    5    6 1   
    11    5   36 1   
    12    5   37 1   
    13    6    7 1   
    14    6   38 1   
    15    6   39 1   
    16    7    8 1   
    17    7   14 1   
    18    7   66 1   
    19    8    9 1   
    20    8   40 1   
    21    8   41 1   
    22    9   10 1   
    23    9   42 1   
    24    9   43 1   
    25   10   11 1   
    26   10   44 1   
    27   10   45 1   
    28   11   12 1   
    29   11   46 1   
    30   11   47 1   
    31   12   13 1   
    32   12   48 1   
    33   12   49 1   
    34   13   50 1   
    35   13   51 1   
    36   13   52 1   
    37   14   15 1   
    38   14   53 1   
    39   14   54 1   
    40   15   16 1   
    41   15   20 1   
    42   15   55 1   
    43   16   17 1   
    44   17   18 1   
    45   17   22 1   
    46   17   56 1   
    47   18   19 1   
    48   18   20 1   
    49   18   57 1   
    50   19   58 1   
    51   20   21 1   
    52   20   59 1   
    53   21   60 1   
    54   22   23 1   
    55   22   28 1   
    56   23   24 2   
    57   23   61 1   
    58   24   25 1   
    59   25   26 ar  
    60   25   28 ar  
    61   26   27 1   
    62   26   31 ar  
    63   27   62 1   
    64   27   63 1   
    65   28   29 ar  
    66   29   30 ar  
    67   30   31 ar  
    68   30   64 1   
@<TRIPOS>SUBSTRUCTURE
     1 K15         1 TEMP              0 ****  ****    0 ROOT
