@<TRIPOS>MOLECULE
K17
   15    16     1     0     0
SMALL
bcc


@<TRIPOS>ATOM
      1 BR3        -1.7600   -0.3160    2.3980 br        1 K17     -0.046100
      2 C3          0.0640   -0.5330    2.0780 ca        1 K17     -0.009900
      3 C2          0.6350   -0.3120    0.8240 ca        1 K17      0.026100
      4 BR2        -0.4660    0.2220   -0.5890 br        1 K17     -0.028100
      5 C7          0.9150   -0.9320    3.1150 ca        1 K17     -0.048200
      6 N8          0.6910   -1.2320    4.4590 na        1 K17     -0.274300
      7 C9          1.9460   -1.5720    5.0010 cc        1 K17      0.436700
      8 N5          2.9460   -1.5120    4.1080 nd        1 K17     -0.543100
      9 C6          2.3420   -1.1100    2.8990 ca        1 K17      0.091400
     10 C4          2.8830   -0.8800    1.6280 ca        1 K17      0.059100
     11 BR4         4.7100   -1.1050    1.3370 br        1 K17     -0.017100
     12 C1          2.0200   -0.4820    0.6040 ca        1 K17     -0.016900
     13 BR1         2.7170   -0.1680   -1.1030 br        1 K17     -0.031100
     14 HN8        -0.1780   -1.2070    4.9250 hn        1 K17      0.320700
     15 H9          2.0580   -1.8550    6.0560 h5        1 K17      0.079800
@<TRIPOS>BOND
     1    1    2 1   
     2    2    3 ar  
     3    2    5 ar  
     4    3    4 1   
     5    3   12 ar  
     6    5    6 1   
     7    5    9 ar  
     8    6    7 1   
     9    6   14 1   
    10    7    8 2   
    11    7   15 1   
    12    8    9 1   
    13    9   10 ar  
    14   10   11 1   
    15   10   12 ar  
    16   12   13 1   
@<TRIPOS>SUBSTRUCTURE
     1 K17         1 TEMP              0 ****  ****    0 ROOT
