@<TRIPOS>MOLECULE
K17
   15    13     1     0     0
SMALL
bcc


@<TRIPOS>ATOM
      1 BR3        -3.3140    0.0090    0.4920 br        1 K17      0.094000
      2 C3         -1.4020    0.0090    0.4920 c2        1 K17     -0.150000
      3 C2         -0.8620    0.0090    1.7950 c2        1 K17     -0.114000
      4 BR2        -1.8570   -0.0450    3.4260 br        1 K17      0.112000
      5 C7         -0.5640    0.0090   -0.6010 c1        1 K17     -0.003000
      6 N8         -0.7410    0.0090   -2.1360 n3        1 K17     -0.231000
      7 C9          0.5170    0.0090   -2.6040 c2        1 K17     -0.019000
      8 N5          1.4030    0.0090   -1.7010 n1        1 K17     -0.116000
      9 C6          0.8940    0.0090   -0.4080 c1        1 K17     -0.048000
     10 C4          1.4190    0.0090    0.8700 c1        1 K17     -0.081000
     11 BR4         3.3270    0.0320    0.7550 br        1 K17      0.123000
     12 C1          0.5580    0.0090    1.9840 c2        1 K17     -0.157000
     13 BR1         1.3920    0.0110    3.7050 br        1 K17      0.109000
     14 HN8        -1.4820    0.2850   -2.5910 hn        1 K17      0.271000
     15 H9          0.7120   -0.3760   -3.4790 h5        1 K17      0.209000
@<TRIPOS>BOND
     1    1    2 1   
     2    2    3 1   
     3    2    5 1   
     4    3    4 1   
     5    3   12 1   
     6    5    6 1   
     7    6    7 1   
     8    6   14 1   
     9    7    8 1   
    10    7   15 1   
    11    9   10 1   
    12   10   12 1   
    13   12   13 1   
@<TRIPOS>SUBSTRUCTURE
     1 K17         1 TEMP              0 ****  ****    0 ROOT
