@<TRIPOS>MOLECULE
K19
   80    83     1     0     0
SMALL
bcc


@<TRIPOS>ATOM
      1 C1          1.4230    0.0220   -1.3450 cc        1 K19      0.390100
      2 N1          2.4870    0.4400   -0.6560 nd        1 K19     -0.509100
      3 S1          0.1880   -0.7450   -0.4680 ss        1 K19      0.171900
      4 C2          2.3080    0.1310    0.6810 ca        1 K19      0.214400
      5 C3          1.0550   -0.5480    0.9740 ca        1 K19     -0.201100
      6 C4          0.7460   -0.9080    2.2690 ca        1 K19      0.140000
      7 C5          1.6330   -0.6180    3.3360 ca        1 K19     -0.646500
      8 C6          2.8700    0.0470    3.0150 ca        1 K19     -0.033000
      9 C7          3.2080    0.4140    1.7430 ca        1 K19     -0.081000
     10 S8          1.3160   -0.9250    4.8090 s4        1 K19      1.695300
     11 O9          2.0970   -0.4050    5.7880 o         1 K19     -0.455900
     12 O10         0.1200   -1.4970    5.1340 o         1 K19     -0.455900
     13 N11         2.3530   -3.1460    4.8840 n7        1 K19     -0.902200
     14 C12         3.8200   -3.0950    4.8350 c3        1 K19      0.120800
     15 C13         4.5220   -2.4460    6.0410 c3        1 K19     -0.082700
     16 C14         4.9260   -3.4930    7.0580 c3        1 K19     -0.099100
     17 C15         5.7470   -1.6870    5.5360 c3        1 K19     -0.071400
     18 C16         1.8340   -3.9110    6.0180 c3        1 K19      0.104800
     19 C17         0.4330   -4.4920    5.7540 c3        1 K19      0.095100
     20 C18         6.3730   -0.8280    6.6040 c3        1 K19     -0.101100
     21 O18         0.4620   -5.5560    4.8270 oh        1 K19     -0.596800
     22 C19        -0.2280   -4.9320    7.0840 c3        1 K19      0.104500
     23 N20        -1.6070   -5.4880    6.8060 ny        1 K19     -0.636800
     24 C21        -2.5640   -4.4150    6.4060 c         1 K19      0.615100
     25 O22        -3.1110   -3.6760    7.2100 o         1 K19     -0.407000
     26 O23        -2.7270   -4.4070    5.0670 os        1 K19     -0.402900
     27 C24        -3.5990   -3.3700    4.5110 c3        1 K19      0.138100
     28 C25        -2.9260   -1.9960    4.6240 c3        1 K19      0.098400
     29 O26        -2.3540   -1.6660    3.3550 os        1 K19     -0.435600
     30 C27        -2.8250   -2.5570    2.3510 c3        1 K19      0.318900
     31 O28        -1.6360   -3.1640    1.8640 os        1 K19     -0.452600
     32 C29        -1.6900   -4.5900    2.0480 c3        1 K19      0.124400
     33 C30        -3.1020   -4.9570    2.5030 c3        1 K19     -0.098400
     34 C31        -3.7070   -3.6520    3.0040 c3        1 K19     -0.111700
     35 C32         0.6140   -5.9670    7.8450 c3        1 K19     -0.050100
     36 C33        -0.7830   -7.7330    8.9370 ca        1 K19     -0.132500
     37 C34        -1.4220   -8.2640   10.0550 ca        1 K19     -0.107500
     38 C35        -1.3880   -7.5790   11.2720 ca        1 K19     -0.086000
     39 C36        -0.7100   -6.3630   11.3680 ca        1 K19     -0.107500
     40 C37        -0.0680   -5.8300   10.2510 ca        1 K19     -0.132500
     41 C38        -0.1050   -6.5100    9.0280 ca        1 K19     -0.178300
     42 H1          1.3770    0.1830   -2.4350 h5        1 K19      0.105800
     43 H4         -0.2190   -1.4260    2.4870 ha        1 K19      0.202000
     44 H6          3.5660    0.2750    3.8470 ha        1 K19      0.173000
     45 H7          4.1590    0.9320    1.5240 ha        1 K19      0.200000
     46 H12         4.0650   -2.5050    3.9010 h1        1 K19      0.069200
     47 H12A        4.2450   -4.1310    4.6930 h1        1 K19      0.069200
     48 H13         3.8370   -1.7040    6.5420 hc        1 K19      0.070700
     49 H14         4.0310   -4.0110    7.4780 hc        1 K19      0.046367
     50 H14A        5.4710   -3.0090    7.9060 hc        1 K19      0.046367
     51 H14B        5.6020   -4.2560    6.6010 hc        1 K19      0.046367
     52 H15         5.4410   -1.0290    4.6780 hc        1 K19      0.042200
     53 H15A        6.5020   -2.4190    5.1450 hc        1 K19      0.042200
     54 H16         1.7950   -3.2180    6.9060 h1        1 K19      0.085200
     55 H16A        2.5260   -4.7670    6.2770 h1        1 K19      0.085200
     56 H17        -0.2380   -3.7210    5.2570 h1        1 K19      0.122700
     57 H18         6.8340   -1.4540    7.4070 hc        1 K19      0.050700
     58 H18A        5.6150   -0.1550    7.0720 hc        1 K19      0.050700
     59 H18B        7.1780   -0.1960    6.1560 hc        1 K19      0.050700
     60 HO18        1.1950   -6.1480    5.0480 ho        1 K19      0.430000
     61 H19        -0.3740   -4.0210    7.7410 hx        1 K19      0.127700
     62 HN20       -1.5300   -6.1810    6.0460 hn        1 K19      0.490800
     63 H24        -4.5800   -3.4250    5.0510 h1        1 K19      0.115700
     64 H25        -2.0900   -1.9850    5.3700 h1        1 K19      0.088700
     65 H25A       -3.6830   -1.2050    4.8720 h1        1 K19      0.088700
     66 H27        -3.2910   -1.9570    1.5280 h2        1 K19      0.120700
     67 H29        -0.9240   -4.8560    2.8230 h1        1 K19      0.063200
     68 H29A       -1.4210   -5.0440    1.0610 h1        1 K19      0.063200
     69 H30        -3.7030   -5.3460    1.6410 hc        1 K19      0.079700
     70 H30A       -3.0840   -5.7520    3.2860 hc        1 K19      0.079700
     71 H31        -4.7810   -3.5560    2.6990 hc        1 K19      0.119700
     72 H32         1.5550   -5.4460    8.1770 hc        1 K19      0.085700
     73 H32A        0.9110   -6.8000    7.1530 hc        1 K19      0.085700
     74 H35        -1.8850   -8.0060   12.1590 ha        1 K19      0.168000
     75 H36        -0.6700   -5.8280   12.3310 ha        1 K19      0.163500
     76 H37         0.4820   -4.8800   10.3400 ha        1 K19      0.134500
     77 H33        -0.7730   -8.3040    7.9950 ha        1 K19      0.134500
     78 H111        2.0360   -3.5910    4.0310 hn        1 K19      0.391800
     79 H202       -1.9560   -5.9490    7.6680 hn        1 K19      0.490800
     80 H34        -1.9400   -9.2350    9.9850 ha        1 K19      0.163500
@<TRIPOS>BOND
     1    1    2 2   
     2    1    3 1   
     3    1   42 1   
     4    2    4 1   
     5    3    5 1   
     6    4    5 ar  
     7    4    9 ar  
     8    5    6 ar  
     9    6    7 ar  
    10    6   43 1   
    11    7    8 ar  
    12    7   10 1   
    13    8    9 ar  
    14    8   44 1   
    15    9   45 1   
    16   10   11 1   
    17   10   12 1   
    18   13   14 1   
    19   13   18 1   
    20   13   78 1   
    21   14   15 1   
    22   14   46 1   
    23   14   47 1   
    24   15   16 1   
    25   15   17 1   
    26   15   48 1   
    27   16   49 1   
    28   16   50 1   
    29   16   51 1   
    30   17   20 1   
    31   17   52 1   
    32   17   53 1   
    33   18   19 1   
    34   18   54 1   
    35   18   55 1   
    36   19   21 1   
    37   19   22 1   
    38   19   56 1   
    39   20   57 1   
    40   20   58 1   
    41   20   59 1   
    42   21   60 1   
    43   22   23 1   
    44   22   35 1   
    45   22   61 1   
    46   23   24 1   
    47   23   62 1   
    48   23   79 1   
    49   24   25 2   
    50   24   26 1   
    51   26   27 1   
    52   27   28 1   
    53   27   34 1   
    54   27   63 1   
    55   28   29 1   
    56   28   64 1   
    57   28   65 1   
    58   29   30 1   
    59   30   31 1   
    60   30   34 1   
    61   30   66 1   
    62   31   32 1   
    63   32   33 1   
    64   32   67 1   
    65   32   68 1   
    66   33   34 1   
    67   33   69 1   
    68   33   70 1   
    69   34   71 1   
    70   35   41 1   
    71   35   72 1   
    72   35   73 1   
    73   36   37 ar  
    74   36   41 ar  
    75   36   77 1   
    76   37   38 ar  
    77   37   80 1   
    78   38   39 ar  
    79   38   74 1   
    80   39   40 ar  
    81   39   75 1   
    82   40   41 ar  
    83   40   76 1   
@<TRIPOS>SUBSTRUCTURE
     1 K19         1 TEMP              0 ****  ****    0 ROOT
