@<TRIPOS>MOLECULE
K19
   78    82     1     0     0
SMALL
bcc


@<TRIPOS>ATOM
      1 C1         -0.5360   -5.2820    0.8710 cc        1 K19      0.354100
      2 N1         -1.8540   -5.2410    0.8240 nd        1 K19     -0.527100
      3 S1          0.2760   -3.7900    1.1250 ss        1 K19      0.014900
      4 C2         -2.2780   -3.9150    1.0070 ca        1 K19      0.133400
      5 C3         -1.2060   -2.9730    1.1870 ca        1 K19     -0.128100
      6 C4         -1.4890   -1.6210    1.3800 ca        1 K19      0.051000
      7 C5         -2.8090   -1.1830    1.4070 ca        1 K19     -0.380500
      8 C6         -3.8540   -2.1170    1.2290 ca        1 K19     -0.040000
      9 C7         -3.6120   -3.4620    1.0310 ca        1 K19     -0.101000
     10 S8         -3.2000    0.4330    1.7070 sy        1 K19      1.503200
     11 O9         -4.5630    0.4990    2.0660 o         1 K19     -0.651300
     12 O10        -2.2840    0.9700    2.6400 o         1 K19     -0.651300
     13 N11        -2.9640    1.1530    0.2550 n3        1 K19     -0.801500
     14 C12        -3.8100    0.8530   -0.8720 c3        1 K19      0.216800
     15 C13        -5.1420    1.6250   -0.9270 c3        1 K19     -0.094700
     16 C14        -4.9110    3.1090   -1.1030 c3        1 K19     -0.085100
     17 C15        -5.9730    1.0620   -2.0730 c3        1 K19     -0.075400
     18 C16        -1.8930    2.0820    0.0370 c3        1 K19      0.193800
     19 C17        -0.7240    1.5310   -0.8090 c3        1 K19      0.079100
     20 C18        -7.4350    1.4040   -1.9400 c3        1 K19     -0.093100
     21 O18        -0.9510    1.6930   -2.1950 oh        1 K19     -0.591800
     22 C19         0.6140    2.1880   -0.3660 c3        1 K19      0.072700
     23 N20         1.7770    1.5070   -0.9040 n         1 K19     -0.504900
     24 C21         2.0340    0.2150   -0.4870 c         1 K19      0.737100
     25 O22         1.5430   -0.3900    0.4820 o         1 K19     -0.602000
     26 O23         2.9990   -0.4060   -1.2590 os        1 K19     -0.429900
     27 C24         3.4720   -1.6750   -0.7950 c3        1 K19      0.130100
     28 C25         3.9050   -2.4610   -2.0490 c3        1 K19      0.121400
     29 O26         5.1100   -3.1550   -1.7220 os        1 K19     -0.418600
     30 C27         5.7060   -2.6060   -0.5530 c3        1 K19      0.321900
     31 O28         6.8700   -1.9370   -1.0030 os        1 K19     -0.419600
     32 C29         6.7060   -0.5170   -0.8900 c3        1 K19      0.124400
     33 C30         5.4890   -0.2470   -0.0060 c3        1 K19     -0.104400
     34 C31         4.7370   -1.5700    0.0730 c3        1 K19     -0.131700
     35 C32         0.6230    3.6820   -0.7290 c3        1 K19     -0.043100
     36 C33         2.7810    4.9420   -0.9100 ca        1 K19     -0.122500
     37 C34         3.8370    5.6420   -0.3280 ca        1 K19     -0.125000
     38 C35         3.8850    5.8160    1.0550 ca        1 K19     -0.126000
     39 C36         2.8710    5.2890    1.8560 ca        1 K19     -0.125000
     40 C37         1.8140    4.5900    1.2770 ca        1 K19     -0.122500
     41 C38         1.7630    4.4110   -0.1110 ca        1 K19     -0.085300
     42 H1          0.0080   -6.2260    0.7520 h5        1 K19      0.066800
     43 H4         -0.6550   -0.9050    1.5180 ha        1 K19      0.175000
     44 H6         -4.8980   -1.7520    1.2700 ha        1 K19      0.162000
     45 H7         -4.4390   -4.1770    0.8980 ha        1 K19      0.160000
     46 H12        -3.2410    1.0440   -1.8280 h1        1 K19      0.056700
     47 H12A       -4.0480   -0.2530   -0.8330 h1        1 K19      0.056700
     48 H13        -5.6970    1.4560    0.0400 hc        1 K19      0.080700
     49 H14        -4.2420    3.3060   -1.9760 hc        1 K19      0.033033
     50 H14A       -5.8820    3.6330   -1.2800 hc        1 K19      0.033033
     51 H14B       -4.4440    3.5470   -0.1880 hc        1 K19      0.033033
     52 H15        -5.5780    1.4560   -3.0470 hc        1 K19      0.038700
     53 H15A       -5.8640   -0.0560   -2.1000 hc        1 K19      0.038700
     54 H16        -2.3030    2.9980   -0.4830 h1        1 K19      0.069200
     55 H16A       -1.4900    2.4070    1.0430 h1        1 K19      0.069200
     56 H17        -0.6340    0.4100   -0.6800 h1        1 K19      0.098700
     57 H18        -8.0130    0.9490   -2.7810 hc        1 K19      0.036033
     58 H18A       -7.8460    1.0140   -0.9770 hc        1 K19      0.036033
     59 H18B       -7.5920    2.5090   -1.9640 hc        1 K19      0.036033
     60 HO18       -1.1650    2.6210   -2.3530 ho        1 K19      0.399000
     61 H19         0.6770    2.0850    0.7620 h1        1 K19      0.096700
     62 HN20        2.0640    1.7520   -1.8260 hn        1 K19      0.324500
     63 H24         2.6560   -2.2080   -0.2370 h1        1 K19      0.090700
     64 H25         3.1590   -3.2430   -2.3330 h1        1 K19      0.065200
     65 H25A        4.1030   -1.7750   -2.9110 h1        1 K19      0.065200
     66 H27         6.0280   -3.4610    0.0920 h2        1 K19      0.101700
     67 H29         7.6570   -0.1310   -0.4460 h1        1 K19      0.051700
     68 H29A        6.5700   -0.1040   -1.9220 h1        1 K19      0.051700
     69 H30         5.8100    0.0750    1.0160 hc        1 K19      0.066700
     70 H30A        4.8560    0.5670   -0.4380 hc        1 K19      0.066700
     71 H31         4.4920   -1.8270    1.1320 hc        1 K19      0.085700
     72 H32         0.6420    3.8050   -1.8450 hc        1 K19      0.057200
     73 H32A       -0.3410    4.1230   -0.3560 hc        1 K19      0.057200
     74 H34         4.6340    6.0570   -0.9630 ha        1 K19      0.134500
     75 H35         4.7180    6.3680    1.5130 ha        1 K19      0.134000
     76 H36         2.9050    5.4240    2.9470 ha        1 K19      0.134500
     77 H37         1.0160    4.1750    1.9120 ha        1 K19      0.132000
     78 H33         2.7500    4.8090   -2.0020 ha        1 K19      0.132000
@<TRIPOS>BOND
     1    1    2 2   
     2    1    3 1   
     3    1   42 1   
     4    2    4 1   
     5    3    5 1   
     6    4    5 ar  
     7    4    9 ar  
     8    5    6 ar  
     9    6    7 ar  
    10    6   43 1   
    11    7    8 ar  
    12    7   10 1   
    13    8    9 ar  
    14    8   44 1   
    15    9   45 1   
    16   10   11 2   
    17   10   12 2   
    18   10   13 1   
    19   13   14 1   
    20   13   18 1   
    21   14   15 1   
    22   14   46 1   
    23   14   47 1   
    24   15   16 1   
    25   15   17 1   
    26   15   48 1   
    27   16   49 1   
    28   16   50 1   
    29   16   51 1   
    30   17   20 1   
    31   17   52 1   
    32   17   53 1   
    33   18   19 1   
    34   18   54 1   
    35   18   55 1   
    36   19   21 1   
    37   19   22 1   
    38   19   56 1   
    39   20   57 1   
    40   20   58 1   
    41   20   59 1   
    42   21   60 1   
    43   22   23 1   
    44   22   35 1   
    45   22   61 1   
    46   23   24 1   
    47   23   62 1   
    48   24   25 2   
    49   24   26 1   
    50   26   27 1   
    51   27   28 1   
    52   27   34 1   
    53   27   63 1   
    54   28   29 1   
    55   28   64 1   
    56   28   65 1   
    57   29   30 1   
    58   30   31 1   
    59   30   34 1   
    60   30   66 1   
    61   31   32 1   
    62   32   33 1   
    63   32   67 1   
    64   32   68 1   
    65   33   34 1   
    66   33   69 1   
    67   33   70 1   
    68   34   71 1   
    69   35   41 1   
    70   35   72 1   
    71   35   73 1   
    72   36   37 ar  
    73   36   41 ar  
    74   36   78 1   
    75   37   38 ar  
    76   37   74 1   
    77   38   39 ar  
    78   38   75 1   
    79   39   40 ar  
    80   39   76 1   
    81   40   41 ar  
    82   40   77 1   
@<TRIPOS>SUBSTRUCTURE
     1 K19         1 TEMP              0 ****  ****    0 ROOT
