@<TRIPOS>MOLECULE
K19
   80    83     1     0     0
SMALL
bcc


@<TRIPOS>ATOM
      1 C1          2.0340    3.0350    0.4660 cc        1 K19      0.402100
      2 N1          3.2040    2.6600    0.9800 nd        1 K19     -0.510100
      3 S1          0.6310    2.5240    1.2840 ss        1 K19      0.145900
      4 C2          2.9770    1.9050    2.1210 ca        1 K19      0.217400
      5 C3          1.5700    1.7210    2.4420 ca        1 K19     -0.194100
      6 C4          1.2080    0.9930    3.5540 ca        1 K19      0.128000
      7 C5          2.1840    0.4200    4.4060 ca        1 K19     -0.626500
      8 C6          3.5650    0.6210    4.0660 ca        1 K19     -0.018000
      9 C7          3.9620    1.3340    2.9660 ca        1 K19     -0.083000
     10 S8          1.8090   -0.3330    5.7040 s4        1 K19      1.679300
     11 O9          2.7950   -0.7480    6.5400 o         1 K19     -0.442400
     12 O10         0.5120   -0.2710    6.1200 o         1 K19     -0.442400
     13 N11         1.3470   -2.6250    4.9610 n3        1 K19     -0.896200
     14 C12         2.3050   -3.2980    4.0770 c3        1 K19      0.119800
     15 C13         3.7920   -3.0300    4.3470 c3        1 K19     -0.068700
     16 C14         4.2580   -3.6010    5.6680 c3        1 K19     -0.106100
     17 C15         4.5920   -3.6220    3.1880 c3        1 K19     -0.079400
     18 C16         1.0380   -3.3470    6.1920 c3        1 K19      0.100800
     19 C17         0.2340   -4.6460    6.0040 c3        1 K19      0.088100
     20 C18         5.9650   -3.0120    3.0720 c3        1 K19     -0.097100
     21 O18         1.0230   -5.7630    5.6600 oh        1 K19     -0.595800
     22 C19        -0.5940   -4.9660    7.2770 c3        1 K19      0.104500
     23 N20        -1.5320   -6.1250    6.9980 n4        1 K19     -0.640800
     24 C21        -2.7130   -5.6680    6.2100 c         1 K19      0.614100
     25 O22        -3.7860   -5.3900    6.7210 o         1 K19     -0.391000
     26 O23        -2.4310   -5.6420    4.8860 os        1 K19     -0.407900
     27 C24        -3.1950   -4.6950    4.0750 c3        1 K19      0.134100
     28 C25        -2.9360   -3.2610    4.5670 c3        1 K19      0.093400
     29 O26        -1.7700   -2.7840    3.8850 os        1 K19     -0.448600
     30 C27        -1.6210   -3.4980    2.6550 c3        1 K19      0.316900
     31 O28        -0.2820   -3.9600    2.7210 os        1 K19     -0.456600
     32 C29        -0.2350   -5.3830    2.4850 c3        1 K19      0.118400
     33 C30        -1.6650   -5.9050    2.3390 c3        1 K19     -0.101400
     34 C31        -2.5700   -4.7270    2.6700 c3        1 K19     -0.110700
     35 C32         0.3030   -5.2910    8.4790 c3        1 K19     -0.050100
     36 C33        -0.6390   -7.0560    9.9830 ca        1 K19     -0.133000
     37 C34        -1.3520   -7.4380   11.1170 ca        1 K19     -0.107500
     38 C35        -1.9210   -6.4690   11.9460 ca        1 K19     -0.087000
     39 C36        -1.7720   -5.1160   11.6400 ca        1 K19     -0.107500
     40 C37        -1.0570   -4.7290   10.5060 ca        1 K19     -0.133000
     41 C38        -0.4910   -5.6980    9.6690 ca        1 K19     -0.174300
     42 H1          2.0030    3.6520   -0.4480 h5        1 K19      0.105800
     43 H4          0.1360    0.8580    3.8040 ha        1 K19      0.170000
     44 H6          4.3350    0.1920    4.7380 ha        1 K19      0.175000
     45 H7          5.0320    1.4810    2.7310 ha        1 K19      0.200000
     46 H12         2.1330   -4.4140    4.0920 h1        1 K19      0.076200
     47 H12A        2.0690   -2.9520    3.0260 h1        1 K19      0.076200
     48 H13         3.9630   -1.9160    4.3610 hc        1 K19      0.030700
     49 H14         5.3750   -3.6680    5.6860 hc        1 K19      0.047700
     50 H14A        3.8510   -4.6300    5.8220 hc        1 K19      0.047700
     51 H14B        3.9460   -2.9450    6.5180 hc        1 K19      0.047700
     52 H15         4.6810   -4.7310    3.3340 hc        1 K19      0.051200
     53 H15A        4.0400   -3.4570    2.2240 hc        1 K19      0.051200
     54 H16         0.4300   -2.6460    6.8370 h1        1 K19      0.090200
     55 H16A        1.9990   -3.5820    6.7330 h1        1 K19      0.090200
     56 H17        -0.4710   -4.5260    5.1170 h1        1 K19      0.121700
     57 H18         6.5690   -3.1920    3.9940 hc        1 K19      0.046033
     58 H18A        6.5080   -3.4650    2.2070 hc        1 K19      0.046033
     59 H18B        5.8980   -1.9100    2.9060 hc        1 K19      0.046033
     60 HO18        1.8550   -5.7290    6.1550 ho        1 K19      0.433000
     61 H19        -1.2470   -4.0780    7.5340 hx        1 K19      0.114700
     62 HN20       -1.8570   -6.5180    7.9010 hn        1 K19      0.492300
     63 H24        -4.2720   -4.9990    4.1100 h1        1 K19      0.126700
     64 H25        -3.8010   -2.5950    4.3120 h1        1 K19      0.082700
     65 H25A       -2.7120   -3.2000    5.6620 h1        1 K19      0.082700
     66 H27        -1.7350   -2.7850    1.8020 h2        1 K19      0.114700
     67 H29         0.3670   -5.5320    1.5520 h1        1 K19      0.072200
     68 H29A        0.2960   -5.8310    3.3650 h1        1 K19      0.072200
     69 H30        -1.8460   -6.7800    3.0090 hc        1 K19      0.085700
     70 H30A       -1.8500   -6.2460    1.2880 hc        1 K19      0.085700
     71 H31        -3.3940   -4.6230    1.9180 hc        1 K19      0.120700
     72 H32         0.8920   -4.3600    8.7070 hc        1 K19      0.087200
     73 H32A        1.0360   -6.0980    8.2040 hc        1 K19      0.087200
     74 H35        -2.4780   -6.7730   12.8480 ha        1 K19      0.167000
     75 H36        -2.2080   -4.3490   12.3010 ha        1 K19      0.162500
     76 H37        -0.9250   -3.6600   10.2820 ha        1 K19      0.134000
     77 H33        -0.1520   -7.8250    9.3630 ha        1 K19      0.134000
     78 H111        0.4790   -2.5260    4.4370 hn        1 K19      0.414800
     79 H202       -1.0140   -6.8420    6.4690 hn        1 K19      0.492300
     80 H34        -1.4540   -8.5070   11.3690 ha        1 K19      0.162500
@<TRIPOS>BOND
     1    1    2 2   
     2    1    3 1   
     3    1   42 1   
     4    2    4 1   
     5    3    5 1   
     6    4    5 ar  
     7    4    9 ar  
     8    5    6 ar  
     9    6    7 ar  
    10    6   43 1   
    11    7    8 ar  
    12    7   10 1   
    13    8    9 ar  
    14    8   44 1   
    15    9   45 1   
    16   10   11 1   
    17   10   12 1   
    18   13   14 1   
    19   13   18 1   
    20   13   78 1   
    21   14   15 1   
    22   14   46 1   
    23   14   47 1   
    24   15   16 1   
    25   15   17 1   
    26   15   48 1   
    27   16   49 1   
    28   16   50 1   
    29   16   51 1   
    30   17   20 1   
    31   17   52 1   
    32   17   53 1   
    33   18   19 1   
    34   18   54 1   
    35   18   55 1   
    36   19   21 1   
    37   19   22 1   
    38   19   56 1   
    39   20   57 1   
    40   20   58 1   
    41   20   59 1   
    42   21   60 1   
    43   22   23 1   
    44   22   35 1   
    45   22   61 1   
    46   23   24 1   
    47   23   62 1   
    48   23   79 1   
    49   24   25 2   
    50   24   26 1   
    51   26   27 1   
    52   27   28 1   
    53   27   34 1   
    54   27   63 1   
    55   28   29 1   
    56   28   64 1   
    57   28   65 1   
    58   29   30 1   
    59   30   31 1   
    60   30   34 1   
    61   30   66 1   
    62   31   32 1   
    63   32   33 1   
    64   32   67 1   
    65   32   68 1   
    66   33   34 1   
    67   33   69 1   
    68   33   70 1   
    69   34   71 1   
    70   35   41 1   
    71   35   72 1   
    72   35   73 1   
    73   36   37 ar  
    74   36   41 ar  
    75   36   77 1   
    76   37   38 ar  
    77   37   80 1   
    78   38   39 ar  
    79   38   74 1   
    80   39   40 ar  
    81   39   75 1   
    82   40   41 ar  
    83   40   76 1   
@<TRIPOS>SUBSTRUCTURE
     1 K19         1 TEMP              0 ****  ****    0 ROOT
