@<TRIPOS>MOLECULE
K19
   80    83     1     0     0
SMALL
bcc


@<TRIPOS>ATOM
      1 C1          2.1810    2.8860    0.3050 cc        1 K19      0.402100
      2 N1          3.3400    2.5040    0.8380 nd        1 K19     -0.510100
      3 S1          0.7630    2.4210    1.1240 ss        1 K19      0.145900
      4 C2          3.0910    1.7830    1.9960 ca        1 K19      0.217400
      5 C3          1.6790    1.6310    2.3100 ca        1 K19     -0.194100
      6 C4          1.2950    0.9380    3.4380 ca        1 K19      0.128000
      7 C5          2.2540    0.3710    4.3110 ca        1 K19     -0.626500
      8 C6          3.6410    0.5380    3.9780 ca        1 K19     -0.018000
      9 C7          4.0590    1.2160    2.8640 ca        1 K19     -0.083000
     10 S8          1.8570   -0.3420    5.6260 s4        1 K19      1.679300
     11 O9          2.8290   -0.7540    6.4800 o         1 K19     -0.442400
     12 O10         0.5580   -0.2450    6.0300 o         1 K19     -0.442400
     13 N11         1.3570   -2.6450    4.9400 n3        1 K19     -0.896200
     14 C12         2.3050   -3.3560    4.0760 c3        1 K19      0.119800
     15 C13         3.7950   -3.1070    4.3410 c3        1 K19     -0.068700
     16 C14         4.2510   -3.6500    5.6770 c3        1 K19     -0.106100
     17 C15         4.5860   -3.7440    3.2000 c3        1 K19     -0.079400
     18 C16         1.0340   -3.3290    6.1890 c3        1 K19      0.100800
     19 C17         0.2090   -4.6190    6.0340 c3        1 K19      0.088100
     20 C18         5.9700   -3.1600    3.0690 c3        1 K19     -0.097100
     21 O18         0.9790   -5.7570    5.7210 oh        1 K19     -0.595800
     22 C19        -0.6260   -4.8910    7.3140 c3        1 K19      0.104500
     23 N20        -1.5830   -6.0410    7.0630 n4        1 K19     -0.640800
     24 C21        -2.7550   -5.5850    6.2610 c         1 K19      0.614100
     25 O22        -3.8240   -5.2750    6.7620 o         1 K19     -0.391000
     26 O23        -2.4710   -5.5980    4.9380 os        1 K19     -0.407900
     27 C24        -3.2180   -4.6600    4.1000 c3        1 K19      0.134100
     28 C25        -2.9350   -3.2190    4.5550 c3        1 K19      0.093400
     29 O26        -1.7600   -2.7800    3.8630 os        1 K19     -0.448600
     30 C27        -1.6220   -3.5290    2.6530 c3        1 K19      0.316900
     31 O28        -0.2910   -4.0110    2.7330 os        1 K19     -0.456600
     32 C29        -0.2680   -5.4400    2.5340 c3        1 K19      0.118400
     33 C30        -1.7060   -5.9420    2.4000 c3        1 K19     -0.101400
     34 C31        -2.5910   -4.7400    2.6970 c3        1 K19     -0.110700
     35 C32         0.2640   -5.2000    8.5250 c3        1 K19     -0.050100
     36 C33        -0.7090   -6.9100   10.0720 ca        1 K19     -0.133000
     37 C34        -1.4300   -7.2510   11.2150 ca        1 K19     -0.107500
     38 C35        -1.9840   -6.2510   12.0170 ca        1 K19     -0.087000
     39 C36        -1.8110   -4.9090   11.6770 ca        1 K19     -0.107500
     40 C37        -1.0890   -4.5640   10.5350 ca        1 K19     -0.133000
     41 C38        -0.5380   -5.5620    9.7240 ca        1 K19     -0.174300
     42 H1          2.1680    3.4800   -0.6250 h5        1 K19      0.105800
     43 H4          0.2190    0.8290    3.6830 ha        1 K19      0.170000
     44 H6          4.3980    0.1130    4.6670 ha        1 K19      0.175000
     45 H7          5.1330    1.3380    2.6340 ha        1 K19      0.200000
     46 H12         2.0750   -3.0340    3.0160 h1        1 K19      0.076200
     47 H12A        2.1140   -4.4690    4.1200 h1        1 K19      0.076200
     48 H13         3.9860   -1.9960    4.3240 hc        1 K19      0.030700
     49 H14         3.8260   -4.6670    5.8580 hc        1 K19      0.047700
     50 H14A        3.9480   -2.9660    6.5080 hc        1 K19      0.047700
     51 H14B        5.3660   -3.7340    5.6990 hc        1 K19      0.047700
     52 H15         4.6570   -4.8500    3.3760 hc        1 K19      0.051200
     53 H15A        4.0380   -3.5960    2.2310 hc        1 K19      0.051200
     54 H16         0.4370   -2.6010    6.8140 h1        1 K19      0.090200
     55 H16A        1.9910   -3.5650    6.7370 h1        1 K19      0.090200
     56 H17        -0.4930   -4.5100    5.1430 h1        1 K19      0.121700
     57 H18         5.9210   -2.0620    2.8710 hc        1 K19      0.046033
     58 H18A        6.5060   -3.6460    2.2170 hc        1 K19      0.046033
     59 H18B        6.5700   -3.3250    3.9960 hc        1 K19      0.046033
     60 HO18        1.8110   -5.7240    6.2160 ho        1 K19      0.433000
     61 H19        -1.2640   -3.9860    7.5460 hx        1 K19      0.114700
     62 HN20       -1.0770   -6.7800    6.5540 hn        1 K19      0.492300
     63 H24        -4.3000   -4.9450    4.1420 h1        1 K19      0.126700
     64 H25        -3.7880   -2.5460    4.2800 h1        1 K19      0.082700
     65 H25A       -2.7120   -3.1330    5.6480 h1        1 K19      0.082700
     66 H27        -1.7230   -2.8360    1.7800 h2        1 K19      0.114700
     67 H29         0.3330   -5.6250    1.6080 h1        1 K19      0.072200
     68 H29A        0.2550   -5.8740    3.4270 h1        1 K19      0.072200
     69 H30        -1.9030   -6.7960    3.0920 hc        1 K19      0.085700
     70 H30A       -1.8950   -6.3070    1.3570 hc        1 K19      0.085700
     71 H31        -3.4130   -4.6420    1.9420 hc        1 K19      0.120700
     72 H32         0.8680   -4.2730    8.7300 hc        1 K19      0.087200
     73 H32A        0.9830   -6.0260    8.2720 hc        1 K19      0.087200
     74 H35        -2.5460   -6.5220   12.9260 ha        1 K19      0.167000
     75 H36        -2.2360   -4.1180   12.3170 ha        1 K19      0.162500
     76 H37        -0.9390   -3.5030   10.2840 ha        1 K19      0.134000
     77 H33        -0.2350   -7.7020    9.4730 ha        1 K19      0.134000
     78 H111        0.4920   -2.5440    4.4130 hn        1 K19      0.414800
     79 H202       -1.9160   -6.4050    7.9760 hn        1 K19      0.492300
     80 H34        -1.5500   -8.3100   11.4930 ha        1 K19      0.162500
@<TRIPOS>BOND
     1    1    2 2   
     2    1    3 1   
     3    1   42 1   
     4    2    4 1   
     5    3    5 1   
     6    4    5 ar  
     7    4    9 ar  
     8    5    6 ar  
     9    6    7 ar  
    10    6   43 1   
    11    7    8 ar  
    12    7   10 1   
    13    8    9 ar  
    14    8   44 1   
    15    9   45 1   
    16   10   11 1   
    17   10   12 1   
    18   13   14 1   
    19   13   18 1   
    20   13   78 1   
    21   14   15 1   
    22   14   46 1   
    23   14   47 1   
    24   15   16 1   
    25   15   17 1   
    26   15   48 1   
    27   16   49 1   
    28   16   50 1   
    29   16   51 1   
    30   17   20 1   
    31   17   52 1   
    32   17   53 1   
    33   18   19 1   
    34   18   54 1   
    35   18   55 1   
    36   19   21 1   
    37   19   22 1   
    38   19   56 1   
    39   20   57 1   
    40   20   58 1   
    41   20   59 1   
    42   21   60 1   
    43   22   23 1   
    44   22   35 1   
    45   22   61 1   
    46   23   24 1   
    47   23   62 1   
    48   23   79 1   
    49   24   25 2   
    50   24   26 1   
    51   26   27 1   
    52   27   28 1   
    53   27   34 1   
    54   27   63 1   
    55   28   29 1   
    56   28   64 1   
    57   28   65 1   
    58   29   30 1   
    59   30   31 1   
    60   30   34 1   
    61   30   66 1   
    62   31   32 1   
    63   32   33 1   
    64   32   67 1   
    65   32   68 1   
    66   33   34 1   
    67   33   69 1   
    68   33   70 1   
    69   34   71 1   
    70   35   41 1   
    71   35   72 1   
    72   35   73 1   
    73   36   37 ar  
    74   36   41 ar  
    75   36   77 1   
    76   37   38 ar  
    77   37   80 1   
    78   38   39 ar  
    79   38   74 1   
    80   39   40 ar  
    81   39   75 1   
    82   40   41 ar  
    83   40   76 1   
@<TRIPOS>SUBSTRUCTURE
     1 K19         1 TEMP              0 ****  ****    0 ROOT
