@<TRIPOS>MOLECULE
K1R
   30    29     1     0     0
SMALL
bcc


@<TRIPOS>ATOM
      1 N1         -0.7820    1.0290    0.8030 n3        1 K1R     -0.893800
      2 CA1         0.1470    0.7780   -0.2910 c3        1 K1R      0.027500
      3 C1          1.2590    1.8680   -0.4540 c         1 K1R      0.886600
      4 O11         2.0540    1.7610   -1.4280 o         1 K1R     -0.849800
      5 O12         1.3260    2.7870    0.4150 o         1 K1R     -0.849800
      6 CB1        -0.5390    0.5770   -1.6450 c3        1 K1R     -0.042400
      7 CG1        -1.4610   -0.6200   -1.6620 c3        1 K1R     -0.108100
      8 OE1        -1.2890   -2.1730   -3.6970 o         1 K1R     -0.544200
      9 N2         -7.1640    0.9930   -4.7560 n3        1 K1R     -0.893800
     10 CA2        -6.6590   -0.1460   -5.5110 c3        1 K1R      0.040500
     11 C2         -7.5530   -1.4290   -5.4210 c         1 K1R      0.890600
     12 SAG        -1.9860   -0.8950   -3.3260 s4        1 K1R      0.422800
     13 NAF        -3.5740   -1.2780   -3.2030 n3        1 K1R     -0.599000
     14 O2         -8.7260   -1.2980   -4.9650 o         1 K1R     -0.844300
     15 O21        -7.0810   -2.5140   -5.8600 o         1 K1R     -0.844300
     16 CB2        -5.1970   -0.4810   -5.2350 c3        1 K1R     -0.048300
     17 SG2        -4.7230   -0.1910   -3.5390 ss        1 K1R      0.001200
     18 H1N1       -1.4810    1.6790    0.4920 hn        1 K1R      0.330300
     19 H1N2       -0.2650    1.4930    1.5330 hn        1 K1R      0.330300
     20 HA1         0.6870   -0.1800   -0.0290 h1        1 K1R      0.042700
     21 HB11        0.2810    0.4500   -2.4040 hc        1 K1R      0.049200
     22 HB12       -1.1130    1.5020   -1.9170 hc        1 K1R      0.049200
     23 HG11       -0.9130   -1.5120   -1.2670 h1        1 K1R      0.086200
     24 HG12       -2.3170   -0.4390   -0.9680 h1        1 K1R      0.086200
     25 HA2        -6.7170    0.1590   -6.6010 h1        1 K1R      0.037700
     26 HA         -3.8670   -2.1930   -2.9640 hn        1 K1R      0.426800
     27 HB21       -4.5400    0.1500   -5.8820 h1        1 K1R      0.067200
     28 HB22       -5.0430   -1.5550   -5.5170 h1        1 K1R      0.067200
     29 H2N1       -8.1690    0.9810   -4.8430 hn        1 K1R      0.337300
     30 H2N2       -6.9650    0.8530   -3.7800 hn        1 K1R      0.337300
@<TRIPOS>BOND
     1    1    2 1   
     2    1   18 1   
     3    1   19 1   
     4    2    3 1   
     5    2    6 1   
     6    2   20 1   
     7    3    4 1   
     8    3    5 1   
     9    6    7 1   
    10    6   21 1   
    11    6   22 1   
    12    7   12 1   
    13    7   23 1   
    14    7   24 1   
    15    8   12 2   
    16    9   10 1   
    17    9   29 1   
    18    9   30 1   
    19   10   11 1   
    20   10   16 1   
    21   10   25 1   
    22   11   14 1   
    23   11   15 1   
    24   12   13 1   
    25   13   17 1   
    26   13   26 1   
    27   16   17 1   
    28   16   27 1   
    29   16   28 1   
@<TRIPOS>SUBSTRUCTURE
     1 K1R         1 TEMP              0 ****  ****    0 ROOT
