@<TRIPOS>MOLECULE
K1R
   30    29     1     0     0
SMALL
bcc


@<TRIPOS>ATOM
      1 N1         -3.4240   -1.8870    3.7790 n3        1 K1R     -0.891800
      2 CA1        -2.0740   -2.1400    3.4100 c3        1 K1R      0.028500
      3 C1         -1.2760   -2.5090    4.6390 c         1 K1R      0.886600
      4 O11        -1.2570   -1.7350    5.6330 o         1 K1R     -0.849300
      5 O12        -0.6290   -3.5880    4.6700 o         1 K1R     -0.849300
      6 CB1        -1.4840   -0.9010    2.7780 c3        1 K1R     -0.043400
      7 CG1        -1.0630   -1.2100    1.3580 c3        1 K1R     -0.125100
      8 OE1        -1.0360    1.5490    0.9820 o         1 K1R     -0.512200
      9 N2          2.9790    1.7460   -4.9750 n3        1 K1R     -0.888800
     10 CA2         1.9370    2.0350   -4.0510 c3        1 K1R      0.032500
     11 C2          2.1410    3.4200   -3.4790 c         1 K1R      0.891600
     12 SAG        -0.5090    0.2780    0.5690 s4        1 K1R      0.421800
     13 NAF         0.6090    0.2040   -0.6310 n3        1 K1R     -0.598000
     14 O2          3.2980    3.8110   -3.1740 o         1 K1R     -0.843800
     15 O21         1.1540    4.1810   -3.3070 o         1 K1R     -0.843800
     16 CB2         1.9590    1.0200   -2.9320 c3        1 K1R     -0.029300
     17 SG2         0.6270    1.3480   -1.8090 ss        1 K1R     -0.017800
     18 H1N1       -3.9400   -1.8220    3.0250 hn        1 K1R      0.329800
     19 H1N2       -3.7320   -2.5740    4.3010 hn        1 K1R      0.329800
     20 HA1        -2.0450   -2.8780    2.7690 h1        1 K1R      0.042700
     21 HB11       -0.7040   -0.6120    3.2940 hc        1 K1R      0.044700
     22 HB12       -2.1530   -0.1880    2.7720 hc        1 K1R      0.044700
     23 HG11       -0.3360   -1.8640    1.3690 h1        1 K1R      0.087700
     24 HG12       -1.8240   -1.5760    0.8650 h1        1 K1R      0.087700
     25 H2N1        2.9030    2.2960   -5.7030 hn        1 K1R      0.331300
     26 H2N2        2.9150    0.8720   -5.2430 hn        1 K1R      0.331300
     27 HA2         1.0750    1.9960   -4.5090 h1        1 K1R      0.056700
     28 HA          1.2210   -0.4720   -0.6430 hn        1 K1R      0.415800
     29 HB21        1.8580    0.1210   -3.3050 h1        1 K1R      0.065200
     30 HB22        2.8110    1.0800   -2.4540 h1        1 K1R      0.065200
@<TRIPOS>BOND
     1    1    2 1   
     2    1   18 1   
     3    1   19 1   
     4    2    3 1   
     5    2    6 1   
     6    2   20 1   
     7    3    4 1   
     8    3    5 1   
     9    6    7 1   
    10    6   21 1   
    11    6   22 1   
    12    7   12 1   
    13    7   23 1   
    14    7   24 1   
    15    8   12 2   
    16    9   10 1   
    17    9   25 1   
    18    9   26 1   
    19   10   11 1   
    20   10   16 1   
    21   10   27 1   
    22   11   14 1   
    23   11   15 1   
    24   12   13 1   
    25   13   17 1   
    26   13   28 1   
    27   16   17 1   
    28   16   29 1   
    29   16   30 1   
@<TRIPOS>SUBSTRUCTURE
     1 K1R         1 TEMP              0 ****  ****    0 ROOT
