@<TRIPOS>MOLECULE
K1T
   53    52     1     0     0
SMALL
bcc


@<TRIPOS>ATOM
      1 C1         -5.1270   -0.8540    1.3650 c3        1 K1T     -0.089100
      2 C2         -3.5270   -0.8680    1.2100 c3        1 K1T     -0.084700
      3 C3         -2.8840   -0.6650    2.5630 c3        1 K1T     -0.089100
      4 C4         -3.0960    0.2520    0.2670 c3        1 K1T     -0.057400
      5 C5         -1.6470    0.0270   -0.1640 c3        1 K1T     -0.097700
      6 C7         -1.6130   -0.8410   -1.4440 c3        1 K1T     -0.039200
      7 C8         -0.2720   -1.6280   -1.4990 ce        1 K1T     -0.137300
      8 C9         -0.2830   -3.0070   -1.7010 c1        1 K1T      0.006100
      9 C10         0.9110   -3.6940   -1.8710 c1        1 K1T      0.047600
     10 C11         2.1110   -3.0120   -1.8410 ch        1 K1T     -0.048300
     11 C12         2.1240   -1.6290   -1.6390 cf        1 K1T     -0.115700
     12 C13         0.9300   -0.9420   -1.4690 ce        1 K1T     -0.159000
     13 O14         3.1650   -3.9690   -2.0080 o         1 K1T     -0.401500
     14 C15         2.5800   -5.2130   -2.2770 c3        1 K1T      0.407900
     15 O16         1.1860   -5.0600   -2.1830 os        1 K1T     -0.295400
     16 C17        -1.5760   -3.7210   -1.8750 c         1 K1T      0.903600
     17 O18        -2.2460   -4.0440   -0.8750 o         1 K1T     -0.815300
     18 O19        -1.9270   -4.1110   -3.0150 o         1 K1T     -0.815300
     19 C20        -1.0030    1.3460   -0.4400 c3        1 K1T      0.092000
     20 N21         0.0170    1.5900    0.5230 n         1 K1T     -0.549900
     21 C22         0.8710    2.7410    0.3890 c         1 K1T      0.650100
     22 O23         0.4780    3.7250   -0.2220 o         1 K1T     -0.642100
     23 C24         2.3390    2.6860    0.9230 c3        1 K1T     -0.151400
     24 C25         2.8890    4.0940    1.0400 c3        1 K1T     -0.112400
     25 C26         4.3300    4.0440    1.6280 c3        1 K1T      0.143800
     26 N27         4.8350    5.3860    1.7660 n3        1 K1T     -0.903800
     27 H1         -5.3860   -0.1990    2.0510 hc        1 K1T      0.029033
     28 H1A        -5.4420   -1.7600    1.6360 hc        1 K1T      0.029033
     29 H1B        -5.5370   -0.6080    0.5070 hc        1 K1T      0.029033
     30 H2         -3.2460   -1.7240    0.8430 hc        1 K1T      0.107700
     31 H3         -1.9250   -0.8740    2.5050 hc        1 K1T      0.029033
     32 H3A        -3.0000    0.2820    2.8480 hc        1 K1T      0.029033
     33 H3B        -3.3040   -1.2530    3.2130 hc        1 K1T      0.029033
     34 H4         -3.6700    0.2550   -0.5140 hc        1 K1T      0.023700
     35 H4A        -3.1680    1.1120    0.7260 hc        1 K1T      0.023700
     36 H5         -1.1530   -0.4390    0.5660 hc        1 K1T      0.118700
     37 H7         -1.6870   -0.2540   -2.2460 hc        1 K1T      0.057700
     38 H7A        -2.3700   -1.4790   -1.4310 hc        1 K1T      0.057700
     39 H12         2.9570   -1.1430   -1.6880 ha        1 K1T      0.132000
     40 H13         0.9320    0.0340   -1.4310 ha        1 K1T      0.122000
     41 H15         2.8120   -5.4860   -3.1800 h2        1 K1T      0.052200
     42 H15A        2.8790   -5.8590   -1.6060 h2        1 K1T      0.052200
     43 H20        -1.6860    2.0650   -0.3870 h1        1 K1T      0.042700
     44 H20A       -0.6100    1.3370   -1.3340 h1        1 K1T      0.042700
     45 HN21        0.1190    1.0320    1.2230 hn        1 K1T      0.325500
     46 H24         2.3500    2.2530    1.8110 hc        1 K1T      0.067200
     47 H24A        2.8920    2.1690    0.3010 hc        1 K1T      0.067200
     48 H25         2.3150    4.6190    1.6320 hc        1 K1T      0.053700
     49 H25A        2.9130    4.5160    0.1440 hc        1 K1T      0.053700
     50 H26         4.9190    3.5300    1.0190 h1        1 K1T      0.050700
     51 H26A        4.3100    3.6070    2.5140 h1        1 K1T      0.050700
     52 HN27        5.0090    5.7330    0.9380 hn        1 K1T      0.339800
     53 HN2A        4.2110    5.9050    2.1900 hn        1 K1T      0.339800
@<TRIPOS>BOND
     1    1    2 1   
     2    1   27 1   
     3    1   28 1   
     4    1   29 1   
     5    2    3 1   
     6    2    4 1   
     7    2   30 1   
     8    3   31 1   
     9    3   32 1   
    10    3   33 1   
    11    4    5 1   
    12    4   34 1   
    13    4   35 1   
    14    5    6 1   
    15    5   19 1   
    16    5   36 1   
    17    6    7 1   
    18    6   37 1   
    19    6   38 1   
    20    7    8 2   
    21    7   12 1   
    22    8   16 2   
    23    9   10 3   
    24    9   15 1   
    25   10   11 1   
    26   11   12 2   
    27   11   39 1   
    28   12   40 1   
    29   13   14 1   
    30   14   15 1   
    31   14   41 1   
    32   14   42 1   
    33   16   17 1   
    34   16   18 1   
    35   19   20 1   
    36   19   43 1   
    37   19   44 1   
    38   20   21 1   
    39   20   45 1   
    40   21   22 2   
    41   21   23 1   
    42   23   24 1   
    43   23   46 1   
    44   23   47 1   
    45   24   25 1   
    46   24   48 1   
    47   24   49 1   
    48   25   26 1   
    49   25   50 1   
    50   25   51 1   
    51   26   52 1   
    52   26   53 1   
@<TRIPOS>SUBSTRUCTURE
     1 K1T         1 TEMP              0 ****  ****    0 ROOT
