@<TRIPOS>MOLECULE
K1T
   55    56     1     0     0
SMALL
bcc


@<TRIPOS>ATOM
      1 C1         -0.1330   -1.4230    0.2710 c3        1 K1T     -0.096100
      2 C2          1.0440   -0.4760    0.1800 c3        1 K1T     -0.067700
      3 C3          1.5230   -0.0970    1.5680 c3        1 K1T     -0.096100
      4 C4          2.2010   -1.0720   -0.6100 c3        1 K1T     -0.076400
      5 C5          1.8470   -1.4500   -2.0410 c3        1 K1T     -0.082700
      6 C7          1.3720   -0.2290   -2.8160 c3        1 K1T     -0.043100
      7 C8          1.3420   -0.3390   -4.3030 ca        1 K1T     -0.016300
      8 C9          0.4980   -1.2590   -4.9820 ca        1 K1T     -0.155600
      9 C10         0.5250   -1.2080   -6.3700 ca        1 K1T      0.089100
     10 C11         1.3270   -0.2840   -7.0860 ca        1 K1T      0.056100
     11 C12         2.1490    0.6120   -6.4350 ca        1 K1T     -0.062000
     12 C13         2.1370    0.5550   -5.0310 ca        1 K1T     -0.140000
     13 O14         1.1320   -0.4630   -8.4500 os        1 K1T     -0.313900
     14 C15         0.1620   -1.5240   -8.6030 c3        1 K1T      0.327200
     15 O16        -0.1810   -1.9930   -7.2700 os        1 K1T     -0.355900
     16 C17        -0.3590   -2.2320   -4.3010 c         1 K1T      0.711700
     17 O18        -0.8970   -2.1670   -3.1840 o         1 K1T     -0.579000
     18 O19        -0.6610   -3.4220   -4.9080 oh        1 K1T     -0.631100
     19 C20         3.0460   -2.1550   -2.7050 c3        1 K1T      0.080000
     20 N21         3.1660   -3.5450   -2.3290 ns        1 K1T     -0.525900
     21 C22         2.2730   -4.4790   -2.7790 c         1 K1T      0.654100
     22 O23         1.4570   -4.2060   -3.6990 o         1 K1T     -0.694100
     23 C24         2.2700   -5.8730   -2.1750 c3        1 K1T     -0.165400
     24 C25         0.9350   -6.1990   -1.5320 c3        1 K1T     -0.097400
     25 C26        -0.2310   -6.2090   -2.5190 c3        1 K1T      0.109800
     26 N27        -0.9940   -4.9340   -2.5680 nz        1 K1T     -0.837600
     27 H1         -0.9060   -1.0080    0.9630 hc        1 K1T      0.037867
     28 H1A         0.1920   -2.4170    0.6640 hc        1 K1T      0.037867
     29 H1B        -0.6020   -1.5660   -0.7340 hc        1 K1T      0.037867
     30 H2          0.7030    0.4630   -0.3420 hc        1 K1T      0.056700
     31 H3          2.3810    0.6150    1.5060 hc        1 K1T      0.037867
     32 H3A         0.6980    0.3920    2.1400 hc        1 K1T      0.037867
     33 H3B         1.8530   -1.0030    2.1320 hc        1 K1T      0.037867
     34 H4          2.5690   -1.9870   -0.0730 hc        1 K1T      0.042200
     35 H4A         3.0460   -0.3320   -0.6210 hc        1 K1T      0.042200
     36 H5          0.9880   -2.1820   -2.0130 hc        1 K1T      0.050700
     37 H7          0.3200   -0.0040   -2.4730 hc        1 K1T      0.075200
     38 H7A         2.0110    0.6510   -2.5260 hc        1 K1T      0.075200
     39 H12         2.7770    1.3320   -6.9790 ha        1 K1T      0.177000
     40 H13         2.7840    1.2630   -4.4850 ha        1 K1T      0.156000
     41 H15         0.6370   -2.3680   -9.1610 h2        1 K1T      0.091200
     42 H15A       -0.7600   -1.1070   -9.0780 h2        1 K1T      0.091200
     43 H20         2.9300   -2.1070   -3.8260 h1        1 K1T      0.075700
     44 H20A        4.0030   -1.6340   -2.4200 h1        1 K1T      0.075700
     45 HN21        3.7700   -3.7700   -1.5730 hn        1 K1T      0.325500
     46 H24         3.0780   -6.0000   -1.4070 hc        1 K1T      0.091200
     47 H24A        2.4850   -6.5960   -3.0090 hc        1 K1T      0.091200
     48 H25         0.7420   -5.4990   -0.6770 hc        1 K1T      0.082200
     49 H25A        1.0080   -7.2340   -1.0950 hc        1 K1T      0.082200
     50 H26         0.1650   -6.3960   -3.5620 hx        1 K1T      0.108700
     51 H26A       -0.9550   -7.0290   -2.2480 hx        1 K1T      0.108700
     52 HN27       -1.5610   -4.8860   -3.4250 hn        1 K1T      0.469467
     53 HN2A       -0.3420   -4.1250   -2.6140 hn        1 K1T      0.469467
     54 H212       -0.1370   -3.5510   -5.7140 ho        1 K1T      0.474000
     55 H273       -1.5960   -4.8250   -1.7520 hn        1 K1T      0.469467
@<TRIPOS>BOND
     1    1    2 1   
     2    1   27 1   
     3    1   28 1   
     4    1   29 1   
     5    2    3 1   
     6    2    4 1   
     7    2   30 1   
     8    3   31 1   
     9    3   32 1   
    10    3   33 1   
    11    4    5 1   
    12    4   34 1   
    13    4   35 1   
    14    5    6 1   
    15    5   19 1   
    16    5   36 1   
    17    6    7 1   
    18    6   37 1   
    19    6   38 1   
    20    7    8 ar  
    21    7   12 ar  
    22    8    9 ar  
    23    8   16 1   
    24    9   10 ar  
    25    9   15 1   
    26   10   11 ar  
    27   10   13 1   
    28   11   12 ar  
    29   11   39 1   
    30   12   40 1   
    31   13   14 1   
    32   14   15 1   
    33   14   41 1   
    34   14   42 1   
    35   16   17 2   
    36   16   18 1   
    37   18   54 1   
    38   19   20 1   
    39   19   43 1   
    40   19   44 1   
    41   20   21 1   
    42   20   45 1   
    43   21   22 2   
    44   21   23 1   
    45   23   24 1   
    46   23   46 1   
    47   23   47 1   
    48   24   25 1   
    49   24   48 1   
    50   24   49 1   
    51   25   26 1   
    52   25   50 1   
    53   25   51 1   
    54   26   52 1   
    55   26   53 1   
    56   26   55 1   
@<TRIPOS>SUBSTRUCTURE
     1 K1T         1 TEMP              0 ****  ****    0 ROOT
