@<TRIPOS>MOLECULE
K1T
   55    56     1     0     0
SMALL
bcc


@<TRIPOS>ATOM
      1 C1          0.3180   -1.3350    0.4840 c3        1 K1T     -0.089100
      2 C2          1.3100   -0.2500    0.1170 c3        1 K1T     -0.080700
      3 C3          1.8360    0.4190    1.3700 c3        1 K1T     -0.089100
      4 C4          2.4650   -0.8170   -0.6980 c3        1 K1T     -0.078400
      5 C5          2.0740   -1.0990   -2.1460 c3        1 K1T     -0.076700
      6 C7          2.6140    0.0010   -3.0530 c3        1 K1T     -0.049100
      7 C8          2.0870   -0.0550   -4.4480 ca        1 K1T     -0.025300
      8 C9          0.7530    0.3350   -4.7440 ca        1 K1T     -0.154600
      9 C10         0.3930    0.2960   -6.0830 ca        1 K1T      0.082100
     10 C11         1.2910   -0.1040   -7.1050 ca        1 K1T      0.051100
     11 C12         2.5830   -0.4920   -6.8220 ca        1 K1T     -0.075000
     12 C13         2.9550   -0.4600   -5.4670 ca        1 K1T     -0.141000
     13 O14         0.6530   -0.0290   -8.3380 os        1 K1T     -0.323900
     14 C15        -0.6820    0.4680   -8.0920 c3        1 K1T      0.327200
     15 O16        -0.8290    0.6250   -6.6570 os        1 K1T     -0.351900
     16 C17        -0.1910    0.7780   -3.7040 c         1 K1T      0.655700
     17 O18         0.0780    1.3330   -2.6350 o         1 K1T     -0.495000
     18 O19        -1.5300    0.5590   -3.8580 oh        1 K1T     -0.577100
     19 C20         2.6060   -2.4640   -2.6080 c3        1 K1T      0.081000
     20 N21         1.9240   -3.5770   -1.9940 n         1 K1T     -0.546900
     21 C22         1.5840   -4.7050   -2.6890 c         1 K1T      0.655100
     22 O23         1.9080   -4.8950   -3.8800 o         1 K1T     -0.618100
     23 C24         0.8000   -5.7770   -1.9320 c3        1 K1T     -0.159400
     24 C25         0.6290   -6.9840   -2.8320 c3        1 K1T     -0.106400
     25 C26        -0.1550   -8.0660   -2.1060 c3        1 K1T      0.100800
     26 N27        -0.3480   -9.2800   -2.9560 n4        1 K1T     -0.838600
     27 H1         -0.0940   -1.8200   -0.4330 hc        1 K1T      0.032533
     28 H1A        -0.5320   -0.8970    1.0620 hc        1 K1T      0.032533
     29 H1B         0.8060   -2.1190    1.1130 hc        1 K1T      0.032533
     30 H2          0.7800    0.5270   -0.5090 hc        1 K1T      0.087700
     31 H3          2.4090   -0.3070    1.9960 hc        1 K1T      0.032533
     32 H3A         2.5110    1.2680    1.1040 hc        1 K1T      0.032533
     33 H3B         0.9890    0.8200    1.9770 hc        1 K1T      0.032533
     34 H4          2.8410   -1.7480   -0.1980 hc        1 K1T      0.043700
     35 H4A         3.3170   -0.0850   -0.6770 hc        1 K1T      0.043700
     36 H5          0.9490   -1.0900   -2.2360 hc        1 K1T      0.065700
     37 H7          2.3330    0.9960   -2.6020 hc        1 K1T      0.078700
     38 H7A         3.7360   -0.0550   -3.0710 hc        1 K1T      0.078700
     39 H12         3.2860   -0.8030   -7.6070 ha        1 K1T      0.168000
     40 H13         3.9830   -0.7590   -5.2060 ha        1 K1T      0.150000
     41 H15        -1.4190   -0.2970   -8.4390 h2        1 K1T      0.084700
     42 H15A       -0.7900    1.4720   -8.5720 h2        1 K1T      0.084700
     43 H20         3.7030   -2.5370   -2.3530 h1        1 K1T      0.066700
     44 H20A        2.5060   -2.5440   -3.7300 h1        1 K1T      0.066700
     45 HN21        1.5650   -3.4350   -1.0770 hn        1 K1T      0.320500
     46 H24         1.3530   -6.0610   -0.9980 hc        1 K1T      0.075700
     47 H24A       -0.1990   -5.3620   -1.6360 hc        1 K1T      0.075700
     48 H25         0.1010   -6.6640   -3.7720 hc        1 K1T      0.090700
     49 H25A        1.6450   -7.3570   -3.1350 hc        1 K1T      0.090700
     50 H26        -1.1770   -7.6840   -1.8180 hx        1 K1T      0.111700
     51 H26A        0.3900   -8.3860   -1.1710 hx        1 K1T      0.111700
     52 HN27       -0.8780   -9.9910   -2.4430 hn        1 K1T      0.462800
     53 HN2A       -0.8570   -9.0320   -3.8110 hn        1 K1T      0.462800
     54 H212       -1.7290    0.2110   -4.7390 ho        1 K1T      0.441000
     55 H273        0.5630   -9.6680   -3.2240 hn        1 K1T      0.462800
@<TRIPOS>BOND
     1    1    2 1   
     2    1   27 1   
     3    1   28 1   
     4    1   29 1   
     5    2    3 1   
     6    2    4 1   
     7    2   30 1   
     8    3   31 1   
     9    3   32 1   
    10    3   33 1   
    11    4    5 1   
    12    4   34 1   
    13    4   35 1   
    14    5    6 1   
    15    5   19 1   
    16    5   36 1   
    17    6    7 1   
    18    6   37 1   
    19    6   38 1   
    20    7    8 ar  
    21    7   12 ar  
    22    8    9 ar  
    23    8   16 1   
    24    9   10 ar  
    25    9   15 1   
    26   10   11 ar  
    27   10   13 1   
    28   11   12 ar  
    29   11   39 1   
    30   12   40 1   
    31   13   14 1   
    32   14   15 1   
    33   14   41 1   
    34   14   42 1   
    35   16   17 2   
    36   16   18 1   
    37   18   54 1   
    38   19   20 1   
    39   19   43 1   
    40   19   44 1   
    41   20   21 1   
    42   20   45 1   
    43   21   22 2   
    44   21   23 1   
    45   23   24 1   
    46   23   46 1   
    47   23   47 1   
    48   24   25 1   
    49   24   48 1   
    50   24   49 1   
    51   25   26 1   
    52   25   50 1   
    53   25   51 1   
    54   26   52 1   
    55   26   53 1   
    56   26   55 1   
@<TRIPOS>SUBSTRUCTURE
     1 K1T         1 TEMP              0 ****  ****    0 ROOT
