@<TRIPOS>MOLECULE
K1T
   53    54     1     0     0
SMALL
bcc


@<TRIPOS>ATOM
      1 C1         -0.1730   -4.2330    0.6590 c3        1 K1T     -0.097600
      2 C2          0.1440   -4.2500   -0.8220 c3        1 K1T     -0.065700
      3 C3         -0.2540   -5.5800   -1.4320 c3        1 K1T     -0.097600
      4 C4         -0.5510   -3.1210   -1.5700 c3        1 K1T     -0.062400
      5 C5         -0.2430   -1.7380   -1.0170 c3        1 K1T     -0.102700
      6 C7          1.2560   -1.4670   -1.0430 c3        1 K1T     -0.030100
      7 C8          1.6560   -0.0630   -0.7340 ca        1 K1T     -0.060300
      8 C9          1.4060    0.4750    0.5540 ca        1 K1T     -0.095600
      9 C10         1.9100    1.7420    0.7820 ca        1 K1T      0.069100
     10 C11         2.6170    2.4710   -0.2090 ca        1 K1T      0.030100
     11 C12         2.8420    1.9600   -1.4690 ca        1 K1T     -0.138000
     12 C13         2.3430    0.6680   -1.7070 ca        1 K1T     -0.151000
     13 O14         3.0010    3.7100    0.3050 os        1 K1T     -0.355900
     14 C15         2.5140    3.7560    1.6640 c3        1 K1T      0.318200
     15 O16         1.8400    2.5160    1.9440 os        1 K1T     -0.313900
     16 C17         0.5950   -0.2910    1.5900 c         1 K1T      0.926200
     17 O18        -0.5910    0.1060    1.7900 o         1 K1T     -0.822800
     18 O19         1.1160   -1.2930    2.1450 o         1 K1T     -0.822800
     19 C20        -1.0360   -0.6770   -1.8080 c3        1 K1T      0.080000
     20 N21        -1.5910    0.3680   -0.9850 n         1 K1T     -0.532900
     21 C22        -2.9520    0.4160   -0.7200 c         1 K1T      0.652100
     22 O23        -3.7930   -0.1370   -1.4650 o         1 K1T     -0.659100
     23 C24        -3.3710    1.2540    0.4750 c3        1 K1T     -0.164400
     24 C25        -4.8410    1.0800    0.7730 c3        1 K1T     -0.107400
     25 C26        -5.2660    1.9910    1.9240 c3        1 K1T      0.140800
     26 N27        -6.6470    1.8940    2.3330 n3        1 K1T     -0.904800
     27 H1          0.2840   -3.3360    1.1550 hc        1 K1T      0.035200
     28 H1A        -1.2770   -4.2010    0.8230 hc        1 K1T      0.035200
     29 H1B         0.2310   -5.1510    1.1490 hc        1 K1T      0.035200
     30 H2          1.2570   -4.1270   -0.9460 hc        1 K1T      0.042700
     31 H3         -1.3490   -5.7570   -1.3060 hc        1 K1T      0.035200
     32 H3A        -0.0160   -5.5990   -2.5230 hc        1 K1T      0.035200
     33 H3B         0.2970   -6.4150   -0.9350 hc        1 K1T      0.035200
     34 H4         -0.2520   -3.1660   -2.6510 hc        1 K1T      0.030700
     35 H4A        -1.6610   -3.2850   -1.5210 hc        1 K1T      0.030700
     36 H5         -0.5730   -1.7190    0.0660 hc        1 K1T      0.108700
     37 H7          1.7360   -2.1250   -0.2620 hc        1 K1T      0.051200
     38 H7A         1.6640   -1.7640   -2.0460 hc        1 K1T      0.051200
     39 H12         3.3780    2.5220   -2.2410 ha        1 K1T      0.131000
     40 H13         2.5070    0.2230   -2.7000 ha        1 K1T      0.119000
     41 H15         3.3900    3.8530    2.3530 h2        1 K1T      0.051700
     42 H15A        1.7810    4.5940    1.7520 h2        1 K1T      0.051700
     43 H20        -0.3440   -0.1850   -2.5510 h1        1 K1T      0.048700
     44 H20A       -1.8690   -1.1710   -2.3850 h1        1 K1T      0.048700
     45 HN21       -0.9990    0.6480   -0.2180 hn        1 K1T      0.342500
     46 H24        -2.7500    0.9530    1.3680 hc        1 K1T      0.088700
     47 H24A       -3.1460    2.3310    0.2540 hc        1 K1T      0.088700
     48 H25        -5.4410    1.3080   -0.1470 hc        1 K1T      0.046700
     49 H25A       -5.0390    0.0070    1.0340 hc        1 K1T      0.046700
     50 H26        -4.6210    1.7680    2.8210 h1        1 K1T      0.052200
     51 H26A       -5.0740    3.0620    1.6270 h1        1 K1T      0.052200
     52 HN27       -7.2540    2.0550    1.5510 hn        1 K1T      0.335800
     53 HN2A       -6.8400    0.9770    2.6900 hn        1 K1T      0.335800
@<TRIPOS>BOND
     1    1    2 1   
     2    1   27 1   
     3    1   28 1   
     4    1   29 1   
     5    2    3 1   
     6    2    4 1   
     7    2   30 1   
     8    3   31 1   
     9    3   32 1   
    10    3   33 1   
    11    4    5 1   
    12    4   34 1   
    13    4   35 1   
    14    5    6 1   
    15    5   19 1   
    16    5   36 1   
    17    6    7 1   
    18    6   37 1   
    19    6   38 1   
    20    7    8 ar  
    21    7   12 ar  
    22    8    9 ar  
    23    8   16 1   
    24    9   10 ar  
    25    9   15 1   
    26   10   11 ar  
    27   10   13 1   
    28   11   12 ar  
    29   11   39 1   
    30   12   40 1   
    31   13   14 1   
    32   14   15 1   
    33   14   41 1   
    34   14   42 1   
    35   16   17 1   
    36   16   18 1   
    37   19   20 1   
    38   19   43 1   
    39   19   44 1   
    40   20   21 1   
    41   20   45 1   
    42   21   22 2   
    43   21   23 1   
    44   23   24 1   
    45   23   46 1   
    46   23   47 1   
    47   24   25 1   
    48   24   48 1   
    49   24   49 1   
    50   25   26 1   
    51   25   50 1   
    52   25   51 1   
    53   26   52 1   
    54   26   53 1   
@<TRIPOS>SUBSTRUCTURE
     1 K1T         1 TEMP              0 ****  ****    0 ROOT
