@<TRIPOS>MOLECULE
K1T
   55    56     1     0     0
SMALL
bcc


@<TRIPOS>ATOM
      1 C1         -0.1080   -1.4700    0.2940 c3        1 K1T     -0.096100
      2 C2          1.1060   -0.5680    0.2340 c3        1 K1T     -0.067700
      3 C3          1.5930   -0.2490    1.6340 c3        1 K1T     -0.096100
      4 C4          2.2410   -1.1850   -0.5700 c3        1 K1T     -0.076400
      5 C5          1.8790   -1.5060   -2.0130 c3        1 K1T     -0.082700
      6 C7          1.4540   -0.2450   -2.7530 c3        1 K1T     -0.043100
      7 C8          1.4260   -0.3100   -4.2420 ca        1 K1T     -0.016300
      8 C9          0.5490   -1.1760   -4.9500 ca        1 K1T     -0.155600
      9 C10         0.5830   -1.0850   -6.3360 ca        1 K1T      0.089100
     10 C11         1.4230   -0.1720   -7.0220 ca        1 K1T      0.056100
     11 C12         2.2770    0.6710   -6.3430 ca        1 K1T     -0.062000
     12 C13         2.2570    0.5730   -4.9410 ca        1 K1T     -0.140000
     13 O14         1.2260   -0.3030   -8.3910 os        1 K1T     -0.313900
     14 C15         0.2160   -1.3210   -8.5790 c3        1 K1T      0.327200
     15 O16        -0.1500   -1.8150   -7.2610 os        1 K1T     -0.355900
     16 C17        -0.3480   -2.1340   -4.3010 c         1 K1T      0.711700
     17 O18        -0.8880   -2.0810   -3.1840 o         1 K1T     -0.579000
     18 O19        -0.6940   -3.2930   -4.9440 oh        1 K1T     -0.631100
     19 C20         3.0510   -2.2370   -2.6940 c3        1 K1T      0.080000
     20 N21         3.1150   -3.6420   -2.3600 n         1 K1T     -0.525900
     21 C22         2.1890   -4.5270   -2.8390 c         1 K1T      0.654100
     22 O23         1.3870   -4.1950   -3.7520 o         1 K1T     -0.694100
     23 C24         2.1290   -5.9370   -2.2770 c3        1 K1T     -0.165400
     24 C25         0.7800   -6.2290   -1.6480 c3        1 K1T     -0.097400
     25 C26        -0.3820   -6.1640   -2.6360 c3        1 K1T      0.109800
     26 N27        -1.0950   -4.8590   -2.6490 n4        1 K1T     -0.837600
     27 H1         -0.5790   -1.5650   -0.7170 hc        1 K1T      0.037867
     28 H1A         0.1750   -2.4870    0.6580 hc        1 K1T      0.037867
     29 H1B        -0.8670   -1.0450    0.9950 hc        1 K1T      0.037867
     30 H2          0.8030    0.3990   -0.2610 hc        1 K1T      0.056700
     31 H3          0.7850    0.2550    2.2170 hc        1 K1T      0.037867
     32 H3A         1.8850   -1.1830    2.1710 hc        1 K1T      0.037867
     33 H3B         2.4780    0.4290    1.5950 hc        1 K1T      0.037867
     34 H4          2.5710   -2.1300   -0.0600 hc        1 K1T      0.042200
     35 H4A         3.1140   -0.4790   -0.5570 hc        1 K1T      0.042200
     36 H5          0.9910   -2.2050   -2.0090 hc        1 K1T      0.050700
     37 H7          2.1260    0.6000   -2.4350 hc        1 K1T      0.075200
     38 H7A         0.4110    0.0100   -2.4050 hc        1 K1T      0.075200
     39 H12         2.9340    1.3820   -6.8640 ha        1 K1T      0.177000
     40 H13         2.9290    1.2390   -4.3730 ha        1 K1T      0.156000
     41 H15        -0.6870   -0.8540   -9.0430 h2        1 K1T      0.091200
     42 H15A        0.6600   -2.1660   -9.1590 h2        1 K1T      0.091200
     43 H20         4.0270   -1.7630   -2.3920 h1        1 K1T      0.075700
     44 H20A        2.9410   -2.1520   -3.8140 h1        1 K1T      0.075700
     45 HN21        3.7070   -3.9120   -1.6090 hn        1 K1T      0.325500
     46 H24         2.9280   -6.1180   -1.5110 hc        1 K1T      0.091200
     47 H24A        2.3180   -6.6430   -3.1320 hc        1 K1T      0.091200
     48 H25         0.6110   -5.5480   -0.7720 hc        1 K1T      0.082200
     49 H25A        0.8110   -7.2790   -1.2410 hc        1 K1T      0.082200
     50 H26        -1.1390   -6.9620   -2.3920 hx        1 K1T      0.108700
     51 H26A        0.0100   -6.3350   -3.6830 hx        1 K1T      0.108700
     52 HN27       -0.4110   -4.0750   -2.6700 hn        1 K1T      0.469467
     53 HN2A       -1.6560   -4.7630   -3.5060 hn        1 K1T      0.469467
     54 H212       -0.1720   -3.4190   -5.7520 ho        1 K1T      0.474000
     55 H273       -1.6950   -4.7510   -1.8320 hn        1 K1T      0.469467
@<TRIPOS>BOND
     1    1    2 1   
     2    1   27 1   
     3    1   28 1   
     4    1   29 1   
     5    2    3 1   
     6    2    4 1   
     7    2   30 1   
     8    3   31 1   
     9    3   32 1   
    10    3   33 1   
    11    4    5 1   
    12    4   34 1   
    13    4   35 1   
    14    5    6 1   
    15    5   19 1   
    16    5   36 1   
    17    6    7 1   
    18    6   37 1   
    19    6   38 1   
    20    7    8 ar  
    21    7   12 ar  
    22    8    9 ar  
    23    8   16 1   
    24    9   10 ar  
    25    9   15 1   
    26   10   11 ar  
    27   10   13 1   
    28   11   12 ar  
    29   11   39 1   
    30   12   40 1   
    31   13   14 1   
    32   14   15 1   
    33   14   41 1   
    34   14   42 1   
    35   16   17 2   
    36   16   18 1   
    37   18   54 1   
    38   19   20 1   
    39   19   43 1   
    40   19   44 1   
    41   20   21 1   
    42   20   45 1   
    43   21   22 2   
    44   21   23 1   
    45   23   24 1   
    46   23   46 1   
    47   23   47 1   
    48   24   25 1   
    49   24   48 1   
    50   24   49 1   
    51   25   26 1   
    52   25   50 1   
    53   25   51 1   
    54   26   52 1   
    55   26   53 1   
    56   26   55 1   
@<TRIPOS>SUBSTRUCTURE
     1 K1T         1 TEMP              0 ****  ****    0 ROOT
