@<TRIPOS>MOLECULE
K20
   79    83     1     0     0
SMALL
bcc


@<TRIPOS>ATOM
      1 C1          0.1180   -4.9850    0.7470 c3        1 K20      0.316200
      2 O1         -1.2930   -5.2080    0.4940 os        1 K20     -0.327900
      3 C2         -1.9370   -4.0020    0.7080 ca        1 K20      0.123100
      4 O2          0.2850   -3.5940    1.1020 os        1 K20     -0.328900
      5 C3         -0.9830   -3.0160    1.0790 ca        1 K20      0.028100
      6 C4         -1.3430   -1.7150    1.3540 ca        1 K20     -0.006000
      7 C5         -2.7160   -1.3990    1.2480 ca        1 K20     -0.388500
      8 C6         -3.6440   -2.3810    0.8830 ca        1 K20     -0.013000
      9 C7         -3.2830   -3.7070    0.6030 ca        1 K20     -0.149000
     10 S8         -3.2600    0.1590    1.6070 sy        1 K20      1.504200
     11 O9         -4.6560    0.0960    1.8120 o         1 K20     -0.650800
     12 O10        -2.5000    0.6960    2.6680 o         1 K20     -0.650800
     13 N11        -2.9340    0.9960    0.2370 n3        1 K20     -0.800500
     14 C12        -3.6690    0.7450   -0.9770 c3        1 K20      0.218800
     15 C13        -5.0180    1.4780   -1.1000 c3        1 K20     -0.094700
     16 C14        -4.8280    2.9770   -1.1550 c3        1 K20     -0.085100
     17 C15        -5.7240    0.9710   -2.3510 c3        1 K20     -0.074400
     18 C16        -1.8840    1.9720    0.1760 c3        1 K20      0.193800
     19 C17        -0.6120    1.5040   -0.5650 c3        1 K20      0.077100
     20 C18        -7.2040    1.2580   -2.3270 c3        1 K20     -0.093100
     21 O18        -0.7310    1.6410   -1.9670 oh        1 K20     -0.591800
     22 C19         0.6350    2.2590   -0.0220 c3        1 K20      0.068700
     23 N20         1.8810    1.6300   -0.4190 n         1 K20     -0.499900
     24 C21         2.1740    0.3890    0.1210 c         1 K20      0.731100
     25 O22         1.6660   -0.1450    1.1210 o         1 K20     -0.587000
     26 O23         3.1970   -0.2560   -0.5510 os        1 K20     -0.432900
     27 C24         3.6670   -1.4780    0.0290 c3        1 K20      0.130100
     28 C25         3.0430   -2.6750   -0.7120 c3        1 K20      0.101400
     29 O26         4.0690   -3.6550   -0.8830 os        1 K20     -0.421600
     30 C27         5.3510   -3.0680   -0.7080 c3        1 K20      0.320900
     31 O28         5.9310   -3.0330   -2.0010 os        1 K20     -0.420600
     32 C29         6.0070   -1.6830   -2.4770 c3        1 K20      0.124400
     33 C30         5.7850   -0.7460   -1.2910 c3        1 K20     -0.102400
     34 C31         5.1840   -1.6150   -0.1910 c3        1 K20     -0.115700
     35 C32         0.5920    3.7370   -0.4440 c3        1 K20     -0.041100
     36 C33         2.6630    5.1470   -0.4600 ca        1 K20     -0.121500
     37 C34         3.6060    5.9360    0.1970 ca        1 K20     -0.125000
     38 C35         3.5080    6.1460    1.5720 ca        1 K20     -0.126000
     39 C36         2.4620    5.5650    2.2900 ca        1 K20     -0.125000
     40 C37         1.5180    4.7770    1.6360 ca        1 K20     -0.121500
     41 C38         1.6120    4.5620    0.2560 ca        1 K20     -0.083300
     42 H1          0.4260   -5.6180    1.6150 h2        1 K20      0.082200
     43 H1A         0.6840   -5.1840   -0.1970 h2        1 K20      0.082200
     44 H4         -0.5920   -0.9620    1.6560 ha        1 K20      0.191000
     45 H6         -4.7150   -2.1060    0.8260 ha        1 K20      0.165000
     46 H7         -4.0270   -4.4630    0.3230 ha        1 K20      0.164000
     47 H12        -3.0280    1.0120   -1.8660 h1        1 K20      0.054700
     48 H12A       -3.8710   -0.3680   -1.0270 h1        1 K20      0.054700
     49 H13        -5.6490    1.2250   -0.2000 hc        1 K20      0.081700
     50 H14        -4.4540    3.3640   -0.1760 hc        1 K20      0.033033
     51 H14A       -4.0950    3.2550   -1.9520 hc        1 K20      0.033033
     52 H14B       -5.7980    3.4830   -1.3790 hc        1 K20      0.033033
     53 H15        -5.2610    1.4430   -3.2570 hc        1 K20      0.038200
     54 H15A       -5.5730   -0.1380   -2.4420 hc        1 K20      0.038200
     55 H16        -2.2750    2.8980   -0.3420 h1        1 K20      0.069700
     56 H16A       -1.6000    2.2580    1.2320 h1        1 K20      0.069700
     57 H17        -0.4560    0.3940   -0.4140 h1        1 K20      0.096700
     58 H18        -7.6830    0.7890   -1.4330 hc        1 K20      0.036367
     59 H18A       -7.3990    2.3570   -2.2910 hc        1 K20      0.036367
     60 H18B       -7.6890    0.8460   -3.2450 hc        1 K20      0.036367
     61 HO18       -1.0010    2.5500   -2.1530 ho        1 K20      0.399000
     62 H19         0.5940    2.2020    1.1100 h1        1 K20      0.099700
     63 HN20        2.1960    1.8020   -1.3480 hn        1 K20      0.320500
     64 H24         3.4230   -1.5100    1.1250 h1        1 K20      0.100700
     65 H25         2.2330   -3.1670   -0.1130 h1        1 K20      0.068200
     66 H25A        2.6600   -2.3720   -1.7190 h1        1 K20      0.068200
     67 H27         5.9580   -3.7670   -0.0790 h2        1 K20      0.100700
     68 H29         7.0230   -1.5730   -2.9320 h1        1 K20      0.051200
     69 H29A        5.2200   -1.5510   -3.2630 h1        1 K20      0.051200
     70 H30         6.7580   -0.3150   -0.9460 hc        1 K20      0.066200
     71 H30A        5.1160    0.1030   -1.5720 hc        1 K20      0.066200
     72 H31         5.7200   -1.4620    0.7760 hc        1 K20      0.080700
     73 H32         0.7210    3.8210   -1.5570 hc        1 K20      0.055700
     74 H32A       -0.4320    4.1270   -0.1910 hc        1 K20      0.055700
     75 H34         4.4290    6.3930   -0.3730 ha        1 K20      0.134000
     76 H35         4.2530    6.7680    2.0890 ha        1 K20      0.134000
     77 H36         2.3830    5.7280    3.3750 ha        1 K20      0.134000
     78 H37         0.6950    4.3200    2.2070 ha        1 K20      0.131500
     79 H33         2.7460    4.9850   -1.5450 ha        1 K20      0.131500
@<TRIPOS>BOND
     1    1    2 1   
     2    1    4 1   
     3    1   42 1   
     4    1   43 1   
     5    2    3 1   
     6    3    5 ar  
     7    3    9 ar  
     8    4    5 1   
     9    5    6 ar  
    10    6    7 ar  
    11    6   44 1   
    12    7    8 ar  
    13    7   10 1   
    14    8    9 ar  
    15    8   45 1   
    16    9   46 1   
    17   10   11 2   
    18   10   12 2   
    19   10   13 1   
    20   13   14 1   
    21   13   18 1   
    22   14   15 1   
    23   14   47 1   
    24   14   48 1   
    25   15   16 1   
    26   15   17 1   
    27   15   49 1   
    28   16   50 1   
    29   16   51 1   
    30   16   52 1   
    31   17   20 1   
    32   17   53 1   
    33   17   54 1   
    34   18   19 1   
    35   18   55 1   
    36   18   56 1   
    37   19   21 1   
    38   19   22 1   
    39   19   57 1   
    40   20   58 1   
    41   20   59 1   
    42   20   60 1   
    43   21   61 1   
    44   22   23 1   
    45   22   35 1   
    46   22   62 1   
    47   23   24 1   
    48   23   63 1   
    49   24   25 2   
    50   24   26 1   
    51   26   27 1   
    52   27   28 1   
    53   27   34 1   
    54   27   64 1   
    55   28   29 1   
    56   28   65 1   
    57   28   66 1   
    58   29   30 1   
    59   30   31 1   
    60   30   34 1   
    61   30   67 1   
    62   31   32 1   
    63   32   33 1   
    64   32   68 1   
    65   32   69 1   
    66   33   34 1   
    67   33   70 1   
    68   33   71 1   
    69   34   72 1   
    70   35   41 1   
    71   35   73 1   
    72   35   74 1   
    73   36   37 ar  
    74   36   41 ar  
    75   36   79 1   
    76   37   38 ar  
    77   37   75 1   
    78   38   39 ar  
    79   38   76 1   
    80   39   40 ar  
    81   39   77 1   
    82   40   41 ar  
    83   40   78 1   
@<TRIPOS>SUBSTRUCTURE
     1 K20         1 TEMP              0 ****  ****    0 ROOT
