@<TRIPOS>MOLECULE
K20
   79    77     1     0     0
SMALL
bcc


@<TRIPOS>ATOM
      1 C1          4.3430    5.2300   -5.0060 c3        1 K20      0.095000
      2 O1          5.1090    4.1690   -4.5300 os        1 K20     -0.212000
      3 C2          4.5440    3.7390   -3.2940 c2        1 K20      0.028500
      4 O2          3.2690    5.4120   -4.1260 os        1 K20     -0.212000
      5 C3          3.3950    4.4640   -3.0760 c2        1 K20      0.028500
      6 C4          2.6160    4.2200   -1.9310 c1        1 K20     -0.079500
      7 C5          3.0100    3.2410   -1.0150 c1        1 K20     -0.833000
      8 C6          4.1740    2.5090   -1.2380 c1        1 K20     -0.013000
      9 C7          4.9410    2.7500   -2.3670 c1        1 K20     -0.079500
     10 S8          2.1370    3.0820    0.5580 s4        1 K20      2.059800
     11 O9          2.8160    3.8180    1.6170 o         1 K20     -0.534400
     12 O10         0.8610    3.7630    0.5170 o         1 K20     -0.534400
     13 N11         1.9430    1.4100    0.9790 n2        1 K20     -0.829000
     14 C12         3.1260    0.5520    1.1340 c3        1 K20     -0.009000
     15 C13         3.9620    1.0420    2.3180 c3        1 K20     -0.135000
     16 C14         3.8600    0.0450    3.4540 c3        1 K20     -0.206000
     17 C15         5.3980    1.1760    1.8970 c3        1 K20     -0.152000
     18 C16         0.6140    0.9140    1.4140 c3        1 K20     -0.053000
     19 C17         0.0800   -0.0480    0.3970 c3        1 K20     -0.031000
     20 C18         6.1520    2.0750    2.9050 c3        1 K20     -0.211000
     21 O18         0.9920   -1.0990    0.2260 oh        1 K20     -0.330000
     22 C19        -1.2680   -0.6110    0.8770 c3        1 K20      0.033000
     23 N20        -1.7430   -1.5860   -0.0660 n         1 K20     -0.310000
     24 C21        -3.0940   -1.5710   -0.4710 c2        1 K20      0.380000
     25 O22        -3.8110   -0.6670   -0.1320 o         1 K20     -0.399000
     26 O23        -3.6080   -2.6220   -1.3630 os        1 K20     -0.270000
     27 C24        -4.8850   -2.2840   -2.0020 c3        1 K20      0.014000
     28 C25        -4.7280   -1.3050   -2.8010 c3        1 K20     -0.028000
     29 O26        -5.7030   -1.5760   -3.9510 os        1 K20     -0.278000
     30 C27        -6.1700   -3.0560   -3.7550 c3        1 K20      0.138000
     31 O28        -5.9630   -3.8980   -5.0410 os        1 K20     -0.277000
     32 C29        -4.7240   -4.7090   -4.7870 c3        1 K20     -0.026000
     33 C30        -4.2000   -4.1900   -3.7390 c3        1 K20     -0.183000
     34 C31        -5.4100   -3.5330   -2.9210 c3        1 K20     -0.168000
     35 C32        -1.0920   -1.2530    2.2150 c3        1 K20     -0.123000
     36 C33        -2.8490   -2.5510    3.3940 c1        1 K20     -0.124000
     37 C34        -3.6370   -2.7290    4.5320 c1        1 K20     -0.126000
     38 C35        -4.0660   -1.6210    5.2670 c1        1 K20     -0.126000
     39 C36        -3.7090   -0.3380    4.8640 c1        1 K20     -0.126000
     40 C37        -2.9170   -0.1580    3.7210 c1        1 K20     -0.126000
     41 C38        -2.4890   -1.2640    2.9880 c1        1 K20     -0.074000
     42 H1          4.8860    6.0330   -5.0180 h2        1 K20      0.119000
     43 H1A         3.9900    5.0000   -5.9110 h2        1 K20      0.119000
     44 H4          1.7990    4.7350   -1.7750 ha        1 K20      0.182000
     45 H6          4.4480    1.8280   -0.6020 ha        1 K20      0.161000
     46 H7          5.7590    2.2320   -2.5220 ha        1 K20      0.182000
     47 H12         2.8370   -0.3820    1.2990 h1        1 K20      0.083000
     48 H12A        3.6770    0.5870    0.2990 h1        1 K20      0.083000
     49 H13         3.6280    1.9100    2.6160 hc        1 K20      0.124000
     50 H14         2.9090   -0.0380    3.7400 hc        1 K20      0.075333
     51 H14A        4.1880   -0.8270    3.1520 hc        1 K20      0.075333
     52 H14B        4.4030    0.3550    4.2090 hc        1 K20      0.075333
     53 H15         5.4410    1.5940    0.9740 hc        1 K20      0.076000
     54 H15A        5.8290    0.2590    1.8740 hc        1 K20      0.076000
     55 H16         0.0120    1.6530    1.5010 h1        1 K20      0.117500
     56 H16A        0.7020    0.4560    2.2870 h1        1 K20      0.117500
     57 H17        -0.0470    0.4180   -0.4590 h1        1 K20      0.091000
     58 H18         6.9450    2.4600    2.4690 hc        1 K20      0.076333
     59 H18A        6.4400    1.5240    3.7010 hc        1 K20      0.076333
     60 H18B        5.5680    2.7900    3.2010 hc        1 K20      0.076333
     61 HO18        1.0380   -1.3150   -0.6340 ho        1 K20      0.208000
     62 H19        -1.9310    0.1320    0.9490 h1        1 K20      0.132000
     63 HN20       -1.1610   -2.1370   -0.4710 hn        1 K20      0.237000
     64 H24        -5.5700   -2.0570   -1.3080 h1        1 K20      0.145000
     65 H25        -4.9470   -0.4810   -2.3640 h1        1 K20      0.098500
     66 H25A       -3.8470   -1.2820   -3.1190 h1        1 K20      0.098500
     67 H27        -7.0710   -3.0940   -3.4590 h2        1 K20      0.140000
     68 H29        -4.9610   -5.6540   -4.6210 h1        1 K20      0.090500
     69 H29A       -4.1210   -4.6410   -5.5320 h1        1 K20      0.090500
     70 H30        -3.7790   -4.8590   -3.2180 hc        1 K20      0.106500
     71 H30A       -3.5510   -3.5000   -3.9940 hc        1 K20      0.106500
     72 H31        -5.8810   -4.2220   -2.3580 hc        1 K20      0.128000
     73 H32        -0.4020   -0.7230    2.7620 hc        1 K20      0.106000
     74 H32A       -0.7790   -2.1720    2.0980 hc        1 K20      0.106000
     75 H33        -2.5430   -3.3410    2.8720 ha        1 K20      0.130000
     76 H34        -3.8910   -3.6380    4.8180 ha        1 K20      0.132500
     77 H35        -4.6250   -1.7480    6.0720 ha        1 K20      0.132500
     78 H36        -4.0100    0.4390    5.3800 ha        1 K20      0.132500
     79 H37        -2.6600    0.7630    3.4310 ha        1 K20      0.132500
@<TRIPOS>BOND
     1    1    2 1   
     2    1    4 1   
     3    1   42 1   
     4    1   43 1   
     5    2    3 1   
     6    3    5 1   
     7    3    9 1   
     8    4    5 1   
     9    5    6 1   
    10    6   44 1   
    11    7    8 1   
    12    7   10 1   
    13    8   45 1   
    14    9   46 1   
    15   10   11 1   
    16   10   12 1   
    17   13   14 1   
    18   13   18 1   
    19   14   15 1   
    20   14   47 1   
    21   14   48 1   
    22   15   16 1   
    23   15   17 1   
    24   15   49 1   
    25   16   50 1   
    26   16   51 1   
    27   16   52 1   
    28   17   20 1   
    29   17   53 1   
    30   17   54 1   
    31   18   19 1   
    32   18   55 1   
    33   18   56 1   
    34   19   21 1   
    35   19   22 1   
    36   19   57 1   
    37   20   58 1   
    38   20   59 1   
    39   20   60 1   
    40   21   61 1   
    41   22   23 1   
    42   22   35 1   
    43   22   62 1   
    44   23   24 1   
    45   23   63 1   
    46   24   25 1   
    47   24   26 1   
    48   26   27 1   
    49   27   28 1   
    50   27   34 1   
    51   27   64 1   
    52   28   29 1   
    53   28   65 1   
    54   28   66 1   
    55   29   30 1   
    56   30   31 1   
    57   30   34 1   
    58   30   67 1   
    59   31   32 1   
    60   32   33 1   
    61   32   68 1   
    62   32   69 1   
    63   33   34 1   
    64   33   70 1   
    65   33   71 1   
    66   34   72 1   
    67   35   41 1   
    68   35   73 1   
    69   35   74 1   
    70   36   41 1   
    71   36   75 1   
    72   37   38 1   
    73   37   76 1   
    74   38   77 1   
    75   39   40 1   
    76   39   78 1   
    77   40   79 1   
@<TRIPOS>SUBSTRUCTURE
     1 K20         1 TEMP              0 ****  ****    0 ROOT
