@<TRIPOS>MOLECULE
K20
   81    84     1     0     0
SMALL
bcc


@<TRIPOS>ATOM
      1 C1          1.4120    0.2190   -1.1110 c3        1 K20      0.317200
      2 O1          2.4920    0.6360   -0.2100 os        1 K20     -0.271900
      3 C2          2.0400    0.5080    1.0610 ca        1 K20      0.244100
      4 O2          0.3010   -0.1800   -0.2710 os        1 K20     -0.302900
      5 C3          0.6940    0.0090    1.0470 ca        1 K20      0.026100
      6 C4         -0.0180   -0.2120    2.1900 ca        1 K20      0.014000
      7 C5          0.6280    0.0820    3.4410 ca        1 K20     -0.649500
      8 C6          1.9720    0.5650    3.4230 ca        1 K20      0.054000
      9 C7          2.6950    0.7870    2.2640 ca        1 K20     -0.158000
     10 S8         -0.1340   -0.0620    4.7700 s4        1 K20      1.694300
     11 O9          0.4410    0.4070    5.9070 o         1 K20     -0.454400
     12 O10        -1.4540   -0.4030    4.7730 o         1 K20     -0.454400
     13 N11         0.4070   -2.4130    5.2300 n3        1 K20     -0.903200
     14 C12         1.8190   -2.6450    5.5620 c3        1 K20      0.121800
     15 C13         2.3310   -1.9810    6.8530 c3        1 K20     -0.083700
     16 C14         2.2790   -2.9510    8.0140 c3        1 K20     -0.098100
     17 C15         3.7600   -1.5010    6.6160 c3        1 K20     -0.071400
     18 C16        -0.5210   -2.9340    6.2330 c3        1 K20      0.104800
     19 C17        -1.8850   -3.3280    5.6380 c3        1 K20      0.095100
     20 C18         4.2770   -0.6470    7.7460 c3        1 K20     -0.102100
     21 O18        -1.8090   -4.5060    4.8650 oh        1 K20     -0.594800
     22 C19        -2.9450   -3.4690    6.7590 c3        1 K20      0.104500
     23 N20        -4.2780   -3.8490    6.1520 n4        1 K20     -0.637800
     24 C21        -4.8870   -2.7110    5.4020 c         1 K20      0.616100
     25 O22        -5.4880   -1.8000    5.9510 o         1 K20     -0.409000
     26 O23        -4.6830   -2.8610    4.0790 os        1 K20     -0.401900
     27 C24        -5.1480   -1.7790    3.2070 c3        1 K20      0.138100
     28 C25        -4.2960   -0.5210    3.4250 c3        1 K20      0.098400
     29 O26        -3.3250   -0.4440    2.3790 os        1 K20     -0.432600
     30 C27        -3.6110   -1.3940    1.3590 c3        1 K20      0.319900
     31 O28        -2.4750   -2.2470    1.3710 os        1 K20     -0.445600
     32 C29        -2.8760   -3.6120    1.5850 c3        1 K20      0.123400
     33 C30        -4.4030   -3.6700    1.5760 c3        1 K20     -0.099400
     34 C31        -4.8540   -2.2270    1.7650 c3        1 K20     -0.112700
     35 C32        -2.5380   -4.4980    7.8250 c3        1 K20     -0.050100
     36 C33        -4.4690   -5.8650    8.6430 ca        1 K20     -0.132000
     37 C34        -5.4670   -6.1280    9.5780 ca        1 K20     -0.107500
     38 C35        -5.6360   -5.2840   10.6780 ca        1 K20     -0.086000
     39 C36        -4.8010   -4.1770   10.8410 ca        1 K20     -0.107500
     40 C37        -3.8000   -3.9110    9.9070 ca        1 K20     -0.132000
     41 C38        -3.6310   -4.7520    8.8010 ca        1 K20     -0.177300
     42 H1          1.7710   -0.6680   -1.6910 h2        1 K20      0.119700
     43 H1A         1.1130    1.1060   -1.7230 h2        1 K20      0.119700
     44 H4         -1.0620   -0.5940    2.1590 ha        1 K20      0.222000
     45 H6          2.4630    0.7820    4.3950 ha        1 K20      0.180000
     46 H7          3.7280    1.1700    2.2790 ha        1 K20      0.207000
     47 H12         2.0310   -3.7520    5.6250 h1        1 K20      0.067700
     48 H12A        2.4030   -2.2470    4.6800 h1        1 K20      0.067700
     49 H13         1.7020   -1.0820    7.1090 hc        1 K20      0.070700
     50 H14         2.8930   -3.8600    7.8050 hc        1 K20      0.047033
     51 H14A        2.6800   -2.4630    8.9370 hc        1 K20      0.047033
     52 H14B        1.2290   -3.2670    8.2230 hc        1 K20      0.047033
     53 H15         4.4320   -2.3880    6.4740 hc        1 K20      0.040200
     54 H15A        3.7920   -0.9000    5.6670 hc        1 K20      0.040200
     55 H16        -0.6650   -2.1310    7.0110 h1        1 K20      0.084700
     56 H16A       -0.0890   -3.8430    6.7500 h1        1 K20      0.084700
     57 H17        -2.2460   -2.5430    4.8980 h1        1 K20      0.124700
     58 H18         4.4150   -1.2500    8.6760 hc        1 K20      0.051033
     59 H18A        5.2680   -0.2110    7.4680 hc        1 K20      0.051033
     60 H18B        3.5720    0.1900    7.9700 hc        1 K20      0.051033
     61 HO18       -1.2830   -5.1650    5.3410 ho        1 K20      0.429000
     62 H19        -3.0920   -2.4620    7.2550 hx        1 K20      0.127700
     63 HN20       -4.1280   -4.6430    5.5100 hn        1 K20      0.490800
     64 H24        -6.2360   -1.6180    3.4180 h1        1 K20      0.114700
     65 H25        -4.9320    0.4020    3.3670 h1        1 K20      0.086200
     66 H25A       -3.7310   -0.5450    4.3930 h1        1 K20      0.086200
     67 H27        -3.6570   -0.8570    0.3770 h2        1 K20      0.125700
     68 H29        -2.4160   -4.2100    0.7590 h1        1 K20      0.062700
     69 H29A       -2.4560   -3.9280    2.5770 h1        1 K20      0.062700
     70 H30        -4.7740   -4.0540    0.5910 hc        1 K20      0.079200
     71 H30A       -4.7910   -4.3500    2.3710 hc        1 K20      0.079200
     72 H31        -5.7430   -1.9870    1.1290 hc        1 K20      0.118700
     73 H32        -1.6400   -4.0800    8.3590 hc        1 K20      0.085200
     74 H32A       -2.2260   -5.4570    7.3300 hc        1 K20      0.085200
     75 H35        -6.4200   -5.4990   11.4230 ha        1 K20      0.168000
     76 H36        -4.9250   -3.5170   11.7160 ha        1 K20      0.163500
     77 H37        -3.1330   -3.0480   10.0540 ha        1 K20      0.134000
     78 H33        -4.3110   -6.5630    7.8060 ha        1 K20      0.134000
     79 H111        0.2210   -2.8810    4.3510 hn        1 K20      0.394800
     80 H202       -4.9190   -4.1320    6.9180 hn        1 K20      0.490800
     81 H34        -6.1130   -7.0130    9.4600 ha        1 K20      0.163500
@<TRIPOS>BOND
     1    1    2 1   
     2    1    4 1   
     3    1   42 1   
     4    1   43 1   
     5    2    3 1   
     6    3    5 ar  
     7    3    9 ar  
     8    4    5 1   
     9    5    6 ar  
    10    6    7 ar  
    11    6   44 1   
    12    7    8 ar  
    13    7   10 1   
    14    8    9 ar  
    15    8   45 1   
    16    9   46 1   
    17   10   11 1   
    18   10   12 1   
    19   13   14 1   
    20   13   18 1   
    21   13   79 1   
    22   14   15 1   
    23   14   47 1   
    24   14   48 1   
    25   15   16 1   
    26   15   17 1   
    27   15   49 1   
    28   16   50 1   
    29   16   51 1   
    30   16   52 1   
    31   17   20 1   
    32   17   53 1   
    33   17   54 1   
    34   18   19 1   
    35   18   55 1   
    36   18   56 1   
    37   19   21 1   
    38   19   22 1   
    39   19   57 1   
    40   20   58 1   
    41   20   59 1   
    42   20   60 1   
    43   21   61 1   
    44   22   23 1   
    45   22   35 1   
    46   22   62 1   
    47   23   24 1   
    48   23   63 1   
    49   23   80 1   
    50   24   25 2   
    51   24   26 1   
    52   26   27 1   
    53   27   28 1   
    54   27   34 1   
    55   27   64 1   
    56   28   29 1   
    57   28   65 1   
    58   28   66 1   
    59   29   30 1   
    60   30   31 1   
    61   30   34 1   
    62   30   67 1   
    63   31   32 1   
    64   32   33 1   
    65   32   68 1   
    66   32   69 1   
    67   33   34 1   
    68   33   70 1   
    69   33   71 1   
    70   34   72 1   
    71   35   41 1   
    72   35   73 1   
    73   35   74 1   
    74   36   37 ar  
    75   36   41 ar  
    76   36   78 1   
    77   37   38 ar  
    78   37   81 1   
    79   38   39 ar  
    80   38   75 1   
    81   39   40 ar  
    82   39   76 1   
    83   40   41 ar  
    84   40   77 1   
@<TRIPOS>SUBSTRUCTURE
     1 K20         1 TEMP              0 ****  ****    0 ROOT
