@<TRIPOS>MOLECULE
K20
   81    84     1     0     0
SMALL
bcc


@<TRIPOS>ATOM
      1 C1          1.4370    0.0960   -1.1490 c3        1 K20      0.317200
      2 O1          2.5240    0.5120   -0.2550 os        1 K20     -0.271900
      3 C2          2.0720    0.4080    1.0180 ca        1 K20      0.244100
      4 O2          0.3220   -0.2750   -0.3020 os        1 K20     -0.302900
      5 C3          0.7200   -0.0730    1.0130 ca        1 K20      0.026100
      6 C4          0.0060   -0.2690    2.1590 ca        1 K20      0.014000
      7 C5          0.6580    0.0350    3.4050 ca        1 K20     -0.649500
      8 C6          2.0090    0.4980    3.3790 ca        1 K20      0.054000
      9 C7          2.7320    0.6940    2.2150 ca        1 K20     -0.158000
     10 S8         -0.1040   -0.0810    4.7370 s4        1 K20      1.694300
     11 O9          0.4790    0.3970    5.8670 o         1 K20     -0.454400
     12 O10        -1.4290   -0.4040    4.7470 o         1 K20     -0.454400
     13 N11         0.4070   -2.4320    5.2290 n7        1 K20     -0.903200
     14 C12         1.8160   -2.6760    5.5640 c3        1 K20      0.121800
     15 C13         2.3370   -2.0020    6.8450 c3        1 K20     -0.083700
     16 C14         2.2730   -2.9550    8.0200 c3        1 K20     -0.098100
     17 C15         3.7730   -1.5430    6.6020 c3        1 K20     -0.071400
     18 C16        -0.5270   -2.9280    6.2400 c3        1 K20      0.104800
     19 C17        -1.8960   -3.3110    5.6510 c3        1 K20      0.095100
     20 C18         4.3000   -0.6800    7.7200 c3        1 K20     -0.102100
     21 O18        -1.8370   -4.5000    4.8930 oh        1 K20     -0.594800
     22 C19        -2.9570   -3.4250    6.7760 c3        1 K20      0.104500
     23 N20        -4.2950   -3.7960    6.1750 ny        1 K20     -0.637800
     24 C21        -4.8900   -2.6590    5.4110 c         1 K20      0.616100
     25 O22        -5.4780   -1.7330    5.9490 o         1 K20     -0.409000
     26 O23        -4.6910   -2.8290    4.0890 os        1 K20     -0.401900
     27 C24        -5.1430   -1.7520    3.2040 c3        1 K20      0.138100
     28 C25        -4.2740   -0.5030    3.4050 c3        1 K20      0.098400
     29 O26        -3.3030   -0.4520    2.3560 os        1 K20     -0.432600
     30 C27        -3.6040   -1.4110    1.3490 c3        1 K20      0.319900
     31 O28        -2.4800   -2.2800    1.3700 os        1 K20     -0.445600
     32 C29        -2.8980   -3.6360    1.6030 c3        1 K20      0.123400
     33 C30        -4.4270   -3.6740    1.5970 c3        1 K20     -0.099400
     34 C31        -4.8570   -2.2230    1.7680 c3        1 K20     -0.112700
     35 C32        -2.5620   -4.4450    7.8540 c3        1 K20     -0.050100
     36 C33        -4.5080   -5.7770    8.6900 ca        1 K20     -0.132000
     37 C34        -5.5080   -6.0170    9.6300 ca        1 K20     -0.107500
     38 C35        -5.6660   -5.1570   10.7190 ca        1 K20     -0.086000
     39 C36        -4.8170   -4.0590   10.8680 ca        1 K20     -0.107500
     40 C37        -3.8140   -3.8170    9.9300 ca        1 K20     -0.132000
     41 C38        -3.6560   -4.6730    8.8340 ca        1 K20     -0.177300
     42 H1          1.1490    0.9790   -1.7740 h2        1 K20      0.119700
     43 H1A         1.7830   -0.8030   -1.7170 h2        1 K20      0.119700
     44 H4         -1.0430   -0.6360    2.1350 ha        1 K20      0.222000
     45 H6          2.5030    0.7230    4.3470 ha        1 K20      0.180000
     46 H7          3.7710    1.0640    2.2240 ha        1 K20      0.207000
     47 H12         2.0150   -3.7850    5.6420 h1        1 K20      0.067700
     48 H12A        2.4050   -2.2980    4.6770 h1        1 K20      0.067700
     49 H13         1.7200   -1.0910    7.0900 hc        1 K20      0.070700
     50 H14         2.6820   -2.4600    8.9350 hc        1 K20      0.047033
     51 H14A        2.8760   -3.8740    7.8230 hc        1 K20      0.047033
     52 H14B        1.2200   -3.2550    8.2330 hc        1 K20      0.047033
     53 H15         3.8120   -0.9560    5.6440 hc        1 K20      0.040200
     54 H15A        4.4330   -2.4410    6.4720 hc        1 K20      0.040200
     55 H16        -0.1060   -3.8340    6.7690 h1        1 K20      0.084700
     56 H16A       -0.6600   -2.1130    7.0080 h1        1 K20      0.084700
     57 H17        -2.2480   -2.5310    4.9020 h1        1 K20      0.124700
     58 H18         4.4310   -1.2720    8.6580 hc        1 K20      0.051033
     59 H18A        5.2970   -0.2610    7.4360 hc        1 K20      0.051033
     60 H18B        3.6060    0.1690    7.9320 hc        1 K20      0.051033
     61 HO18       -1.3180   -5.1590    5.3770 ho        1 K20      0.429000
     62 H19        -3.0900   -2.4090    7.2590 hx        1 K20      0.127700
     63 HN20       -4.1560   -4.5990    5.5430 hn        1 K20      0.490800
     64 H24        -6.2280   -1.5730    3.4150 h1        1 K20      0.114700
     65 H25        -3.7080   -0.5220    4.3720 h1        1 K20      0.086200
     66 H25A       -4.8970    0.4280    3.3360 h1        1 K20      0.086200
     67 H27        -3.6450   -0.8870    0.3600 h2        1 K20      0.125700
     68 H29        -2.4810   -3.9440    2.5980 h1        1 K20      0.062700
     69 H29A       -2.4480   -4.2510    0.7840 h1        1 K20      0.062700
     70 H30        -4.8230   -4.3380    2.4010 hc        1 K20      0.079200
     71 H30A       -4.8040   -4.0660    0.6170 hc        1 K20      0.079200
     72 H31        -5.7450   -1.9790    1.1310 hc        1 K20      0.118700
     73 H32        -2.2620   -5.4140    7.3710 hc        1 K20      0.085200
     74 H32A       -1.6580   -4.0320    8.3820 hc        1 K20      0.085200
     75 H35        -6.4520   -5.3530   11.4680 ha        1 K20      0.168000
     76 H36        -4.9320   -3.3860   11.7340 ha        1 K20      0.163500
     77 H37        -3.1350   -2.9610   10.0650 ha        1 K20      0.134000
     78 H33        -4.3610   -6.4880    7.8620 ha        1 K20      0.134000
     79 H111        0.2150   -2.9100    4.3570 hn        1 K20      0.394800
     80 H202       -4.9390   -4.0600    6.9440 hn        1 K20      0.490800
     81 H34        -6.1660   -6.8950    9.5230 ha        1 K20      0.163500
@<TRIPOS>BOND
     1    1    2 1   
     2    1    4 1   
     3    1   42 1   
     4    1   43 1   
     5    2    3 1   
     6    3    5 ar  
     7    3    9 ar  
     8    4    5 1   
     9    5    6 ar  
    10    6    7 ar  
    11    6   44 1   
    12    7    8 ar  
    13    7   10 1   
    14    8    9 ar  
    15    8   45 1   
    16    9   46 1   
    17   10   11 1   
    18   10   12 1   
    19   13   14 1   
    20   13   18 1   
    21   13   79 1   
    22   14   15 1   
    23   14   47 1   
    24   14   48 1   
    25   15   16 1   
    26   15   17 1   
    27   15   49 1   
    28   16   50 1   
    29   16   51 1   
    30   16   52 1   
    31   17   20 1   
    32   17   53 1   
    33   17   54 1   
    34   18   19 1   
    35   18   55 1   
    36   18   56 1   
    37   19   21 1   
    38   19   22 1   
    39   19   57 1   
    40   20   58 1   
    41   20   59 1   
    42   20   60 1   
    43   21   61 1   
    44   22   23 1   
    45   22   35 1   
    46   22   62 1   
    47   23   24 1   
    48   23   63 1   
    49   23   80 1   
    50   24   25 2   
    51   24   26 1   
    52   26   27 1   
    53   27   28 1   
    54   27   34 1   
    55   27   64 1   
    56   28   29 1   
    57   28   65 1   
    58   28   66 1   
    59   29   30 1   
    60   30   31 1   
    61   30   34 1   
    62   30   67 1   
    63   31   32 1   
    64   32   33 1   
    65   32   68 1   
    66   32   69 1   
    67   33   34 1   
    68   33   70 1   
    69   33   71 1   
    70   34   72 1   
    71   35   41 1   
    72   35   73 1   
    73   35   74 1   
    74   36   37 ar  
    75   36   41 ar  
    76   36   78 1   
    77   37   38 ar  
    78   37   81 1   
    79   38   39 ar  
    80   38   75 1   
    81   39   40 ar  
    82   39   76 1   
    83   40   41 ar  
    84   40   77 1   
@<TRIPOS>SUBSTRUCTURE
     1 K20         1 TEMP              0 ****  ****    0 ROOT
