@<TRIPOS>MOLECULE
K21
   62    65     1     0     0
SMALL
bcc


@<TRIPOS>ATOM
      1 C1         -0.1790   -0.4290    0.0430 ca        1 K21      0.137100
      2 C2          1.2130   -0.2730   -0.0760 ca        1 K21     -0.141000
      3 C3          1.9950   -0.1370    1.0700 ca        1 K21     -0.049300
      4 C4          1.3890   -0.1170    2.3370 ca        1 K21     -0.049100
      5 C5          0.0010   -0.2590    2.4340 ca        1 K21     -0.062000
      6 C6         -0.7910   -0.4300    1.3030 ca        1 K21     -0.207000
      7 C10         3.4920   -0.0720    0.9000 c3        1 K21      0.127300
      8 N11         4.1340    1.1340    1.3720 n         1 K21     -0.471800
      9 C12         4.4550    1.2000    2.7740 c3        1 K21      0.093000
     10 C13         3.2680    1.3780    3.7110 c3        1 K21     -0.064300
     11 S14         2.2190   -0.0330    3.8220 ss        1 K21     -0.214000
     12 C21         4.1590    2.2600    0.5460 c         1 K21      0.659100
     13 C22         4.6460    3.5780    1.1150 c3        1 K21     -0.148400
     14 O23         3.8290    2.1520   -0.6510 o         1 K21     -0.600100
     15 C24         4.4740    4.6850    0.0710 c3        1 K21      0.175800
     16 N27         5.0200    5.9590    0.5200 n3        1 K21     -0.738600
     17 C30         5.4510    6.7920   -0.5960 c3        1 K21      0.172300
     18 C31         6.0260    8.1380   -0.1600 c3        1 K21     -0.076400
     19 C32         5.0520    8.8820    0.7400 c3        1 K21     -0.061700
     20 C33         4.6790    7.9950    1.9160 c3        1 K21     -0.076400
     21 C34         4.1250    6.6570    1.4340 c3        1 K21      0.172300
     22 C43         5.6640   10.1970    1.2060 c3        1 K21     -0.035100
     23 C45         4.6860   11.3800    3.1920 ca        1 K21     -0.129000
     24 C48         3.7540   12.2490    3.7570 ca        1 K21     -0.128500
     25 C49         2.7870   12.8560    2.9570 ca        1 K21     -0.133000
     26 C50         2.7550   12.5920    1.5870 ca        1 K21     -0.128500
     27 C51         3.6870   11.7240    1.0210 ca        1 K21     -0.129000
     28 C52         4.6600   11.1090    1.8190 ca        1 K21     -0.076300
     29 O58        -0.8510   -0.5740   -1.1530 os        1 K21     -0.322900
     30 C59        -2.2650   -0.7080   -1.0680 c3        1 K21      0.112700
     31 H2          1.6690   -0.2560   -1.0780 ha        1 K21      0.163000
     32 H5         -0.4740   -0.2370    3.4290 ha        1 K21      0.145000
     33 H6         -1.8770   -0.5540    1.4090 ha        1 K21      0.140000
     34 H101        3.9380   -0.9500    1.4540 h1        1 K21      0.077700
     35 H102        3.7410   -0.1820   -0.1970 h1        1 K21      0.077700
     36 H121        5.1830    2.0420    2.9540 h1        1 K21      0.060700
     37 H122        4.9840    0.2390    3.0500 h1        1 K21      0.060700
     38 H131        2.6850    2.2890    3.4370 h1        1 K21      0.081200
     39 H132        3.6540    1.5110    4.7550 h1        1 K21      0.081200
     40 H221        4.0640    3.8230    2.0420 hc        1 K21      0.070700
     41 H222        5.7290    3.4820    1.3940 hc        1 K21      0.070700
     42 H241        3.3780    4.7600   -0.1880 h1        1 K21      0.052700
     43 H242        5.0120    4.3600   -0.8660 h1        1 K21      0.052700
     44 H301        4.6020    6.9840   -1.3180 h1        1 K21      0.030200
     45 H302        6.2500    6.2250   -1.1520 h1        1 K21      0.030200
     46 H311        6.9940    7.9810    0.3830 hc        1 K21      0.049200
     47 H312        6.2410    8.7420   -1.0790 hc        1 K21      0.049200
     48 H32         4.1190    9.1100    0.1510 hc        1 K21      0.051700
     49 H331        5.5800    7.8240    2.5610 hc        1 K21      0.049200
     50 H332        3.9000    8.5010    2.5430 hc        1 K21      0.049200
     51 H341        3.9680    5.9890    2.3270 h1        1 K21      0.030200
     52 H342        3.1130    6.8380    0.9630 h1        1 K21      0.030200
     53 H431        6.1280   10.7130    0.3220 hc        1 K21      0.050200
     54 H432        6.4890    9.9830    1.9370 hc        1 K21      0.050200
     55 H48         3.7840   12.4570    4.8370 ha        1 K21      0.130000
     56 H49         2.0530   13.5420    3.4030 ha        1 K21      0.131000
     57 H50         1.9950   13.0700    0.9530 ha        1 K21      0.130000
     58 H51         3.6610   11.5180   -0.0600 ha        1 K21      0.131000
     59 H591       -2.5410   -1.6280   -0.4980 h1        1 K21      0.045700
     60 H592       -2.5830   -0.7960   -2.1380 h1        1 K21      0.045700
     61 H593       -2.7200    0.1970   -0.5960 h1        1 K21      0.045700
     62 H45         5.4480   10.9050    3.8290 ha        1 K21      0.131000
@<TRIPOS>BOND
     1    1    2 ar  
     2    1    6 ar  
     3    1   29 1   
     4    2    3 ar  
     5    2   31 1   
     6    3    4 ar  
     7    3    7 1   
     8    4    5 ar  
     9    4   11 1   
    10    5    6 ar  
    11    5   32 1   
    12    6   33 1   
    13    7    8 1   
    14    7   34 1   
    15    7   35 1   
    16    8    9 1   
    17    8   12 1   
    18    9   10 1   
    19    9   36 1   
    20    9   37 1   
    21   10   11 1   
    22   10   38 1   
    23   10   39 1   
    24   12   13 1   
    25   12   14 2   
    26   13   15 1   
    27   13   40 1   
    28   13   41 1   
    29   15   16 1   
    30   15   42 1   
    31   15   43 1   
    32   16   17 1   
    33   16   21 1   
    34   17   18 1   
    35   17   44 1   
    36   17   45 1   
    37   18   19 1   
    38   18   46 1   
    39   18   47 1   
    40   19   20 1   
    41   19   22 1   
    42   19   48 1   
    43   20   21 1   
    44   20   49 1   
    45   20   50 1   
    46   21   51 1   
    47   21   52 1   
    48   22   28 1   
    49   22   53 1   
    50   22   54 1   
    51   23   24 ar  
    52   23   28 ar  
    53   23   62 1   
    54   24   25 ar  
    55   24   55 1   
    56   25   26 ar  
    57   25   56 1   
    58   26   27 ar  
    59   26   57 1   
    60   27   28 ar  
    61   27   58 1   
    62   29   30 1   
    63   30   59 1   
    64   30   60 1   
    65   30   61 1   
@<TRIPOS>SUBSTRUCTURE
     1 K21         1 TEMP              0 ****  ****    0 ROOT
