@<TRIPOS>MOLECULE
K21
   62    65     1     0     0
SMALL
bcc


@<TRIPOS>ATOM
      1 C1         -0.1760   -0.4310    0.0390 ca        1 K21      0.137100
      2 C2          1.2160   -0.2740   -0.0820 ca        1 K21     -0.141000
      3 C3          2.0000   -0.1400    1.0630 ca        1 K21     -0.049300
      4 C4          1.3950   -0.1230    2.3310 ca        1 K21     -0.049100
      5 C5          0.0070   -0.2670    2.4300 ca        1 K21     -0.062000
      6 C6         -0.7860   -0.4360    1.3000 ca        1 K21     -0.207000
      7 C10         3.4960   -0.0740    0.8910 c3        1 K21      0.127300
      8 N11         4.1380    1.1320    1.3660 n         1 K21     -0.471800
      9 C12         4.4610    1.1940    2.7670 c3        1 K21      0.093000
     10 C13         3.2750    1.3700    3.7060 c3        1 K21     -0.064300
     11 S14         2.2270   -0.0420    3.8160 ss        1 K21     -0.214000
     12 C21         4.1620    2.2590    0.5420 c         1 K21      0.659100
     13 C22         4.6490    3.5760    1.1130 c3        1 K21     -0.148400
     14 O23         3.8300    2.1540   -0.6560 o         1 K21     -0.600100
     15 C24         4.4770    4.6850    0.0710 c3        1 K21      0.175800
     16 N27         5.0200    5.9590    0.5230 n3        1 K21     -0.738600
     17 C30         5.4550    6.7930   -0.5900 c3        1 K21      0.172300
     18 C31         6.0290    8.1380   -0.1500 c3        1 K21     -0.076400
     19 C32         5.0510    8.8820    0.7470 c3        1 K21     -0.061700
     20 C33         4.6730    7.9930    1.9210 c3        1 K21     -0.076400
     21 C34         4.1210    6.6560    1.4340 c3        1 K21      0.172300
     22 C43         5.6600   10.1960    1.2180 c3        1 K21     -0.035100
     23 C45         4.6700   11.3750    3.2000 ca        1 K21     -0.129000
     24 C48         3.7350   12.2440    3.7600 ca        1 K21     -0.128500
     25 C49         2.7750   12.8540    2.9550 ca        1 K21     -0.133000
     26 C50         2.7520   12.5930    1.5840 ca        1 K21     -0.128500
     27 C51         3.6860   11.7260    1.0220 ca        1 K21     -0.129000
     28 C52         4.6530   11.1080    1.8260 ca        1 K21     -0.076300
     29 O58        -0.8500   -0.5740   -1.1570 os        1 K21     -0.322900
     30 C59        -2.2640   -0.7090   -1.0690 c3        1 K21      0.112700
     31 H2          1.6700   -0.2540   -1.0850 ha        1 K21      0.163000
     32 H5         -0.4660   -0.2470    3.4260 ha        1 K21      0.145000
     33 H6         -1.8720   -0.5600    1.4070 ha        1 K21      0.140000
     34 H101        3.7440   -0.1810   -0.2060 h1        1 K21      0.077700
     35 H102        3.9430   -0.9530    1.4430 h1        1 K21      0.077700
     36 H121        5.1890    2.0370    2.9480 h1        1 K21      0.060700
     37 H122        4.9910    0.2340    3.0410 h1        1 K21      0.060700
     38 H131        3.6620    1.5010    4.7490 h1        1 K21      0.081200
     39 H132        2.6910    2.2820    3.4350 h1        1 K21      0.081200
     40 H221        5.7320    3.4800    1.3910 hc        1 K21      0.070700
     41 H222        4.0670    3.8190    2.0410 hc        1 K21      0.070700
     42 H241        5.0160    4.3630   -0.8660 h1        1 K21      0.052200
     43 H242        3.3800    4.7590   -0.1900 h1        1 K21      0.052200
     44 H301        4.6100    6.9860   -1.3150 h1        1 K21      0.030200
     45 H302        6.2570    6.2270   -1.1430 h1        1 K21      0.030200
     46 H311        6.2470    8.7440   -1.0670 hc        1 K21      0.049200
     47 H312        6.9950    7.9820    0.3970 hc        1 K21      0.049200
     48 H32         4.1210    9.1100    0.1540 hc        1 K21      0.051700
     49 H331        5.5710    7.8210    2.5680 hc        1 K21      0.049200
     50 H332        3.8910    8.4990    2.5440 hc        1 K21      0.049200
     51 H341        3.1110    6.8380    0.9590 h1        1 K21      0.030200
     52 H342        3.9590    5.9870    2.3250 h1        1 K21      0.030200
     53 H431        6.1300   10.7130    0.3360 hc        1 K21      0.050200
     54 H432        6.4810    9.9810    1.9520 hc        1 K21      0.050200
     55 H48         3.7570   12.4480    4.8410 ha        1 K21      0.130000
     56 H49         2.0380   13.5400    3.3970 ha        1 K21      0.131000
     57 H50         1.9970   13.0740    0.9460 ha        1 K21      0.130000
     58 H51         3.6680   11.5230   -0.0590 ha        1 K21      0.131000
     59 H591       -2.7190    0.1940   -0.5940 h1        1 K21      0.045700
     60 H592       -2.5370   -1.6310   -0.5010 h1        1 K21      0.045700
     61 H593       -2.5830   -0.7950   -2.1390 h1        1 K21      0.045700
     62 H45         5.4260   10.8970    3.8400 ha        1 K21      0.131000
@<TRIPOS>BOND
     1    1    2 ar  
     2    1    6 ar  
     3    1   29 1   
     4    2    3 ar  
     5    2   31 1   
     6    3    4 ar  
     7    3    7 1   
     8    4    5 ar  
     9    4   11 1   
    10    5    6 ar  
    11    5   32 1   
    12    6   33 1   
    13    7    8 1   
    14    7   34 1   
    15    7   35 1   
    16    8    9 1   
    17    8   12 1   
    18    9   10 1   
    19    9   36 1   
    20    9   37 1   
    21   10   11 1   
    22   10   38 1   
    23   10   39 1   
    24   12   13 1   
    25   12   14 2   
    26   13   15 1   
    27   13   40 1   
    28   13   41 1   
    29   15   16 1   
    30   15   42 1   
    31   15   43 1   
    32   16   17 1   
    33   16   21 1   
    34   17   18 1   
    35   17   44 1   
    36   17   45 1   
    37   18   19 1   
    38   18   46 1   
    39   18   47 1   
    40   19   20 1   
    41   19   22 1   
    42   19   48 1   
    43   20   21 1   
    44   20   49 1   
    45   20   50 1   
    46   21   51 1   
    47   21   52 1   
    48   22   28 1   
    49   22   53 1   
    50   22   54 1   
    51   23   24 ar  
    52   23   28 ar  
    53   23   62 1   
    54   24   25 ar  
    55   24   55 1   
    56   25   26 ar  
    57   25   56 1   
    58   26   27 ar  
    59   26   57 1   
    60   27   28 ar  
    61   27   58 1   
    62   29   30 1   
    63   30   59 1   
    64   30   60 1   
    65   30   61 1   
@<TRIPOS>SUBSTRUCTURE
     1 K21         1 TEMP              0 ****  ****    0 ROOT
