@<TRIPOS>MOLECULE
K21
   62    65     1     0     0
SMALL
bcc


@<TRIPOS>ATOM
      1 C1          1.4340   -1.4990   -5.6050 ca        1 K21      0.137100
      2 C2          0.1490   -1.3290   -5.0590 ca        1 K21     -0.141000
      3 C3         -0.2720   -0.0600   -4.6630 ca        1 K21     -0.049300
      4 C4          0.5980    1.0360   -4.7750 ca        1 K21     -0.049100
      5 C5          1.8770    0.8450   -5.3080 ca        1 K21     -0.062000
      6 C6          2.3020   -0.4080   -5.7390 ca        1 K21     -0.207000
      7 C10        -1.6910    0.0920   -4.1760 c3        1 K21      0.127300
      8 N11        -1.8490    0.5690   -2.8210 n         1 K21     -0.471800
      9 C12        -1.8000    1.9930   -2.6160 c3        1 K21      0.093000
     10 C13        -0.4230    2.6280   -2.7550 c3        1 K21     -0.064300
     11 S14         0.1980    2.6500   -4.4030 ss        1 K21     -0.214000
     12 C21        -1.7620   -0.3410   -1.7650 c         1 K21      0.659100
     13 C22        -1.7240    0.1840   -0.3440 c3        1 K21     -0.148400
     14 O23        -1.7660   -1.5650   -2.0050 o         1 K21     -0.600100
     15 C24        -1.5090   -0.9790    0.6300 c3        1 K21      0.175800
     16 N27        -1.5650   -0.5530    2.0220 n3        1 K21     -0.738600
     17 C30        -2.0050   -1.6270    2.9040 c3        1 K21      0.172300
     18 C31        -2.0720   -1.2140    4.3730 c3        1 K21     -0.076400
     19 C32        -0.7480   -0.6280    4.8360 c3        1 K21     -0.061700
     20 C33        -0.3610    0.5220    3.9210 c3        1 K21     -0.076400
     21 C34        -0.3230    0.0690    2.4640 c3        1 K21      0.172300
     22 C43        -0.8490   -0.1750    6.2870 c3        1 K21     -0.035100
     23 C45         0.8570    1.4200    7.2070 ca        1 K21     -0.129000
     24 C48         2.0970    1.6770    7.7900 ca        1 K21     -0.128500
     25 C49         2.9730    0.6270    8.0640 ca        1 K21     -0.133000
     26 C50         2.6050   -0.6820    7.7550 ca        1 K21     -0.128500
     27 C51         1.3650   -0.9410    7.1720 ca        1 K21     -0.129000
     28 C52         0.4810    0.1090    6.8920 ca        1 K21     -0.076300
     29 O58         1.7380   -2.7920   -5.9800 os        1 K21     -0.322900
     30 C59         3.0410   -3.0020   -6.5120 c3        1 K21      0.112700
     31 H2         -0.5080   -2.2050   -4.9460 ha        1 K21      0.163000
     32 H5          2.5610    1.7060   -5.3880 ha        1 K21      0.145000
     33 H6          3.3060   -0.5280   -6.1660 ha        1 K21      0.140000
     34 H101       -2.2130   -0.9080   -4.2480 h1        1 K21      0.077700
     35 H102       -2.2150    0.8160   -4.8690 h1        1 K21      0.077700
     36 H121       -2.2070    2.2400   -1.5940 h1        1 K21      0.060700
     37 H122       -2.4890    2.4730   -3.3740 h1        1 K21      0.060700
     38 H131        0.3040    2.1430   -2.0600 h1        1 K21      0.081200
     39 H132       -0.4990    3.7110   -2.4800 h1        1 K21      0.081200
     40 H221       -0.8950    0.9330   -0.2440 hc        1 K21      0.070700
     41 H222       -2.6940    0.7000   -0.1140 hc        1 K21      0.070700
     42 H241       -2.3210   -1.7390    0.4410 h1        1 K21      0.052700
     43 H242       -0.5270   -1.4760    0.3760 h1        1 K21      0.052700
     44 H301       -3.0370   -1.9350    2.5720 h1        1 K21      0.030200
     45 H302       -1.3330   -2.5320    2.8180 h1        1 K21      0.030200
     46 H311       -2.8880   -0.4610    4.5210 hc        1 K21      0.049200
     47 H312       -2.3260   -2.1200    4.9810 hc        1 K21      0.049200
     48 H32         0.0450   -1.4260    4.7650 hc        1 K21      0.051700
     49 H331       -1.0950    1.3610    4.0400 hc        1 K21      0.049200
     50 H332        0.6520    0.9100    4.2030 hc        1 K21      0.049200
     51 H341        0.5580   -0.6270    2.3300 h1        1 K21      0.030200
     52 H342       -0.1460    0.9690    1.8110 h1        1 K21      0.030200
     53 H431       -1.5030    0.7360    6.3450 hc        1 K21      0.050200
     54 H432       -1.3520   -0.9840    6.8840 hc        1 K21      0.050200
     55 H48         2.3830    2.7100    8.0340 ha        1 K21      0.130000
     56 H49         3.9500    0.8310    8.5250 ha        1 K21      0.131000
     57 H50         3.2920   -1.5130    7.9710 ha        1 K21      0.130000
     58 H51         1.0760   -1.9740    6.9310 ha        1 K21      0.131000
     59 H591        3.0600   -4.1010   -6.7250 h1        1 K21      0.045700
     60 H592        3.1820   -2.4160   -7.4520 h1        1 K21      0.045700
     61 H593        3.8230   -2.7330   -5.7610 h1        1 K21      0.045700
     62 H45         0.1700    2.2520    6.9930 ha        1 K21      0.131000
@<TRIPOS>BOND
     1    1    2 ar  
     2    1    6 ar  
     3    1   29 1   
     4    2    3 ar  
     5    2   31 1   
     6    3    4 ar  
     7    3    7 1   
     8    4    5 ar  
     9    4   11 1   
    10    5    6 ar  
    11    5   32 1   
    12    6   33 1   
    13    7    8 1   
    14    7   34 1   
    15    7   35 1   
    16    8    9 1   
    17    8   12 1   
    18    9   10 1   
    19    9   36 1   
    20    9   37 1   
    21   10   11 1   
    22   10   38 1   
    23   10   39 1   
    24   12   13 1   
    25   12   14 2   
    26   13   15 1   
    27   13   40 1   
    28   13   41 1   
    29   15   16 1   
    30   15   42 1   
    31   15   43 1   
    32   16   17 1   
    33   16   21 1   
    34   17   18 1   
    35   17   44 1   
    36   17   45 1   
    37   18   19 1   
    38   18   46 1   
    39   18   47 1   
    40   19   20 1   
    41   19   22 1   
    42   19   48 1   
    43   20   21 1   
    44   20   49 1   
    45   20   50 1   
    46   21   51 1   
    47   21   52 1   
    48   22   28 1   
    49   22   53 1   
    50   22   54 1   
    51   23   24 ar  
    52   23   28 ar  
    53   23   62 1   
    54   24   25 ar  
    55   24   55 1   
    56   25   26 ar  
    57   25   56 1   
    58   26   27 ar  
    59   26   57 1   
    60   27   28 ar  
    61   27   58 1   
    62   29   30 1   
    63   30   59 1   
    64   30   60 1   
    65   30   61 1   
@<TRIPOS>SUBSTRUCTURE
     1 K21         1 TEMP              0 ****  ****    0 ROOT
