@<TRIPOS>MOLECULE
K21
   62    65     1     0     0
SMALL
bcc


@<TRIPOS>ATOM
      1 C1         -0.1820   -0.4290    0.0570 ca        1 K21      0.137100
      2 C2          1.2100   -0.2730   -0.0690 ca        1 K21     -0.141000
      3 C3          1.9960   -0.1370    1.0750 ca        1 K21     -0.049300
      4 C4          1.3950   -0.1180    2.3440 ca        1 K21     -0.049100
      5 C5          0.0070   -0.2610    2.4470 ca        1 K21     -0.062000
      6 C6         -0.7890   -0.4320    1.3180 ca        1 K21     -0.207000
      7 C10         3.4920   -0.0720    0.8990 c3        1 K21      0.127300
      8 N11         4.1350    1.1340    1.3690 n         1 K21     -0.471800
      9 C12         4.4630    1.2000    2.7700 c3        1 K21      0.093000
     10 C13         3.2790    1.3770    3.7110 c3        1 K21     -0.064300
     11 S14         2.2310   -0.0340    3.8260 ss        1 K21     -0.214000
     12 C21         4.1570    2.2600    0.5430 c         1 K21      0.659100
     13 C22         4.6470    3.5780    1.1110 c3        1 K21     -0.148400
     14 O23         3.8220    2.1530   -0.6530 o         1 K21     -0.600100
     15 C24         4.4710    4.6850    0.0670 c3        1 K21      0.175800
     16 N27         5.0170    5.9590    0.5140 n3        1 K21     -0.738600
     17 C30         5.4450    6.7920   -0.6030 c3        1 K21      0.172300
     18 C31         6.0210    8.1380   -0.1690 c3        1 K21     -0.076400
     19 C32         5.0500    8.8830    0.7340 c3        1 K21     -0.061700
     20 C33         4.6800    7.9960    1.9110 c3        1 K21     -0.076400
     21 C34         4.1250    6.6570    1.4310 c3        1 K21      0.172300
     22 C43         5.6620   10.1980    1.1980 c3        1 K21     -0.035100
     23 C45         4.6900   11.3800    3.1860 ca        1 K21     -0.129000
     24 C48         3.7590   12.2500    3.7530 ca        1 K21     -0.128500
     25 C49         2.7900   12.8570    2.9550 ca        1 K21     -0.133000
     26 C50         2.7550   12.5920    1.5860 ca        1 K21     -0.128500
     27 C51         3.6850   11.7240    1.0170 ca        1 K21     -0.129000
     28 C52         4.6600   11.1100    1.8140 ca        1 K21     -0.076300
     29 O58        -0.8590   -0.5740   -1.1380 os        1 K21     -0.322900
     30 C59        -2.2730   -0.7080   -1.0470 c3        1 K21      0.112700
     31 H2          1.6620   -0.2550   -1.0720 ha        1 K21      0.163000
     32 H5         -0.4640   -0.2390    3.4430 ha        1 K21      0.145000
     33 H6         -1.8750   -0.5550    1.4290 ha        1 K21      0.140000
     34 H101        3.7370   -0.1810   -0.1990 h1        1 K21      0.077700
     35 H102        3.9410   -0.9500    1.4510 h1        1 K21      0.077700
     36 H121        4.9920    0.2390    3.0440 h1        1 K21      0.060700
     37 H122        5.1910    2.0420    2.9470 h1        1 K21      0.060700
     38 H131        3.6680    1.5100    4.7530 h1        1 K21      0.081200
     39 H132        2.6940    2.2890    3.4400 h1        1 K21      0.081200
     40 H221        5.7300    3.4820    1.3850 hc        1 K21      0.070700
     41 H222        4.0680    3.8230    2.0400 hc        1 K21      0.070700
     42 H241        5.0050    4.3610   -0.8720 h1        1 K21      0.052700
     43 H242        3.3730    4.7600   -0.1880 h1        1 K21      0.052700
     44 H301        6.2420    6.2250   -1.1620 h1        1 K21      0.030200
     45 H302        4.5940    6.9840   -1.3230 h1        1 K21      0.030200
     46 H311        6.2330    8.7420   -1.0880 hc        1 K21      0.049200
     47 H312        6.9910    7.9820    0.3710 hc        1 K21      0.049200
     48 H32         4.1150    9.1100    0.1470 hc        1 K21      0.051700
     49 H331        5.5840    7.8250    2.5530 hc        1 K21      0.049200
     50 H332        3.9030    8.5020    2.5400 hc        1 K21      0.049200
     51 H341        3.1120    6.8380    0.9630 h1        1 K21      0.030200
     52 H342        3.9700    5.9900    2.3240 h1        1 K21      0.030200
     53 H431        6.1250   10.7140    0.3120 hc        1 K21      0.050200
     54 H432        6.4890    9.9840    1.9270 hc        1 K21      0.050200
     55 H48         3.7910   12.4570    4.8330 ha        1 K21      0.130000
     56 H49         2.0570   13.5430    3.4030 ha        1 K21      0.131000
     57 H50         1.9930   13.0700    0.9530 ha        1 K21      0.130000
     58 H51         3.6570   11.5180   -0.0630 ha        1 K21      0.131000
     59 H591       -2.5940   -0.7960   -2.1160 h1        1 K21      0.045700
     60 H592       -2.5460   -1.6290   -0.4760 h1        1 K21      0.045700
     61 H593       -2.7250    0.1960   -0.5720 h1        1 K21      0.045700
     62 H45         5.4530   10.9050    3.8210 ha        1 K21      0.131000
@<TRIPOS>BOND
     1    1    2 ar  
     2    1    6 ar  
     3    1   29 1   
     4    2    3 ar  
     5    2   31 1   
     6    3    4 ar  
     7    3    7 1   
     8    4    5 ar  
     9    4   11 1   
    10    5    6 ar  
    11    5   32 1   
    12    6   33 1   
    13    7    8 1   
    14    7   34 1   
    15    7   35 1   
    16    8    9 1   
    17    8   12 1   
    18    9   10 1   
    19    9   36 1   
    20    9   37 1   
    21   10   11 1   
    22   10   38 1   
    23   10   39 1   
    24   12   13 1   
    25   12   14 2   
    26   13   15 1   
    27   13   40 1   
    28   13   41 1   
    29   15   16 1   
    30   15   42 1   
    31   15   43 1   
    32   16   17 1   
    33   16   21 1   
    34   17   18 1   
    35   17   44 1   
    36   17   45 1   
    37   18   19 1   
    38   18   46 1   
    39   18   47 1   
    40   19   20 1   
    41   19   22 1   
    42   19   48 1   
    43   20   21 1   
    44   20   49 1   
    45   20   50 1   
    46   21   51 1   
    47   21   52 1   
    48   22   28 1   
    49   22   53 1   
    50   22   54 1   
    51   23   24 ar  
    52   23   28 ar  
    53   23   62 1   
    54   24   25 ar  
    55   24   55 1   
    56   25   26 ar  
    57   25   56 1   
    58   26   27 ar  
    59   26   57 1   
    60   27   28 ar  
    61   27   58 1   
    62   29   30 1   
    63   30   59 1   
    64   30   60 1   
    65   30   61 1   
@<TRIPOS>SUBSTRUCTURE
     1 K21         1 TEMP              0 ****  ****    0 ROOT
