@<TRIPOS>MOLECULE
K22
   16    16     1     0     0
SMALL
bcc


@<TRIPOS>ATOM
      1 BR1        -3.4100    0.0040    0.6010 br        1 K22     -0.013700
      2 C5         -1.4980    0.0040    0.6010 ce        1 K22     -0.175000
      3 C2         -0.9860    0.0040    1.8940 c1        1 K22     -0.003800
      4 BR2        -2.0940   -0.1170    3.4480 br        1 K22      0.121000
      5 C7         -0.6280    0.0040   -0.4960 cc        1 K22      0.211200
      6 N14        -0.8670    0.0040   -1.9170 n         1 K22     -0.406500
      7 C13         0.3820    0.0040   -2.5690 c         1 K22      0.513400
      8 S10         0.6280    0.0590   -4.2240 s         1 K22     -0.435400
      9 N6          1.3880    0.0040   -1.5820 n         1 K22     -0.409100
     10 C8          0.7460    0.0040   -0.2920 cc        1 K22     -0.046000
     11 C4          1.2590    0.0040    1.0100 cf        1 K22     -0.025300
     12 BR4         3.0870    0.0040    1.5700 br        1 K22     -0.013700
     13 C3          0.3940    0.0040    2.0990 cf        1 K22     -0.067400
     14 BR3         0.9950    0.0090    3.9140 br        1 K22     -0.004700
     15 H6          2.2870    0.0040   -1.7330 hn        1 K22      0.378500
     16 H14        -1.6840   -0.0010   -2.3230 hn        1 K22      0.378500
@<TRIPOS>BOND
     1    1    2 1   
     2    2    3 2   
     3    2    5 1   
     4    3   13 2   
     5    5    6 2   
     6    5   10 1   
     7    6    7 1   
     8    6   16 1   
     9    7    8 2   
    10    7    9 1   
    11    9   10 1   
    12    9   15 1   
    13   10   11 2   
    14   11   12 1   
    15   11   13 1   
    16   13   14 1   
@<TRIPOS>SUBSTRUCTURE
     1 K22         1 TEMP              0 ****  ****    0 ROOT
