@<TRIPOS>MOLECULE
K22
   16    17     1     0     0
SMALL
bcc


@<TRIPOS>ATOM
      1 BR1        -0.0810    0.2800    2.9620 br        1 K22     -0.028100
      2 C5          0.9880   -0.6770    1.7760 ca        1 K22     -0.010900
      3 C2          0.7930   -0.6190    0.3840 ca        1 K22      0.010100
      4 BR2        -0.5830    0.4530   -0.2850 br        1 K22     -0.019100
      5 C7          2.0180   -1.4810    2.2520 ca        1 K22      0.030600
      6 N14         2.4750   -1.7590    3.5460 n         1 K22     -0.399100
      7 C13         3.5690   -2.6540    3.4860 c         1 K22      0.513400
      8 S10         4.3840   -3.2300    4.7050 s         1 K22     -0.435400
      9 N6          3.7870   -2.9320    2.1160 n         1 K22     -0.399100
     10 C8          2.8580   -2.2310    1.3370 ca        1 K22      0.030600
     11 C4          2.6500   -2.1620   -0.0360 ca        1 K22     -0.010900
     12 BR4         3.7360   -3.1310   -1.1990 br        1 K22     -0.028100
     13 C3          1.6040   -1.3440   -0.5010 ca        1 K22      0.010100
     14 BR3         1.3030   -1.2320   -2.3410 br        1 K22     -0.019100
     15 H6          4.4970   -3.5340    1.7800 hn        1 K22      0.378500
     16 H14         2.1030   -1.3950    4.3890 hn        1 K22      0.378500
@<TRIPOS>BOND
     1    1    2 1   
     2    2    3 ar  
     3    2    5 ar  
     4    3    4 1   
     5    3   13 ar  
     6    5    6 1   
     7    5   10 ar  
     8    6    7 1   
     9    6   16 1   
    10    7    8 2   
    11    7    9 1   
    12    9   10 1   
    13    9   15 1   
    14   10   11 ar  
    15   11   12 1   
    16   11   13 ar  
    17   13   14 1   
@<TRIPOS>SUBSTRUCTURE
     1 K22         1 TEMP              0 ****  ****    0 ROOT
