@<TRIPOS>MOLECULE
K22
   16    17     1     0     0
SMALL
bcc


@<TRIPOS>ATOM
      1 BR1         0.0310    0.0010    0.1110 br        1 K22     -0.028100
      2 C5          1.8910    0.0000    0.0120 ca        1 K22     -0.010900
      3 C2          2.6990    0.0010    1.1640 ca        1 K22      0.010100
      4 BR2         1.8710    0.0020    2.8390 br        1 K22     -0.019100
      5 C7          2.5270   -0.0010   -1.2260 ca        1 K22      0.030600
      6 N14         2.0370   -0.0020   -2.5370 n         1 K22     -0.399100
      7 C13         3.1170   -0.0030   -3.4510 c         1 K22      0.513400
      8 S10         3.0200   -0.0040   -5.0240 s         1 K22     -0.435400
      9 N6          4.3010   -0.0020   -2.6760 n         1 K22     -0.399100
     10 C8          3.9750   -0.0010   -1.3150 ca        1 K22      0.030600
     11 C4          4.7580   -0.0010   -0.1650 ca        1 K22     -0.010900
     12 BR4         6.6160   -0.0010   -0.2950 br        1 K22     -0.028100
     13 C3          4.0980    0.0000    1.0770 ca        1 K22      0.010100
     14 BR3         5.1250    0.0010    2.6390 br        1 K22     -0.019100
     15 H6          5.2130   -0.0030   -3.0600 hn        1 K22      0.378500
     16 H14         1.0840   -0.0010   -2.8060 hn        1 K22      0.378500
@<TRIPOS>BOND
     1    1    2 1   
     2    2    3 ar  
     3    2    5 ar  
     4    3    4 1   
     5    3   13 ar  
     6    5    6 1   
     7    5   10 ar  
     8    6    7 1   
     9    6   16 1   
    10    7    8 2   
    11    7    9 1   
    12    9   10 1   
    13    9   15 1   
    14   10   11 ar  
    15   11   12 1   
    16   11   13 ar  
    17   13   14 1   
@<TRIPOS>SUBSTRUCTURE
     1 K22         1 TEMP              0 ****  ****    0 ROOT
