@<TRIPOS>MOLECULE
K23
   48    38     1     0     0
SMALL
bcc


@<TRIPOS>ATOM
      1 C1         -5.0130   -0.2650   -1.0100 c1        1 K23     -0.062000
      2 CL2        -6.8150   -0.2700   -1.2470 cl        1 K23     -0.064000
      3 C3         -4.5160   -0.3450    0.3110 c2        1 K23     -0.161000
      4 C4         -3.1600   -0.3600    0.5330 c1        1 K23     -0.082000
      5 C5         -2.2630   -0.2950   -0.5680 c1        1 K23     -0.032500
      6 C6         -2.7490   -0.2160   -1.8430 c1        1 K23     -0.032500
      7 C7         -4.1410   -0.2010   -2.0710 c1        1 K23     -0.139000
      8 N8         -1.6300   -0.1620   -2.7440 n1        1 K23     -0.190000
      9 C9         -0.4970   -0.2090   -2.0040 c1        1 K23      0.010000
     10 C10         0.4420   -0.0850   -3.0970 c1        1 K23      0.384000
     11 O11         1.5160   -0.8530   -3.1340 o         1 K23     -0.541000
     12 O12         0.2430    0.7490   -3.9890 o         1 K23     -0.541000
     13 C13        -0.8640   -0.2920   -0.6410 c1        1 K23     -0.159000
     14 C14         0.2890   -0.3270    0.1550 c2        1 K23      0.048000
     15 C15         0.8060   -1.4280    0.7520 c2        1 K23     -0.118000
     16 C16         0.3990   -2.7510    0.5370 c1        1 K23      0.032000
     17 C17         0.8590   -3.4570   -0.5970 c1        1 K23     -0.136000
     18 C18         0.5400   -4.8010   -0.7580 c1        1 K23     -0.136000
     19 C19        -0.2250   -5.4460    0.1900 c1        1 K23     -0.136000
     20 C20        -0.6810   -4.7500    1.3140 c1        1 K23     -0.136000
     21 C21        -0.3570   -3.3880    1.4750 c1        1 K23     -0.119000
     22 N22         1.7910   -1.0440    1.5230 n2        1 K23     -0.151000
     23 C23         1.9070    0.2970    1.4210 c1        1 K23     -0.117000
     24 N24         0.9770    0.7270    0.5760 n2        1 K23     -0.130000
     25 C25         0.7030    2.1280    0.2310 c2        1 K23     -0.001000
     26 C26         1.8560    3.0650    0.8330 c2        1 K23     -0.091000
     27 C27         3.1590    3.0000    0.3120 c2        1 K23     -0.079000
     28 C28         4.1110    3.8420    0.7730 c1        1 K23     -0.136000
     29 C29         3.7820    4.8000    1.7950 c1        1 K23     -0.060000
     30 CL30        5.0270    5.9050    2.4350 cl        1 K23     -0.049000
     31 C31         2.5530    4.8550    2.2800 c1        1 K23     -0.146000
     32 C32         1.5560    3.9730    1.7980 c1        1 K23     -0.122000
     33 H3         -5.0920   -0.5330    1.0030 ha        1 K23      0.131000
     34 H4         -2.7960   -0.2550    1.5000 ha        1 K23      0.142000
     35 H7         -4.5120   -0.1200   -3.0570 ha        1 K23      0.137000
     36 HN8        -1.6730    0.0290   -3.6130 DU        1 K23      0.226000
     37 H17         1.4190   -2.9850   -1.2880 ha        1 K23      0.127000
     38 H18         0.7900   -5.2650   -1.5800 ha        1 K23      0.127000
     39 H19        -0.4410   -6.3590    0.0810 ha        1 K23      0.127000
     40 H20        -1.0440   -5.2520    2.0760 ha        1 K23      0.127000
     41 H21        -0.6590   -2.8980    2.2870 ha        1 K23      0.138000
     42 H23         2.6130    0.8940    1.9250 DU        1 K23      0.226000
     43 H25        -0.2620    2.4200    0.6460 ha        1 K23      0.129500
     44 H25A        0.6810    2.2250   -0.7160 ha        1 K23      0.129500
     45 H27         3.3840    2.3180   -0.4100 ha        1 K23      0.213000
     46 H28         4.9560    3.8030    0.4370 ha        1 K23      0.146000
     47 H31         2.3120    5.5670    3.0390 ha        1 K23      0.135000
     48 H32         0.7170    4.0160    2.1330 ha        1 K23      0.131000
@<TRIPOS>BOND
     1    1    3 1   
     2    1    7 1   
     3    3    4 1   
     4    3   33 1   
     5    4   34 1   
     6    5    6 1   
     7    7   35 1   
     8    8    9 1   
     9    9   13 1   
    10   10   11 1   
    11   10   12 1   
    12   13   14 1   
    13   14   15 1   
    14   14   24 1   
    15   15   16 1   
    16   15   22 1   
    17   16   21 1   
    18   17   18 1   
    19   17   37 1   
    20   18   38 1   
    21   19   20 1   
    22   19   39 1   
    23   20   40 1   
    24   21   41 1   
    25   22   23 1   
    26   23   24 1   
    27   25   26 1   
    28   25   43 1   
    29   25   44 1   
    30   26   27 1   
    31   26   32 1   
    32   27   28 1   
    33   27   45 1   
    34   28   46 1   
    35   29   30 1   
    36   29   31 1   
    37   31   47 1   
    38   32   48 1   
@<TRIPOS>SUBSTRUCTURE
     1 K23         1 TEMP              0 ****  ****    0 ROOT
