@<TRIPOS>MOLECULE
K23
   48    52     1     0     0
SMALL
bcc


@<TRIPOS>ATOM
      1 C1         -4.6190   -2.1010    0.6190 ca        1 K23      0.016400
      2 CL2        -6.1090   -2.8900    0.9140 cl        1 K23     -0.142400
      3 C3         -4.1780   -1.1260    1.5320 ca        1 K23     -0.161000
      4 C4         -2.9770   -0.4610    1.3280 ca        1 K23     -0.082000
      5 C5         -2.2060   -0.7670    0.2080 ca        1 K23     -0.059800
      6 C6         -2.6770   -1.7760   -0.7200 ca        1 K23     -0.062200
      7 C7         -3.8900   -2.4460   -0.5140 ca        1 K23     -0.139000
      8 N8         -1.7160   -1.9160   -1.7210 na        1 K23     -0.167400
      9 C9         -0.6720   -1.0150   -1.4890 cc        1 K23     -0.036300
     10 C10         0.4870   -0.9750   -2.4910 c         1 K23      0.933800
     11 O11         1.6520   -0.8500   -2.0330 o         1 K23     -0.806300
     12 O12         0.1820   -1.1190   -3.7030 o         1 K23     -0.806300
     13 C13        -0.9350   -0.2960   -0.3090 cd        1 K23     -0.135400
     14 C14        -0.1510    0.7330    0.3130 cd        1 K23     -0.053400
     15 C15        -0.4390    2.1150    0.5060 cc        1 K23      0.317800
     16 C16        -1.5790    2.8590    0.0020 ca        1 K23     -0.075500
     17 C17        -2.0820    3.9610    0.7100 ca        1 K23     -0.115000
     18 C18        -3.1710    4.6760    0.2160 ca        1 K23     -0.142000
     19 C19        -3.7690    4.3040   -0.9880 ca        1 K23     -0.149000
     20 C20        -3.2710    3.2130   -1.6990 ca        1 K23     -0.142000
     21 C21        -2.1820    2.4950   -1.2120 ca        1 K23     -0.115000
     22 N22         0.5870    2.7120    1.2570 nc        1 K23     -0.677000
     23 C23         1.4780    1.7340    1.5050 cd        1 K23      0.371400
     24 N24         1.0740    0.5080    0.9610 na        1 K23     -0.174900
     25 C25         1.7980   -0.7330    0.9990 c3        1 K23      0.065600
     26 C26         3.2870   -0.5750    1.1090 ca        1 K23     -0.098300
     27 C27         3.9190   -0.6330    2.3540 ca        1 K23     -0.100500
     28 C28         5.3060   -0.5310    2.4470 ca        1 K23     -0.141000
     29 C29         6.0580   -0.3670    1.2810 ca        1 K23      0.018400
     30 CL30        7.7570   -0.2410    1.3890 cl        1 K23     -0.127400
     31 C31         5.4370   -0.3050    0.0300 ca        1 K23     -0.141000
     32 C32         4.0490   -0.4100   -0.0540 ca        1 K23     -0.100500
     33 H3         -4.7940   -0.8880    2.4110 ha        1 K23      0.131000
     34 H4         -2.6350    0.3070    2.0370 ha        1 K23      0.142000
     35 H7         -4.2470   -3.2080   -1.2180 ha        1 K23      0.137000
     36 HN8        -1.8200   -2.4150   -2.5670 hn        1 K23      0.312700
     37 H17        -1.6120    4.2640    1.6570 ha        1 K23      0.148500
     38 H18        -3.5580    5.5370    0.7780 ha        1 K23      0.118000
     39 H19        -4.6290    4.8690   -1.3740 ha        1 K23      0.113000
     40 H20        -3.7360    2.9170   -2.6500 ha        1 K23      0.118000
     41 H21        -1.7860    1.6330   -1.7740 ha        1 K23      0.148500
     42 H23         2.4210    1.8470    2.0480 h5        1 K23      0.052100
     43 H25         1.4220   -1.3330    1.8800 h1        1 K23      0.090200
     44 H25A        1.5590   -1.2980    0.0400 h1        1 K23      0.090200
     45 H27         3.3210   -0.7630    3.2690 ha        1 K23      0.172000
     46 H28         5.8000   -0.5790    3.4280 ha        1 K23      0.140500
     47 H31         6.0330   -0.1760   -0.8850 ha        1 K23      0.140500
     48 H32         3.5370   -0.3730   -1.0380 ha        1 K23      0.172000
@<TRIPOS>BOND
     1    1    2 1   
     2    1    3 ar  
     3    1    7 ar  
     4    3    4 ar  
     5    3   33 1   
     6    4    5 ar  
     7    4   34 1   
     8    5    6 ar  
     9    5   13 1   
    10    6    7 ar  
    11    6    8 1   
    12    7   35 1   
    13    8    9 1   
    14    8   36 1   
    15    9   10 1   
    16    9   13 2   
    17   10   11 1   
    18   10   12 1   
    19   13   14 1   
    20   14   15 2   
    21   14   24 1   
    22   15   16 1   
    23   15   22 1   
    24   16   17 ar  
    25   16   21 ar  
    26   17   18 ar  
    27   17   37 1   
    28   18   19 ar  
    29   18   38 1   
    30   19   20 ar  
    31   19   39 1   
    32   20   21 ar  
    33   20   40 1   
    34   21   41 1   
    35   22   23 2   
    36   23   24 1   
    37   23   42 1   
    38   24   25 1   
    39   25   26 1   
    40   25   43 1   
    41   25   44 1   
    42   26   27 ar  
    43   26   32 ar  
    44   27   28 ar  
    45   27   45 1   
    46   28   29 ar  
    47   28   46 1   
    48   29   30 1   
    49   29   31 ar  
    50   31   32 ar  
    51   31   47 1   
    52   32   48 1   
@<TRIPOS>SUBSTRUCTURE
     1 K23         1 TEMP              0 ****  ****    0 ROOT
