@<TRIPOS>MOLECULE
K23
   48    52     1     0     0
SMALL
bcc


@<TRIPOS>ATOM
      1 C1          0.5120   -0.7380   -0.4330 ca        1 K23      0.016400
      2 CL2         0.0940   -0.9590   -2.0780 cl        1 K23     -0.142400
      3 C3          1.8730   -0.6700   -0.0840 ca        1 K23     -0.161000
      4 C4          2.2550   -0.4940    1.2390 ca        1 K23     -0.082000
      5 C5          1.2760   -0.3840    2.2250 ca        1 K23     -0.059800
      6 C6         -0.1220   -0.4540    1.8460 ca        1 K23     -0.062200
      7 C7         -0.5050   -0.6330    0.5100 ca        1 K23     -0.139000
      8 N8         -0.8850   -0.2830    2.9990 na        1 K23     -0.167400
      9 C9         -0.0350   -0.1410    4.1010 cc        1 K23     -0.036300
     10 C10        -0.6660    0.0290    5.4870 c         1 K23      0.933800
     11 O11        -0.1340    0.8540    6.2740 o         1 K23     -0.806300
     12 O12        -1.7060   -0.6420    5.7130 o         1 K23     -0.806300
     13 C13         1.3000   -0.1930    3.6630 cd        1 K23     -0.135400
     14 C14         2.5060   -0.0990    4.4360 cd        1 K23     -0.053400
     15 C15         3.5200   -1.0720    4.6770 cc        1 K23      0.317800
     16 C16         3.5160   -2.4670    4.2800 ca        1 K23     -0.075500
     17 C17         4.7200   -3.1370    4.0100 ca        1 K23     -0.115000
     18 C18         4.7100   -4.4790    3.6380 ca        1 K23     -0.142000
     19 C19         3.5040   -5.1710    3.5330 ca        1 K23     -0.149000
     20 C20         2.3040   -4.5140    3.8050 ca        1 K23     -0.142000
     21 C21         2.3070   -3.1720    4.1790 ca        1 K23     -0.115000
     22 N22         4.5660   -0.4930    5.4140 nc        1 K23     -0.677000
     23 C23         4.2020    0.7850    5.6280 cd        1 K23      0.371400
     24 N24         2.9620    1.0800    5.0470 na        1 K23     -0.174900
     25 C25         2.2540    2.3290    5.1130 c3        1 K23      0.065600
     26 C26         2.5720    3.1550    6.3260 ca        1 K23     -0.098300
     27 C27         3.5360    4.1660    6.2670 ca        1 K23     -0.100500
     28 C28         3.7950    4.9600    7.3830 ca        1 K23     -0.141000
     29 C29         3.0830    4.7310    8.5640 ca        1 K23      0.018400
     30 CL30        3.3980    5.7010    9.9330 cl        1 K23     -0.127400
     31 C31         2.1190    3.7220    8.6350 ca        1 K23     -0.141000
     32 C32         1.8640    2.9340    7.5140 ca        1 K23     -0.100500
     33 H3          2.6380   -0.7620   -0.8680 ha        1 K23      0.131000
     34 H4          3.3190   -0.4490    1.5130 ha        1 K23      0.142000
     35 H7         -1.5630   -0.6890    0.2240 ha        1 K23      0.137000
     36 HN8        -1.8590   -0.4290    3.0850 hn        1 K23      0.312700
     37 H17         5.6760   -2.5990    4.0960 ha        1 K23      0.148500
     38 H18         5.6580   -4.9940    3.4280 ha        1 K23      0.118000
     39 H19         3.4990   -6.2300    3.2390 ha        1 K23      0.113000
     40 H20         1.3500   -5.0550    3.7280 ha        1 K23      0.118000
     41 H21         1.3590   -2.6520    4.3960 ha        1 K23      0.148500
     42 H23         4.7710    1.5280    6.1940 h5        1 K23      0.052100
     43 H25         1.1410    2.0920    5.1120 h1        1 K23      0.090200
     44 H25A        2.5020    2.9240    4.1840 h1        1 K23      0.090200
     45 H27         4.0930    4.3410    5.3340 ha        1 K23      0.172000
     46 H28         4.5520    5.7550    7.3320 ha        1 K23      0.140500
     47 H31         1.5610    3.5460    9.5670 ha        1 K23      0.140500
     48 H32         1.0960    2.1340    7.5470 ha        1 K23      0.172000
@<TRIPOS>BOND
     1    1    2 1   
     2    1    3 ar  
     3    1    7 ar  
     4    3    4 ar  
     5    3   33 1   
     6    4    5 ar  
     7    4   34 1   
     8    5    6 ar  
     9    5   13 1   
    10    6    7 ar  
    11    6    8 1   
    12    7   35 1   
    13    8    9 1   
    14    8   36 1   
    15    9   10 1   
    16    9   13 2   
    17   10   11 1   
    18   10   12 1   
    19   13   14 1   
    20   14   15 2   
    21   14   24 1   
    22   15   16 1   
    23   15   22 1   
    24   16   17 ar  
    25   16   21 ar  
    26   17   18 ar  
    27   17   37 1   
    28   18   19 ar  
    29   18   38 1   
    30   19   20 ar  
    31   19   39 1   
    32   20   21 ar  
    33   20   40 1   
    34   21   41 1   
    35   22   23 2   
    36   23   24 1   
    37   23   42 1   
    38   24   25 1   
    39   25   26 1   
    40   25   43 1   
    41   25   44 1   
    42   26   27 ar  
    43   26   32 ar  
    44   27   28 ar  
    45   27   45 1   
    46   28   29 ar  
    47   28   46 1   
    48   29   30 1   
    49   29   31 ar  
    50   31   32 ar  
    51   31   47 1   
    52   32   48 1   
@<TRIPOS>SUBSTRUCTURE
     1 K23         1 TEMP              0 ****  ****    0 ROOT
