@<TRIPOS>MOLECULE
K23
   48    52     1     0     0
SMALL
bcc


@<TRIPOS>ATOM
      1 C1          0.6440   -0.6610   -0.4890 ca        1 K23      0.016400
      2 Cl2         0.2740   -0.8600   -2.1480 cl        1 K23     -0.142400
      3 C3          1.9950   -0.6320   -0.0970 ca        1 K23     -0.161000
      4 C4          2.3390   -0.4750    1.2390 ca        1 K23     -0.082000
      5 C5          1.3320   -0.3460    2.1950 ca        1 K23     -0.059800
      6 C6         -0.0540   -0.3770    1.7710 ca        1 K23     -0.062200
      7 C7         -0.3990   -0.5370    0.4220 ca        1 K23     -0.139000
      8 N8         -0.8490   -0.1940    2.9010 na        1 K23     -0.167400
      9 C9         -0.0310   -0.0820    4.0290 cc        1 K23     -0.036300
     10 C10        -0.7010    0.0960    5.3960 c         1 K23      0.933800
     11 O11        -0.1730    0.9010    6.2060 o         1 K23     -0.806300
     12 O12        -1.7640   -0.5500    5.5840 o         1 K23     -0.806300
     13 C13         1.3160   -0.1650    3.6340 cd        1 K23     -0.135400
     14 C14         2.4990   -0.1080    4.4450 cd        1 K23     -0.053400
     15 C15         3.4780   -1.1090    4.7110 cc        1 K23      0.317800
     16 C16         3.4510   -2.5010    4.3030 ca        1 K23     -0.075500
     17 C17         4.6460   -3.2000    4.0660 ca        1 K23     -0.115000
     18 C18         4.6120   -4.5390    3.6840 ca        1 K23     -0.142000
     19 C19         3.3930   -5.1990    3.5360 ca        1 K23     -0.149000
     20 C20         2.2020   -4.5120    3.7750 ca        1 K23     -0.142000
     21 C21         2.2280   -3.1740    4.1590 ca        1 K23     -0.115000
     22 N22         4.5150   -0.5630    5.4850 nc        1 K23     -0.677000
     23 C23         4.1780    0.7230    5.6970 cd        1 K23      0.371400
     24 N24         2.9650    1.0540    5.0790 na        1 K23     -0.174900
     25 C25         2.2880    2.3210    5.1320 c3        1 K23      0.065600
     26 C26         2.5880    3.1300    6.3610 ca        1 K23     -0.098300
     27 C27         3.5790    4.1160    6.3400 ca        1 K23     -0.100500
     28 C28         3.8230    4.8950    7.4690 ca        1 K23     -0.141000
     29 C29         3.0690    4.6780    8.6260 ca        1 K23      0.018400
     30 Cl30        3.3650    5.6290   10.0110 cl        1 K23     -0.127400
     31 C31         2.0770    3.6930    8.6590 ca        1 K23     -0.141000
     32 C32         1.8370    2.9200    7.5240 ca        1 K23     -0.100500
     33 H3          2.7820   -0.7380   -0.8570 ha        1 K23      0.131000
     34 H4          3.3940   -0.4590    1.5470 ha        1 K23      0.142000
     35 H7         -1.4480   -0.5630    0.1020 ha        1 K23      0.137000
     36 HN8        -1.8280   -0.3150    2.9540 hn        1 K23      0.312700
     37 H17         5.6120   -2.6890    4.1870 ha        1 K23      0.148500
     38 H18         5.5530   -5.0770    3.5000 ha        1 K23      0.118000
     39 H19         3.3690   -6.2550    3.2330 ha        1 K23      0.113000
     40 H20         1.2380   -5.0270    3.6630 ha        1 K23      0.118000
     41 H21         1.2870   -2.6310    4.3490 ha        1 K23      0.148500
     42 H23         4.7480    1.4460    6.2870 h5        1 K23      0.052100
     43 H25         1.1700    2.1140    5.0950 h1        1 K23      0.090200
     44 H25A        2.5810    2.9150    4.2170 h1        1 K23      0.090200
     45 H27         4.1700    4.2820    5.4270 ha        1 K23      0.172000
     46 H28         4.6020    5.6710    7.4490 ha        1 K23      0.140500
     47 H31         1.4860    3.5260    9.5710 ha        1 K23      0.140500
     48 H32         1.0490    2.1390    7.5270 ha        1 K23      0.172000
@<TRIPOS>BOND
     1    1    2 1   
     2    1    3 ar  
     3    1    7 ar  
     4    3    4 ar  
     5    3   33 1   
     6    4    5 ar  
     7    4   34 1   
     8    5    6 ar  
     9    5   13 1   
    10    6    7 ar  
    11    6    8 1   
    12    7   35 1   
    13    8    9 1   
    14    8   36 1   
    15    9   10 1   
    16    9   13 2   
    17   10   11 1   
    18   10   12 1   
    19   13   14 1   
    20   14   15 2   
    21   14   24 1   
    22   15   16 1   
    23   15   22 1   
    24   16   17 ar  
    25   16   21 ar  
    26   17   18 ar  
    27   17   37 1   
    28   18   19 ar  
    29   18   38 1   
    30   19   20 ar  
    31   19   39 1   
    32   20   21 ar  
    33   20   40 1   
    34   21   41 1   
    35   22   23 2   
    36   23   24 1   
    37   23   42 1   
    38   24   25 1   
    39   25   26 1   
    40   25   43 1   
    41   25   44 1   
    42   26   27 ar  
    43   26   32 ar  
    44   27   28 ar  
    45   27   45 1   
    46   28   29 ar  
    47   28   46 1   
    48   29   30 1   
    49   29   31 ar  
    50   31   32 ar  
    51   31   47 1   
    52   32   48 1   
@<TRIPOS>SUBSTRUCTURE
     1 K23         1 TEMP              0 ****  ****    0 ROOT
