@<TRIPOS>MOLECULE
K25
   24    25     1     0     0
SMALL
bcc


@<TRIPOS>ATOM
      1 C2          0.1390   -0.3910   -0.0390 ca        1 K25     -0.011900
      2 C3          1.3080    0.4150    0.0650 ca        1 K25      0.058100
      3 C4          1.8460    0.7660    1.3000 ca        1 K25     -0.029900
      4 C5         -0.5260   -0.8690    1.0860 ca        1 K25      0.064100
      5 N6          1.4560    0.4550    3.8050 na        1 K25     -0.238300
      6 C7         -0.0050   -0.5300    2.3530 ca        1 K25      0.076400
      7 C8          1.1850    0.2910    2.4460 ca        1 K25     -0.010200
      8 C13         0.4340   -0.2620    4.4780 cc        1 K25      0.394700
      9 N14        -0.4550   -0.8620    3.6350 nd        1 K25     -0.462100
     10 N15         0.3400   -0.3510    5.9430 n4        1 K25     -0.597400
     11 C16         1.5340   -1.0350    6.5130 c3        1 K25      0.086100
     12 C17         0.1310    0.9950    6.5460 c3        1 K25      0.086100
     13 BR1        -0.5180   -0.8180   -1.7320 br        1 K25      0.025900
     14 BR9         2.1450    1.0180   -1.4880 br        1 K25      0.033900
     15 BR10        3.3710    1.8170    1.4740 br        1 K25     -0.002100
     16 BR11       -2.0520   -1.9220    0.9640 br        1 K25      0.028900
     17 HN6         2.2040    0.9660    4.2000 hn        1 K25      0.335700
     18 H161        2.4480   -0.4040    6.3560 hx        1 K25      0.112033
     19 H162        1.6700   -2.0290    6.0040 hx        1 K25      0.112033
     20 H163        1.3660   -1.1880    7.6140 hx        1 K25      0.112033
     21 H171       -0.7580    1.4840    6.0620 hx        1 K25      0.112033
     22 H172        1.0420    1.6310    6.3900 hx        1 K25      0.112033
     23 H173       -0.0540    0.8680    7.6470 hx        1 K25      0.112033
     24 H151       -0.4960   -0.9320    6.1490 hn        1 K25      0.490800
@<TRIPOS>BOND
     1    1    2 ar  
     2    1    4 ar  
     3    1   13 1   
     4    2    3 ar  
     5    2   14 1   
     6    3    7 ar  
     7    3   15 1   
     8    4    6 ar  
     9    4   16 1   
    10    5    7 1   
    11    5    8 1   
    12    5   17 1   
    13    6    7 ar  
    14    6    9 1   
    15    8    9 2   
    16    8   10 1   
    17   10   11 1   
    18   10   12 1   
    19   10   24 1   
    20   11   18 1   
    21   11   19 1   
    22   11   20 1   
    23   12   21 1   
    24   12   22 1   
    25   12   23 1   
@<TRIPOS>SUBSTRUCTURE
     1 K25         1 TEMP              0 ****  ****    0 ROOT
