@<TRIPOS>MOLECULE
K25
   23    24     1     0     0
SMALL
bcc


@<TRIPOS>ATOM
      1 C2         -0.9170   -0.6810    0.2410 ca        1 K25     -0.010900
      2 C3         -0.9890    0.6810   -0.1240 ca        1 K25      0.018100
      3 C4          0.1640    1.4300   -0.3710 ca        1 K25     -0.006900
      4 C5          0.3060   -1.3430    0.3710 ca        1 K25      0.047100
      5 N6          2.7060    1.2250   -0.4050 na        1 K25     -0.272300
      6 C7          1.4820   -0.6200    0.1290 ca        1 K25      0.111400
      7 C8          1.3950    0.7800   -0.2470 ca        1 K25     -0.047200
      8 C13         3.5470    0.0990   -0.1470 cc        1 K25      0.602700
      9 N14         2.8280   -1.0130    0.1930 nd        1 K25     -0.580100
     10 N15         4.9570    0.1980   -0.3270 nh        1 K25     -0.675600
     11 C16         5.6010    1.1360    0.5710 c3        1 K25      0.163100
     12 C17         5.6350   -1.0800   -0.4200 c3        1 K25      0.163100
     13 BR1        -2.5010   -1.6250    0.5590 br        1 K25     -0.034100
     14 BR9        -2.6570    1.5100   -0.2850 br        1 K25     -0.032100
     15 BR10        0.0990    3.2300   -0.8520 br        1 K25     -0.048100
     16 BR11        0.3990   -3.1390    0.8560 br        1 K25     -0.023100
     17 HN6         2.9900    2.1100   -0.7370 hn        1 K25      0.322700
     18 H161        6.6670    1.2500    0.2390 h1        1 K25      0.050533
     19 H162        5.0990    2.1360    0.5070 h1        1 K25      0.050533
     20 H163        5.5920    0.7940    1.6410 h1        1 K25      0.050533
     21 H171        5.6530   -1.6400    0.5530 h1        1 K25      0.050533
     22 H172        5.1280   -1.7140   -1.1940 h1        1 K25      0.050533
     23 H173        6.6900   -0.8780   -0.7460 h1        1 K25      0.050533
@<TRIPOS>BOND
     1    1    2 ar  
     2    1    4 ar  
     3    1   13 1   
     4    2    3 ar  
     5    2   14 1   
     6    3    7 ar  
     7    3   15 1   
     8    4    6 ar  
     9    4   16 1   
    10    5    7 1   
    11    5    8 1   
    12    5   17 1   
    13    6    7 ar  
    14    6    9 1   
    15    8    9 2   
    16    8   10 1   
    17   10   11 1   
    18   10   12 1   
    19   11   18 1   
    20   11   19 1   
    21   11   20 1   
    22   12   21 1   
    23   12   22 1   
    24   12   23 1   
@<TRIPOS>SUBSTRUCTURE
     1 K25         1 TEMP              0 ****  ****    0 ROOT
