@<TRIPOS>MOLECULE
K25
   23    24     1     0     0
SMALL
bcc


@<TRIPOS>ATOM
      1 C2          0.0340   -0.1740    0.0170 ca        1 K25     -0.010900
      2 C3          1.4160    0.1120   -0.0120 ca        1 K25      0.018100
      3 C4          2.1430    0.3080    1.1650 ca        1 K25     -0.006900
      4 C5         -0.6710   -0.2730    1.2190 ca        1 K25      0.047100
      5 N6          1.8640    0.3390    3.7000 na        1 K25     -0.272300
      6 C7          0.0290   -0.0800    2.4180 ca        1 K25      0.111400
      7 C8          1.4510    0.2150    2.3760 ca        1 K25     -0.047200
      8 C13         0.7010    0.1430    4.5050 cc        1 K25      0.602700
      9 N14        -0.4070   -0.1280    3.7510 nd        1 K25     -0.580100
     10 N15         0.7680    0.3090    5.9190 nh        1 K25     -0.675600
     11 C16         1.6340   -0.6450    6.5840 c3        1 K25      0.163100
     12 C17        -0.5230    0.4700    6.5600 c3        1 K25      0.163100
     13 Br1        -0.8790   -0.4280   -1.5960 br        1 K25     -0.034100
     14 Br9         2.3030    0.2330   -1.6530 br        1 K25     -0.032100
     15 Br10        3.9700    0.6830    1.1560 br        1 K25     -0.048100
     16 Br11       -2.4950   -0.6520    1.2550 br        1 K25     -0.023100
     17 HN6         2.7580    0.6180    4.0120 hn        1 K25      0.322700
     18 H161        1.7340   -0.3260    7.6550 h1        1 K25      0.050533
     19 H162        2.6510   -0.6340    6.1120 h1        1 K25      0.050533
     20 H163        1.2330   -1.6940    6.5560 h1        1 K25      0.050533
     21 H171       -0.3340    0.7780    7.6220 h1        1 K25      0.050533
     22 H172       -1.1370   -0.4700    6.5530 h1        1 K25      0.050533
     23 H173       -1.0960    1.2820    6.0400 h1        1 K25      0.050533
@<TRIPOS>BOND
     1    1    2 ar  
     2    1    4 ar  
     3    1   13 1   
     4    2    3 ar  
     5    2   14 1   
     6    3    7 ar  
     7    3   15 1   
     8    4    6 ar  
     9    4   16 1   
    10    5    7 1   
    11    5    8 1   
    12    5   17 1   
    13    6    7 ar  
    14    6    9 1   
    15    8    9 2   
    16    8   10 1   
    17   10   11 1   
    18   10   12 1   
    19   11   18 1   
    20   11   19 1   
    21   11   20 1   
    22   12   21 1   
    23   12   22 1   
    24   12   23 1   
@<TRIPOS>SUBSTRUCTURE
     1 K25         1 TEMP              0 ****  ****    0 ROOT
