@<TRIPOS>MOLECULE
K25
   23    18     1     0     0
SMALL
bcc


@<TRIPOS>ATOM
      1 C2         -0.7010   -0.1300   -3.5880 c1        1 K25     -0.128250
      2 C3          0.6900    0.0630   -3.5720 c1        1 K25     -0.128250
      3 C4          1.3720    0.1640   -2.3490 c1        1 K25     -0.128250
      4 C5         -1.4030   -0.2190   -2.3940 c1        1 K25     -0.128250
      5 N6          1.0790    0.1370    0.1810 n2        1 K25     -0.229000
      6 C7         -0.7110   -0.1160   -1.1510 c1        1 K25     -0.028000
      7 C8          0.6640    0.0740   -1.1370 c1        1 K25     -0.002000
      8 C13        -0.0280   -0.0130    0.9790 c1        1 K25      0.124000
      9 N14        -1.1400   -0.1700    0.1520 n1        1 K25     -0.153000
     10 N15        -0.0870    0.0120    2.4130 n2        1 K25     -0.207000
     11 C16        -0.2560    1.2680    3.0940 c3        1 K25     -0.113000
     12 C17        -0.1090   -1.2310    3.1570 c3        1 K25     -0.113000
     13 BR1        -1.6210   -0.2150   -5.3220 br        1 K25      0.105750
     14 BR9         1.5720    0.1090   -5.2510 br        1 K25      0.105750
     15 BR10        3.2090    0.0930   -2.8860 br        1 K25      0.105750
     16 BR11       -3.2710   -0.2720   -2.5840 br        1 K25      0.105750
     17 HN6         2.0190    0.2710    0.4980 DU        1 K25      0.273000
     18 H161       -0.3050    1.1180    4.0650 h1        1 K25      0.089833
     19 H162       -1.1080    1.7080    2.7790 h1        1 K25      0.089833
     20 H163        0.5190    1.8600    2.8890 h1        1 K25      0.089833
     21 H171       -0.7530   -1.8420    2.7430 h1        1 K25      0.089833
     22 H172        0.7550   -1.6270    3.1460 h1        1 K25      0.089833
     23 H173       -0.3870   -1.0430    4.1350 h1        1 K25      0.089833
@<TRIPOS>BOND
     1    1    4 1   
     2    1   13 1   
     3    2    3 1   
     4    2   14 1   
     5    3   15 1   
     6    4   16 1   
     7    5    7 1   
     8    5    8 1   
     9    6    7 1   
    10    8    9 1   
    11   10   11 1   
    12   10   12 1   
    13   11   18 1   
    14   11   19 1   
    15   11   20 1   
    16   12   21 1   
    17   12   22 1   
    18   12   23 1   
@<TRIPOS>SUBSTRUCTURE
     1 K25         1 TEMP              0 ****  ****    0 ROOT
