@<TRIPOS>MOLECULE
K25
   23    24     1     0     0
SMALL
bcc


@<TRIPOS>ATOM
      1 C2          0.0400   -0.1610    0.0150 ca        1 K25     -0.010900
      2 C3          1.4230    0.1240   -0.0100 ca        1 K25      0.018100
      3 C4          2.1480    0.3150    1.1680 ca        1 K25     -0.006900
      4 C5         -0.6660   -0.2640    1.2160 ca        1 K25      0.047100
      5 N6          1.8650    0.3380    3.7030 na        1 K25     -0.272300
      6 C7          0.0320   -0.0750    2.4170 ca        1 K25      0.111400
      7 C8          1.4530    0.2190    2.3780 ca        1 K25     -0.047200
      8 C13         0.7000    0.1400    4.5060 cc        1 K25      0.602700
      9 N14        -0.4060   -0.1280    3.7490 nd        1 K25     -0.580100
     10 N15         0.7650    0.3000    5.9200 nh        1 K25     -0.675600
     11 C16         1.6250   -0.6610    6.5830 c3        1 K25      0.163100
     12 C17        -0.5260    0.4660    6.5590 c3        1 K25      0.163100
     13 BR1        -0.8700   -0.4080   -1.6000 br        1 K25     -0.034100
     14 BR9         2.3120    0.2510   -1.6500 br        1 K25     -0.032100
     15 BR10        3.9740    0.6900    1.1640 br        1 K25     -0.048100
     16 BR11       -2.4910   -0.6420    1.2480 br        1 K25     -0.023100
     17 HN6         2.7580    0.6140    4.0180 hn        1 K25      0.322700
     18 H161        1.2160   -1.7080    6.5520 h1        1 K25      0.050533
     19 H162        2.6420   -0.6570    6.1120 h1        1 K25      0.050533
     20 H163        1.7270   -0.3460    7.6550 h1        1 K25      0.050533
     21 H171       -0.3380    0.7690    7.6230 h1        1 K25      0.050533
     22 H172       -1.0940    1.2820    6.0410 h1        1 K25      0.050533
     23 H173       -1.1450   -0.4710    6.5490 h1        1 K25      0.050533
@<TRIPOS>BOND
     1    1    2 ar  
     2    1    4 ar  
     3    1   13 1   
     4    2    3 ar  
     5    2   14 1   
     6    3    7 ar  
     7    3   15 1   
     8    4    6 ar  
     9    4   16 1   
    10    5    7 1   
    11    5    8 1   
    12    5   17 1   
    13    6    7 ar  
    14    6    9 1   
    15    8    9 2   
    16    8   10 1   
    17   10   11 1   
    18   10   12 1   
    19   11   18 1   
    20   11   19 1   
    21   11   20 1   
    22   12   21 1   
    23   12   22 1   
    24   12   23 1   
@<TRIPOS>SUBSTRUCTURE
     1 K25         1 TEMP              0 ****  ****    0 ROOT
