@<TRIPOS>MOLECULE
K26
   69    70     1     0     0
SMALL
bcc


@<TRIPOS>ATOM
      1 CAR         0.3800    0.8160    1.4960 ca        1 K26     -0.115000
      2 CAN         1.5560    0.8490    2.2410 ca        1 K26     -0.191500
      3 CBD         2.0800   -0.3530    2.7290 ca        1 K26      0.056100
      4 OAI         3.2520   -0.2760    3.4700 oh        1 K26     -0.532100
      5 CAO         1.4370   -1.5700    2.4720 ca        1 K26     -0.191500
      6 CAS         0.2620   -1.5830    1.7260 ca        1 K26     -0.115000
      7 CBF        -0.2860   -0.3910    1.2280 ca        1 K26     -0.035300
      8 CAV        -1.5500   -0.3580    0.4490 c3        1 K26     -0.051100
      9 CBI        -2.1900   -1.6550    0.0500 c3        1 K26     -0.115500
     10 PBK        -3.7810   -1.0150   -0.7760 p5        1 K26      1.192700
     11 OAJ        -4.3320   -2.2960   -1.3720 o         1 K26     -0.926833
     12 OAK        -4.5270   -0.3950    0.3660 o         1 K26     -0.926833
     13 OAG        -3.2110   -0.1030   -1.8270 o         1 K26     -0.926833
     14 NAY        -1.5480   -2.4160   -0.9850 n         1 K26     -0.419900
     15 C          -1.2320   -3.7300   -0.8410 c         1 K26      0.615100
     16 O          -0.8330   -4.2670    0.2310 o         1 K26     -0.726100
     17 CA         -1.3530   -4.6200   -2.1200 c3        1 K26      0.000700
     18 N          -0.4800   -5.7810   -2.0460 n         1 K26     -0.502900
     19 CBB         0.7250   -5.8260   -2.7050 c         1 K26      0.630100
     20 OAF         1.0070   -5.0960   -3.6810 o         1 K26     -0.634100
     21 CBJ         1.7270   -6.9320   -2.2530 c3        1 K26      0.019700
     22 CBG         2.5700   -6.4120   -1.0620 c3        1 K26     -0.061700
     23 CAC         3.1850   -5.0630   -1.3620 c3        1 K26     -0.095100
     24 CAT         1.7300   -6.3660    0.2070 c3        1 K26     -0.104400
     25 CAA         2.5860   -6.4240    1.4460 c3        1 K26     -0.082100
     26 NAX         2.5550   -7.3420   -3.3680 n         1 K26     -0.541900
     27 CAZ         2.6280   -8.6490   -3.7980 c         1 K26      0.653100
     28 CAB         3.3060   -8.8930   -5.1280 c3        1 K26     -0.175100
     29 OAD         2.2090   -9.6050   -3.1110 o         1 K26     -0.630100
     30 CB         -2.8420   -5.0130   -2.2250 c3        1 K26     -0.070100
     31 CG         -3.3370   -4.9900   -3.6270 ca        1 K26     -0.098300
     32 CD1        -3.0240   -6.0000   -4.5380 ca        1 K26     -0.087000
     33 CE1        -3.5250   -5.9710   -5.8400 ca        1 K26     -0.204500
     34 CZ         -4.3500   -4.9060   -6.2200 ca        1 K26      0.086100
     35 OH         -4.8300   -4.9190   -7.5190 oh        1 K26     -0.531100
     36 CE2        -4.6750   -3.8850   -5.3150 ca        1 K26     -0.204500
     37 CD2        -4.1710   -3.9280   -4.0190 ca        1 K26     -0.087000
     38 HAR        -0.0430    1.7540    1.1050 ha        1 K26      0.158500
     39 HAN         2.0720    1.7950    2.4470 ha        1 K26      0.111500
     40 HAI         3.4940   -1.1810    3.7040 ho        1 K26      0.396000
     41 HAO         1.8590   -2.5090    2.8540 ha        1 K26      0.111500
     42 HAS        -0.2440   -2.5420    1.5070 ha        1 K26      0.158500
     43 HAV1       -1.4080    0.2610   -0.4860 hc        1 K26      0.095700
     44 HAV2       -2.3400    0.1740    1.0620 hc        1 K26      0.095700
     45 HBI        -2.4390   -2.2910    0.9270 h1        1 K26      0.058700
     46 HAY        -1.8890   -2.1390   -1.8940 hn        1 K26      0.323500
     47 HA         -1.0590   -4.0220   -3.0330 h1        1 K26      0.099700
     48 H          -0.5210   -6.2440   -1.1590 hn        1 K26      0.310500
     49 HB1C       -3.0160   -6.0270   -1.7780 hc        1 K26      0.102700
     50 HB2C       -3.4580   -4.2640   -1.6240 hc        1 K26      0.102700
     51 HBJ         1.1520   -7.8420   -1.9000 h1        1 K26      0.090700
     52 HBG         3.4040   -7.1540   -0.8960 hc        1 K26      0.043700
     53 HAX         2.7690   -6.6150   -4.0170 hn        1 K26      0.323500
     54 HAC1        2.3930   -4.3010   -1.5680 hc        1 K26      0.041033
     55 HAC2        3.8530   -5.1240   -2.2550 hc        1 K26      0.041033
     56 HAC3        3.7900   -4.7140   -0.4910 hc        1 K26      0.041033
     57 HAT1        1.1070   -5.4260    0.2310 hc        1 K26      0.072200
     58 HAT2        1.0200   -7.2360    0.2210 hc        1 K26      0.072200
     59 HAA1        1.9390   -6.3790    2.3560 hc        1 K26      0.025033
     60 HAA2        3.2950   -5.5610    1.4790 hc        1 K26      0.025033
     61 HAA3        3.1810   -7.3690    1.4800 hc        1 K26      0.025033
     62 HAB1        4.3380   -8.4690   -5.1300 hc        1 K26      0.058367
     63 HAB2        3.3630   -9.9930   -5.3060 hc        1 K26      0.058367
     64 HAB3        2.7160   -8.4200   -5.9500 hc        1 K26      0.058367
     65 HD1        -2.3680   -6.8280   -4.2300 ha        1 K26      0.190000
     66 HD2        -4.4170   -3.1310   -3.2670 ha        1 K26      0.190000
     67 HE1        -3.2790   -6.7590   -6.5620 ha        1 K26      0.122000
     68 HH         -5.3200   -4.0960   -7.6460 ho        1 K26      0.404000
     69 HE2        -5.3190   -3.0510   -5.6270 ha        1 K26      0.122000
@<TRIPOS>BOND
     1    1    2 ar  
     2    1    7 ar  
     3    1   38 1   
     4    2    3 ar  
     5    2   39 1   
     6    3    4 1   
     7    3    5 ar  
     8    4   40 1   
     9    5    6 ar  
    10    5   41 1   
    11    6    7 ar  
    12    6   42 1   
    13    7    8 1   
    14    8    9 1   
    15    8   43 1   
    16    8   44 1   
    17    9   10 1   
    18    9   14 1   
    19    9   45 1   
    20   10   11 1   
    21   10   12 1   
    22   10   13 1   
    23   14   15 1   
    24   14   46 1   
    25   15   16 2   
    26   15   17 1   
    27   17   18 1   
    28   17   30 1   
    29   17   47 1   
    30   18   19 1   
    31   18   48 1   
    32   19   20 2   
    33   19   21 1   
    34   21   22 1   
    35   21   26 1   
    36   21   51 1   
    37   22   23 1   
    38   22   24 1   
    39   22   52 1   
    40   23   54 1   
    41   23   55 1   
    42   23   56 1   
    43   24   25 1   
    44   24   57 1   
    45   24   58 1   
    46   25   59 1   
    47   25   60 1   
    48   25   61 1   
    49   26   27 1   
    50   26   53 1   
    51   27   28 1   
    52   27   29 2   
    53   28   62 1   
    54   28   63 1   
    55   28   64 1   
    56   30   31 1   
    57   30   49 1   
    58   30   50 1   
    59   31   32 ar  
    60   31   37 ar  
    61   32   33 ar  
    62   32   65 1   
    63   33   34 ar  
    64   33   67 1   
    65   34   35 1   
    66   34   36 ar  
    67   35   68 1   
    68   36   37 ar  
    69   36   69 1   
    70   37   66 1   
@<TRIPOS>SUBSTRUCTURE
     1 K26         1 TEMP              0 ****  ****    0 ROOT
