@<TRIPOS>MOLECULE
K26
   69    70     1     0     0
SMALL
bcc


@<TRIPOS>ATOM
      1 CAR        -2.8810   -2.2020    1.6560 ca        1 K26     -0.107500
      2 CAN        -2.8630   -3.5880    1.5330 ca        1 K26     -0.187500
      3 CBD        -3.8530   -4.2210    0.7710 ca        1 K26      0.060100
      4 OAI        -3.9040   -5.6010    0.6280 oh        1 K26     -0.531100
      5 CAO        -4.8520   -3.4770    0.1320 ca        1 K26     -0.187500
      6 CAS        -4.8510   -2.0900    0.2680 ca        1 K26     -0.107500
      7 CBF        -3.8750   -1.4330    1.0300 ca        1 K26     -0.025300
      8 CAV        -3.8960    0.0430    1.1880 c3        1 K26     -0.054100
      9 CBI        -2.9650    0.8170    0.2910 c3        1 K26     -0.104500
     10 PBK        -3.3710    2.5900    0.8170 p5        1 K26      1.194700
     11 OAJ        -2.2530    3.3560    0.1340 o         1 K26     -0.928500
     12 OAK        -4.7650    2.7830    0.3010 o         1 K26     -0.928500
     13 OAG        -3.1710    2.5150    2.3060 o         1 K26     -0.928500
     14 NAY        -1.5570    0.6760    0.5420 n         1 K26     -0.427900
     15 C          -0.6720    0.3410   -0.4420 c         1 K26      0.616100
     16 O          -0.8920   -0.4680   -1.3810 o         1 K26     -0.698100
     17 CA          0.7440    1.0000   -0.3480 c3        1 K26     -0.008300
     18 N           1.7430    0.2160   -1.0590 n         1 K26     -0.503900
     19 CBB         2.6210   -0.6160   -0.3990 c         1 K26      0.611100
     20 OAF         2.8930   -0.5210    0.8160 o         1 K26     -0.619100
     21 CBJ         3.4240   -1.6160   -1.2910 c3        1 K26      0.022700
     22 CBG         2.7810   -3.0110   -1.1780 c3        1 K26     -0.061700
     23 CAC         1.2760   -2.9020   -1.3270 c3        1 K26     -0.106100
     24 CAT         3.3500   -3.9410   -2.2440 c3        1 K26     -0.067400
     25 CAA         3.1430   -5.3920   -1.8910 c3        1 K26     -0.088100
     26 NAX         4.8410   -1.5090   -0.9930 n         1 K26     -0.521900
     27 CAZ         5.5550   -2.3440   -0.1360 c         1 K26      0.656100
     28 CAB         6.7860   -1.7390    0.5110 c3        1 K26     -0.186100
     29 OAD         5.2910   -3.5480    0.0470 o         1 K26     -0.606100
     30 CB          0.6000    2.4200   -0.9370 c3        1 K26     -0.072100
     31 CG          1.3650    3.4340   -0.1640 ca        1 K26     -0.095300
     32 CD1         2.7530    3.5490   -0.2640 ca        1 K26     -0.088500
     33 CE1         3.4450    4.5280    0.4490 ca        1 K26     -0.205500
     34 CZ          2.7210    5.3980    1.2720 ca        1 K26      0.086100
     35 OH          3.4460    6.3590    1.9580 oh        1 K26     -0.532100
     36 CE2         1.3260    5.2980    1.3810 ca        1 K26     -0.205500
     37 CD2         0.6480    4.3190    0.6630 ca        1 K26     -0.088500
     38 HAR        -2.1010   -1.6880    2.2390 ha        1 K26      0.141000
     39 HAN        -2.0760   -4.1810    2.0170 ha        1 K26      0.111500
     40 HAI        -3.0700   -5.9470    0.9690 ho        1 K26      0.397000
     41 HAO        -5.6140   -3.9890   -0.4680 ha        1 K26      0.111500
     42 HAS        -5.6240   -1.4920   -0.2390 ha        1 K26      0.141000
     43 HAV1       -4.9210    0.4520    0.9570 hc        1 K26      0.088200
     44 HAV2       -3.6620    0.3270    2.2550 hc        1 K26      0.088200
     45 HBI        -3.2030    0.6570   -0.7830 h1        1 K26      0.060700
     46 HAY        -1.2400    1.3920    1.1780 hn        1 K26      0.316500
     47 HA          1.0610    1.0720    0.7340 h1        1 K26      0.096700
     48 H           1.4020   -0.1220   -1.9390 hn        1 K26      0.307500
     49 HB1C        0.9260    2.4380   -2.0100 hc        1 K26      0.103700
     50 HB2C       -0.5010    2.7170   -0.9110 hc        1 K26      0.103700
     51 HBJ         3.3380   -1.2990   -2.3780 h1        1 K26      0.060700
     52 HBG         3.0150   -3.4330   -0.1590 hc        1 K26      0.085700
     53 HAX         5.1120   -0.5480   -0.9180 hn        1 K26      0.290500
     54 HAC1        0.9950   -2.3700   -2.2680 hc        1 K26      0.052367
     55 HAC2        0.8250   -3.9240   -1.3550 hc        1 K26      0.052367
     56 HAC3        0.8170   -2.3490   -0.4700 hc        1 K26      0.052367
     57 HAT1        2.8670   -3.7140   -3.2300 hc        1 K26      0.035200
     58 HAT2        4.4520   -3.7600   -2.3550 hc        1 K26      0.035200
     59 HAA1        3.5580   -6.0470   -2.6950 hc        1 K26      0.029367
     60 HAA2        3.6670   -5.6300   -0.9330 hc        1 K26      0.029367
     61 HAA3        2.0580   -5.6270   -1.7700 hc        1 K26      0.029367
     62 HAB1        6.4710   -0.9840    1.2710 hc        1 K26      0.059700
     63 HAB2        7.3620   -2.5490    1.0190 hc        1 K26      0.059700
     64 HAB3        7.4410   -1.2460   -0.2460 hc        1 K26      0.059700
     65 HD1         3.3110    2.8550   -0.9090 ha        1 K26      0.188500
     66 HD2        -0.4690    4.2150    0.7190 ha        1 K26      0.188500
     67 HE1         4.5350    4.6210    0.3770 ha        1 K26      0.121000
     68 HH          2.8220    6.8300    2.5260 ho        1 K26      0.404000
     69 HE2         0.7700    5.9840    2.0350 ha        1 K26      0.121000
@<TRIPOS>BOND
     1    1    2 ar  
     2    1    7 ar  
     3    1   38 1   
     4    2    3 ar  
     5    2   39 1   
     6    3    4 1   
     7    3    5 ar  
     8    4   40 1   
     9    5    6 ar  
    10    5   41 1   
    11    6    7 ar  
    12    6   42 1   
    13    7    8 1   
    14    8    9 1   
    15    8   43 1   
    16    8   44 1   
    17    9   10 1   
    18    9   14 1   
    19    9   45 1   
    20   10   11 1   
    21   10   12 1   
    22   10   13 1   
    23   14   15 1   
    24   14   46 1   
    25   15   16 2   
    26   15   17 1   
    27   17   18 1   
    28   17   30 1   
    29   17   47 1   
    30   18   19 1   
    31   18   48 1   
    32   19   20 2   
    33   19   21 1   
    34   21   22 1   
    35   21   26 1   
    36   21   51 1   
    37   22   23 1   
    38   22   24 1   
    39   22   52 1   
    40   23   54 1   
    41   23   55 1   
    42   23   56 1   
    43   24   25 1   
    44   24   57 1   
    45   24   58 1   
    46   25   59 1   
    47   25   60 1   
    48   25   61 1   
    49   26   27 1   
    50   26   53 1   
    51   27   28 1   
    52   27   29 2   
    53   28   62 1   
    54   28   63 1   
    55   28   64 1   
    56   30   31 1   
    57   30   49 1   
    58   30   50 1   
    59   31   32 ar  
    60   31   37 ar  
    61   32   33 ar  
    62   32   65 1   
    63   33   34 ar  
    64   33   67 1   
    65   34   35 1   
    66   34   36 ar  
    67   35   68 1   
    68   36   37 ar  
    69   36   69 1   
    70   37   66 1   
@<TRIPOS>SUBSTRUCTURE
     1 K26         1 TEMP              0 ****  ****    0 ROOT
