@<TRIPOS>MOLECULE
K26
   72    73     1     0     0
SMALL
bcc


@<TRIPOS>ATOM
      1 CAR         0.0000    0.0000    0.0000 ca        1 K26     -0.089500
      2 CAN         1.3810    0.0000    0.0000 ca        1 K26     -0.130500
      3 CBD         2.0730    0.0000    1.2030 ca        1 K26      0.136100
      4 OAI         3.4320   -0.0000    1.2060 oh        1 K26     -0.503100
      5 CAO         1.3760    0.0000    2.4020 ca        1 K26     -0.130500
      6 CAS        -0.0050    0.0000    2.3970 ca        1 K26     -0.089500
      7 CBF        -0.6930    0.0010    1.1970 ca        1 K26     -0.155300
      8 CAV        -2.2000    0.0010    1.1940 c3        1 K26      0.064900
      9 CBI        -2.7100    1.4400    1.2900 c3        1 K26     -0.115700
     10 PBK        -4.5260    1.4520    1.1330 p5        1 K26      0.530700
     11 OAJ        -5.1150    0.5480    2.1470 o         1 K26     -0.472833
     12 OAK        -5.0750    2.9480    1.3640 o         1 K26     -0.472833
     13 OAG        -4.9410    0.9500   -0.3390 o         1 K26     -0.472833
     14 NAY        -2.3280    2.0090    2.5840 ny        1 K26      0.202200
     15 C          -1.8140    3.2530    2.6470 c         1 K26      0.300100
     16 O          -1.6670    3.9010    1.6330 o         1 K26     -0.475100
     17 CA         -1.4190    3.8380    3.9790 c3        1 K26     -0.116500
     18 N          -0.8920    5.1900    3.7810 ny        1 K26      0.232200
     19 CBB        -0.0360    5.7180    4.6790 c         1 K26      0.083100
     20 OAF         0.2960    5.0730    5.6520 o         1 K26     -0.565100
     21 CBJ         0.5060    7.1090    4.4760 c3        1 K26     -0.049500
     22 CBG         1.6550    7.0660    3.4650 c3        1 K26     -0.095700
     23 CAC         1.1400    6.5190    2.1320 c3        1 K26     -0.003100
     24 CAT         2.2050    8.4780    3.2590 c3        1 K26     -0.032400
     25 CAA         3.4320    8.4180    2.3460 c3        1 K26      0.008900
     26 NAX         0.9990    7.6320    5.7530 ny        1 K26      0.155200
     27 CAZ         1.9870    6.9900    6.4080 c         1 K26      0.340100
     28 CAB         2.4930    7.5290    7.7210 c3        1 K26     -0.050100
     29 OAD         2.4670    5.9790    5.9410 o         1 K26     -0.396100
     30 CB         -2.6460    3.8980    4.8930 c3        1 K26      0.027900
     31 CG         -2.2290    4.3680    6.2620 ca        1 K26     -0.178300
     32 CD1        -1.8520    3.4470    7.2220 ca        1 K26     -0.109000
     33 CE1        -1.8470    6.1510    7.8140 ca        1 K26     -0.181000
     34 CZ         -1.4640    5.2300    8.7770 ca        1 K26      0.244100
     35 OH         -1.0890    5.6530   10.0130 oh        1 K26     -0.487100
     36 CE2        -1.4650    3.8750    8.4770 ca        1 K26     -0.181000
     37 CD2        -2.2300    5.7170    6.5590 ca        1 K26     -0.109000
     38 HAR        -0.5410    0.0000   -0.9380 ha        1 K26      0.109000
     39 HAN         1.9240   -0.0010   -0.9380 ha        1 K26      0.122000
     40 HAI         3.7470   -0.8760    1.0560 ho        1 K26      0.419000
     41 HAO         1.9150   -0.0000    3.3420 ha        1 K26      0.122000
     42 HAS        -0.5490    0.0010    3.3330 ha        1 K26      0.109000
     43 HAV1       -2.5590   -0.4490    0.2760 hc        1 K26      0.062700
     44 HAV2       -2.5630   -0.5690    2.0410 hc        1 K26      0.062700
     45 HBI        -2.2750    2.0310    0.4930 hx        1 K26      0.108700
     46 HAY        -3.1470    2.0030    3.1580 hn        1 K26      0.255800
     47 HA         -0.6580    3.2160    4.4350 hx        1 K26      0.119700
     48 H          -0.4240    5.1940    2.8960 hn        1 K26      0.226800
     49 HB1C       -3.3710    4.5880    4.4800 hc        1 K26      0.059700
     50 HB2C       -3.0880    2.9120    4.9690 hc        1 K26      0.059700
     51 HBJ        -0.2800    7.7520    4.1010 hx        1 K26      0.074700
     52 HBG         2.4420    6.4220    3.8400 hc        1 K26      0.087700
     53 HAX         1.3220    8.5640    5.5800 hn        1 K26      0.269300
     54 HAC1        0.1020    6.8000    2.0030 hc        1 K26      0.026367
     55 HAC2        1.2260    5.4390    2.1270 hc        1 K26      0.026367
     56 HAC3        1.7280    6.9320    1.3210 hc        1 K26      0.026367
     57 HAT1        2.4880    8.8990    4.2160 hc        1 K26      0.010200
     58 HAT2        1.4450    9.0990    2.8010 hc        1 K26      0.010200
     59 HAA1        4.1340    9.1910    2.6340 hc        1 K26      0.022367
     60 HAA2        3.1250    8.5730    1.3190 hc        1 K26      0.022367
     61 HAA3        3.9040    7.4480    2.4400 hc        1 K26      0.022367
     62 HAB1        2.6330    6.7110    8.4170 hc        1 K26      0.055700
     63 HAB2        1.7730    8.2290    8.1260 hc        1 K26      0.055700
     64 HAB3        3.4380    8.0340    7.5630 hc        1 K26      0.055700
     65 HD1        -2.5940    2.7960    7.6690 ha        1 K26      0.129000
     66 HD2        -2.5760    5.9390    5.5560 ha        1 K26      0.129000
     67 HE1        -2.7840    6.6850    7.9170 ha        1 K26      0.147000
     68 HH         -1.8040    5.5370   10.6150 ho        1 K26      0.426000
     69 HE2        -2.2030    3.2220    8.9260 ha        1 K26      0.147000
     70 HAY2       -1.6480    1.3920    2.9830 hn        1 K26      0.255800
     71 H2         -1.6800    5.8060    3.7350 hn        1 K26      0.226800
     72 HAX2        0.2150    7.6690    6.3740 hn        1 K26      0.269300
@<TRIPOS>BOND
     1    1    2 ar  
     2    1    7 ar  
     3    1   38 1   
     4    2    3 ar  
     5    2   39 1   
     6    3    4 1   
     7    3    5 ar  
     8    4   40 1   
     9    5    6 ar  
    10    5   41 1   
    11    6    7 ar  
    12    6   42 1   
    13    7    8 1   
    14    8    9 1   
    15    8   43 1   
    16    8   44 1   
    17    9   10 1   
    18    9   14 1   
    19    9   45 1   
    20   10   11 1   
    21   10   12 1   
    22   10   13 1   
    23   14   15 1   
    24   14   46 1   
    25   14   70 1   
    26   15   16 2   
    27   15   17 1   
    28   17   18 1   
    29   17   30 1   
    30   17   47 1   
    31   18   19 1   
    32   18   48 1   
    33   18   71 1   
    34   19   20 2   
    35   19   21 1   
    36   21   22 1   
    37   21   26 1   
    38   21   51 1   
    39   22   23 1   
    40   22   24 1   
    41   22   52 1   
    42   23   54 1   
    43   23   55 1   
    44   23   56 1   
    45   24   25 1   
    46   24   57 1   
    47   24   58 1   
    48   25   59 1   
    49   25   60 1   
    50   25   61 1   
    51   26   27 1   
    52   26   53 1   
    53   26   72 1   
    54   27   28 1   
    55   27   29 2   
    56   28   62 1   
    57   28   63 1   
    58   28   64 1   
    59   30   31 1   
    60   30   49 1   
    61   30   50 1   
    62   31   32 ar  
    63   31   37 ar  
    64   32   36 ar  
    65   32   65 1   
    66   33   34 ar  
    67   33   37 ar  
    68   33   67 1   
    69   34   35 1   
    70   34   36 ar  
    71   35   68 1   
    72   36   69 1   
    73   37   66 1   
@<TRIPOS>SUBSTRUCTURE
     1 K26         1 TEMP              0 ****  ****    0 ROOT
