@<TRIPOS>MOLECULE
K27
   39    40     1     0     0
SMALL
bcc


@<TRIPOS>ATOM
      1 C1         -1.1340   -1.8000    0.1850 c3        1 K27      0.000300
      2 C5A        -4.9290    0.1450   -0.1980 ca        1 K27      0.055100
      3 O10        -8.0710    1.7380    0.3400 oh        1 K27     -0.285500
      4 N9         -6.9400    1.1920    0.6320 n2        1 K27     -0.331200
      5 C8         -6.2220    0.7780   -0.3910 ce        1 K27      0.304800
      6 C4         -4.2080   -0.2870   -1.3350 ca        1 K27     -0.138000
      7 C3         -2.9700   -0.9060   -1.1870 ca        1 K27     -0.023800
      8 N2         -2.4170   -1.1120    0.0540 na        1 K27     -0.005100
      9 C7         -3.1030   -0.6950    1.1690 ca        1 K27     -0.023800
     10 C6         -4.3450   -0.0720    1.0680 ca        1 K27     -0.138000
     11 C2          0.0830   -0.8820    0.0210 c3        1 K27     -0.126400
     12 C5          1.3480   -1.7280    0.1940 c3        1 K27     -0.005700
     13 N8          2.5920   -0.9650    0.0660 na        1 K27      0.021900
     14 C9          3.0240   -0.1800    1.1060 ca        1 K27     -0.032800
     15 C10         4.2080    0.5560    1.0150 ca        1 K27     -0.103500
     16 C11         4.9760    0.4910   -0.1600 ca        1 K27     -0.006600
     17 C12         4.5360   -0.3190   -1.2130 ca        1 K27     -0.103500
     18 C13         3.3390   -1.0350   -1.0810 ca        1 K27     -0.032800
     19 C14         6.1940    1.3750   -0.2620 c         1 K27      0.650700
     20 N15         7.3230    0.8600   -0.8220 n         1 K27     -0.636000
     21 O3          6.1060    2.5440    0.1520 o         1 K27     -0.536100
     22 H11C       -1.1020   -2.2920    1.2010 h1        1 K27      0.102700
     23 H12C       -1.0980   -2.6150   -0.5970 h1        1 K27      0.102700
     24 H21C        0.0700   -0.4000   -0.9920 hc        1 K27      0.085200
     25 H22C        0.0580   -0.0620    0.7880 hc        1 K27      0.085200
     26 H8         -6.5640    0.8870   -1.4430 h4        1 K27      0.050800
     27 H4         -4.6200   -0.1450   -2.3510 ha        1 K27      0.212500
     28 H6         -4.8600    0.2400    1.9970 ha        1 K27      0.212500
     29 H10        -8.4870    1.9850    1.2020 ho        1 K27      0.485000
     30 H3         -2.3950   -1.2620   -2.0650 h4        1 K27      0.202500
     31 H7         -2.6350   -0.8840    2.1570 h4        1 K27      0.202500
     32 H51C        1.3470   -2.2090    1.2170 h1        1 K27      0.106700
     33 H52C        1.3590   -2.5530   -0.5780 h1        1 K27      0.106700
     34 H9          2.3970   -0.1550    2.0220 h4        1 K27      0.209000
     35 H13         2.9660   -1.6830   -1.9010 h4        1 K27      0.209000
     36 HA          4.5250    1.2030    1.8570 ha        1 K27      0.220000
     37 H12         5.1030   -0.3970   -2.1590 ha        1 K27      0.220000
     38 H151        7.4040   -0.0970   -1.0560 hn        1 K27      0.341500
     39 H152        8.1360    1.4340   -0.8720 hn        1 K27      0.341500
@<TRIPOS>BOND
     1    1    8 1   
     2    1   11 1   
     3    1   22 1   
     4    1   23 1   
     5    2    5 1   
     6    2    6 ar  
     7    2   10 ar  
     8    3    4 1   
     9    3   29 1   
    10    4    5 2   
    11    5   26 1   
    12    6    7 ar  
    13    6   27 1   
    14    7    8 1   
    15    7   30 1   
    16    8    9 2   
    17    9   10 ar  
    18    9   31 1   
    19   10   28 1   
    20   11   12 1   
    21   11   24 1   
    22   11   25 1   
    23   12   13 1   
    24   12   32 1   
    25   12   33 1   
    26   13   14 1   
    27   13   18 2   
    28   14   15 ar  
    29   14   34 1   
    30   15   16 ar  
    31   15   36 1   
    32   16   17 ar  
    33   16   19 1   
    34   17   18 ar  
    35   17   37 1   
    36   18   35 1   
    37   19   20 1   
    38   19   21 2   
    39   20   38 1   
    40   20   39 1   
@<TRIPOS>SUBSTRUCTURE
     1 K27         1 TEMP              0 ****  ****    0 ROOT
