@<TRIPOS>MOLECULE
K27
   39    36     1     0     0
SMALL
bcc


@<TRIPOS>ATOM
      1 C1         -0.0400   -2.1550    0.2150 c3        1 K27     -0.060000
      2 C5A         4.1670   -2.4200    0.1260 c1        1 K27      0.105000
      3 O10         6.6200   -1.1290    0.1160 oh        1 K27     -0.244000
      4 N9          6.6190   -2.4900   -0.0800 n2        1 K27      0.092000
      5 C8          5.4770   -3.1570   -0.0850 c1        1 K27     -0.184000
      6 C4          3.4600   -2.3810   -1.0420 c1        1 K27     -0.134000
      7 C3          2.0730   -2.2490   -1.0130 c1        1 K27     -0.006000
      8 N2          1.4190   -2.1590    0.1830 n3        1 K27     -0.069000
      9 C7          2.1260   -2.1990    1.3520 c2        1 K27      0.003000
     10 C6          3.5120   -2.3310    1.3240 c2        1 K27     -0.135000
     11 C2         -0.5520   -0.6960    0.2420 c3        1 K27     -0.205000
     12 C5         -2.0710   -0.6850    0.0770 c3        1 K27     -0.065000
     13 N8         -2.5430    0.6750    0.0600 n3        1 K27     -0.046000
     14 C9         -2.9040    1.2860    1.2250 c2        1 K27     -0.014000
     15 C10        -3.3690    2.5930    1.2080 c1        1 K27     -0.090000
     16 C11        -3.4660    3.2690    0.0250 c1        1 K27      0.014000
     17 C12        -3.1030    2.6560   -1.1430 c1        1 K27     -0.117000
     18 C13        -2.6380    1.3490   -1.1240 c1        1 K27     -0.003000
     19 C14        -4.0500    4.6680   -0.0020 c2        1 K27      0.324000
     20 N15        -4.1500    5.3700   -1.2290 n         1 K27     -0.396000
     21 O3         -4.3710    5.2120    1.0350 o         1 K27     -0.297000
     22 H11C       -0.3520   -2.6260    1.0170 h1        1 K27      0.143000
     23 H12C       -0.3860   -2.6080   -0.5840 h1        1 K27      0.143000
     24 H21C       -0.3150   -0.2840    1.0930 hc        1 K27      0.124500
     25 H22C       -0.1440   -0.1960   -0.4840 hc        1 K27      0.124500
     26 H8          5.4760   -4.1240   -0.2250 ha        1 K27      0.203000
     27 H4          3.9280   -2.4450   -1.8990 ha        1 K27      0.207000
     28 H6          4.0180   -2.3590    2.1610 ha        1 K27      0.221000
     29 H10         7.4660   -0.8260    0.1120 ho        1 K27      0.294000
     30 H3          1.5700   -2.2210   -1.8450 ha        1 K27      0.202000
     31 H7          1.6600   -2.1350    2.2030 h4        1 K27      0.204000
     32 H51C       -2.3120   -1.1270   -0.7710 h1        1 K27      0.146000
     33 H52C       -2.4850   -1.1660    0.8260 h1        1 K27      0.146000
     34 H9         -2.8350    0.8010    2.0740 h4        1 K27      0.208000
     35 H13        -2.3800    0.9110   -1.9570 ha        1 K27      0.210000
     36 HA         -3.6280    3.0310    2.0440 ha        1 K27      0.228000
     37 H12        -3.1710    3.1380   -1.9890 ha        1 K27      0.212000
     38 H151       -3.7650    5.0240   -1.9880 hn        1 K27      0.255000
     39 H152       -4.5620    6.1850   -1.2570 hn        1 K27      0.255000
@<TRIPOS>BOND
     1    1    8 1   
     2    1   11 1   
     3    1   22 1   
     4    1   23 1   
     5    2    6 1   
     6    2   10 1   
     7    3    4 1   
     8    3   29 1   
     9    4    5 1   
    10    5   26 1   
    11    6   27 1   
    12    7    8 1   
    13    7   30 1   
    14    8    9 1   
    15    9   10 1   
    16    9   31 1   
    17   10   28 1   
    18   11   12 1   
    19   11   24 1   
    20   11   25 1   
    21   12   13 1   
    22   12   32 1   
    23   12   33 1   
    24   13   14 1   
    25   13   18 1   
    26   14   15 1   
    27   14   34 1   
    28   15   36 1   
    29   16   17 1   
    30   16   19 1   
    31   17   37 1   
    32   18   35 1   
    33   19   20 1   
    34   19   21 1   
    35   20   38 1   
    36   20   39 1   
@<TRIPOS>SUBSTRUCTURE
     1 K27         1 TEMP              0 ****  ****    0 ROOT
