@<TRIPOS>MOLECULE
K27
   40    41     1     0     0
SMALL
bcc


@<TRIPOS>ATOM
      1 C1          0.2280    0.3070    0.0560 c3        1 K27      0.006300
      2 C5A         4.4360   -0.3760   -0.3310 ca        1 K27      0.072100
      3 O10         7.7140   -1.1800   -1.4570 oh        1 K27     -0.272500
      4 N9          6.4510   -0.9590   -1.5270 n2        1 K27     -0.315200
      5 C8          5.8580   -0.6440   -0.3890 ce        1 K27      0.292800
      6 C4          3.8510   -0.0680    0.9220 ca        1 K27     -0.139000
      7 C3          2.4870    0.1750    1.0200 ca        1 K27     -0.024800
      8 N2          1.6680    0.1330   -0.0860 na        1 K27     -0.022100
      9 C7          2.2210   -0.1600   -1.3120 ca        1 K27     -0.024800
     10 C6          3.5820   -0.4110   -1.4560 ca        1 K27     -0.139000
     11 C2         -0.2380    1.7720    0.0630 c3        1 K27     -0.125400
     12 C5         -1.7620    1.7780    0.2070 c3        1 K27     -0.016700
     13 N8         -2.3730    3.1220    0.2420 na        1 K27      0.059900
     14 C9         -2.4830    3.8570   -0.9080 ca        1 K27     -0.004800
     15 C10        -3.0980    5.1200   -0.9150 ca        1 K27     -0.088000
     16 C11        -3.6180    5.6380    0.2820 ca        1 K27     -0.069600
     17 C12        -3.5070    4.8840    1.4550 ca        1 K27     -0.088000
     18 C13        -2.8760    3.6270    1.4100 ca        1 K27     -0.004800
     19 C14        -4.1550    7.0240    0.2730 c         1 K27      0.532700
     20 N15        -5.5560    7.2380    0.7720 nz        1 K27     -0.748400
     21 O3         -3.5600    8.0120   -0.1170 o         1 K27     -0.299100
     22 H11C       -0.2780   -0.2410   -0.7930 h1        1 K27      0.104700
     23 H12C       -0.0870   -0.1880    1.0230 h1        1 K27      0.104700
     24 H21C        0.2420    2.3230    0.9150 hc        1 K27      0.088200
     25 H22C        0.0670    2.2800   -0.8890 hc        1 K27      0.088200
     26 H8          6.4150   -0.5780    0.5720 h4        1 K27      0.055800
     27 H4          4.4730   -0.0300    1.8370 ha        1 K27      0.216500
     28 H6          3.9750   -0.6480   -2.4640 ha        1 K27      0.216500
     29 H10         8.0080   -1.4130   -2.3730 ho        1 K27      0.493000
     30 H3          2.0110    0.3960    1.9960 h4        1 K27      0.198500
     31 H7          1.5360   -0.2050   -2.1840 h4        1 K27      0.198500
     32 H51C       -2.0540    1.2420    1.1590 h1        1 K27      0.121700
     33 H52C       -2.2310    1.2270   -0.6630 h1        1 K27      0.121700
     34 H9         -2.0670    3.4190   -1.8450 h4        1 K27      0.240000
     35 H13        -2.7740    3.0120    2.3340 h4        1 K27      0.240000
     36 HA         -3.1420    5.6860   -1.8680 ha        1 K27      0.223000
     37 H12        -3.8720    5.2440    2.4360 ha        1 K27      0.223000
     38 H151       -5.6690    6.8780    1.7270 hn        1 K27      0.494800
     39 H152       -5.7690    8.2540    0.7750 hn        1 K27      0.494800
     40 H153       -6.2360    6.7700    0.1560 hn        1 K27      0.494800
@<TRIPOS>BOND
     1    1    8 1   
     2    1   11 1   
     3    1   22 1   
     4    1   23 1   
     5    2    5 1   
     6    2    6 ar  
     7    2   10 ar  
     8    3    4 1   
     9    3   29 1   
    10    4    5 2   
    11    5   26 1   
    12    6    7 ar  
    13    6   27 1   
    14    7    8 1   
    15    7   30 1   
    16    8    9 2   
    17    9   10 ar  
    18    9   31 1   
    19   10   28 1   
    20   11   12 1   
    21   11   24 1   
    22   11   25 1   
    23   12   13 1   
    24   12   32 1   
    25   12   33 1   
    26   13   14 1   
    27   13   18 2   
    28   14   15 ar  
    29   14   34 1   
    30   15   16 ar  
    31   15   36 1   
    32   16   17 ar  
    33   16   19 1   
    34   17   18 ar  
    35   17   37 1   
    36   18   35 1   
    37   19   20 1   
    38   19   21 2   
    39   20   38 1   
    40   20   39 1   
    41   20   40 1   
@<TRIPOS>SUBSTRUCTURE
     1 K27         1 TEMP              0 ****  ****    0 ROOT
