@<TRIPOS>MOLECULE
K27
   40    41     1     0     0
SMALL
bcc


@<TRIPOS>ATOM
      1 C1          0.2250    0.3070    0.0710 c3        1 K27      0.006300
      2 C5A         4.4320   -0.3840   -0.3220 ca        1 K27      0.072100
      3 O10         7.7060   -1.2020   -1.4500 oh        1 K27     -0.272500
      4 N9          6.4420   -0.9800   -1.5180 n2        1 K27     -0.315200
      5 C8          5.8530   -0.6540   -0.3820 ce        1 K27      0.292800
      6 C4          3.8510   -0.0640    0.9290 ca        1 K27     -0.139000
      7 C3          2.4880    0.1810    1.0290 ca        1 K27     -0.024800
      8 N2          1.6650    0.1300   -0.0750 na        1 K27     -0.022100
      9 C7          2.2140   -0.1750   -1.2990 ca        1 K27     -0.024800
     10 C6          3.5740   -0.4280   -1.4450 ca        1 K27     -0.139000
     11 C2         -0.2390    1.7730    0.0680 c3        1 K27     -0.125400
     12 C5         -1.7620    1.7810    0.2150 c3        1 K27     -0.016700
     13 N8         -2.3710    3.1270    0.2420 na        1 K27      0.059900
     14 C9         -2.4810    3.8540   -0.9130 ca        1 K27     -0.004800
     15 C10        -3.0950    5.1180   -0.9270 ca        1 K27     -0.088000
     16 C11        -3.6130    5.6450    0.2660 ca        1 K27     -0.069600
     17 C12        -3.5020    4.8980    1.4440 ca        1 K27     -0.088000
     18 C13        -2.8720    3.6400    1.4070 ca        1 K27     -0.004800
     19 C14        -4.1480    7.0310    0.2490 c         1 K27      0.532700
     20 N15        -5.5480    7.2500    0.7480 n4        1 K27     -0.748400
     21 O3         -3.5530    8.0170   -0.1480 o         1 K27     -0.299100
     22 H11C       -0.2830   -0.2470   -0.7730 h1        1 K27      0.104700
     23 H12C       -0.0870   -0.1800    1.0420 h1        1 K27      0.104700
     24 H21C        0.2440    2.3290    0.9150 hc        1 K27      0.088200
     25 H22C        0.0660    2.2730   -0.8890 hc        1 K27      0.088200
     26 H8          6.4130   -0.5800    0.5760 h4        1 K27      0.055800
     27 H4          4.4750   -0.0180    1.8420 ha        1 K27      0.216500
     28 H6          3.9640   -0.6760   -2.4510 ha        1 K27      0.216500
     29 H10         7.9970   -1.4440   -2.3650 ho        1 K27      0.493000
     30 H3          2.0140    0.4120    2.0050 h4        1 K27      0.198500
     31 H7          1.5270   -0.2270   -2.1680 h4        1 K27      0.198500
     32 H51C       -2.0530    1.2520    1.1710 h1        1 K27      0.121700
     33 H52C       -2.2340    1.2250   -0.6510 h1        1 K27      0.121700
     34 H9         -2.0670    3.4100   -1.8480 h4        1 K27      0.240000
     35 H13        -2.7710    3.0300    2.3350 h4        1 K27      0.240000
     36 HA         -3.1390    5.6780   -1.8840 ha        1 K27      0.223000
     37 H12        -3.8650    5.2640    2.4230 ha        1 K27      0.223000
     38 H151       -5.6610    6.8970    1.7060 hn        1 K27      0.494800
     39 H152       -5.7600    8.2670    0.7450 hn        1 K27      0.494800
     40 H153       -6.2290    6.7790    0.1360 hn        1 K27      0.494800
@<TRIPOS>BOND
     1    1    8 1   
     2    1   11 1   
     3    1   22 1   
     4    1   23 1   
     5    2    5 1   
     6    2    6 ar  
     7    2   10 ar  
     8    3    4 1   
     9    3   29 1   
    10    4    5 2   
    11    5   26 1   
    12    6    7 ar  
    13    6   27 1   
    14    7    8 1   
    15    7   30 1   
    16    8    9 2   
    17    9   10 ar  
    18    9   31 1   
    19   10   28 1   
    20   11   12 1   
    21   11   24 1   
    22   11   25 1   
    23   12   13 1   
    24   12   32 1   
    25   12   33 1   
    26   13   14 1   
    27   13   18 2   
    28   14   15 ar  
    29   14   34 1   
    30   15   16 ar  
    31   15   36 1   
    32   16   17 ar  
    33   16   19 1   
    34   17   18 ar  
    35   17   37 1   
    36   18   35 1   
    37   19   20 1   
    38   19   21 2   
    39   20   38 1   
    40   20   39 1   
    41   20   40 1   
@<TRIPOS>SUBSTRUCTURE
     1 K27         1 TEMP              0 ****  ****    0 ROOT
