@<TRIPOS>MOLECULE
K27
   40    41     1     0     0
SMALL
bcc


@<TRIPOS>ATOM
      1 C1          0.2130    0.3020    0.0370 c3        1 K27      0.006300
      2 C5A         4.4240   -0.3880   -0.3080 ca        1 K27      0.072100
      3 O10         7.7130   -1.1870   -1.4050 oh        1 K27     -0.272500
      4 N9          6.4510   -0.9610   -1.4870 n2        1 K27     -0.315200
      5 C8          5.8460   -0.6600   -0.3520 ce        1 K27      0.292800
      6 C4          3.8250   -0.0940    0.9420 ca        1 K27     -0.139000
      7 C3          2.4610    0.1510    1.0260 ca        1 K27     -0.024800
      8 N2          1.6550    0.1260   -0.0910 na        1 K27     -0.022100
      9 C7          2.2220   -0.1520   -1.3140 ca        1 K27     -0.024800
     10 C6          3.5830   -0.4050   -1.4440 ca        1 K27     -0.139000
     11 C2         -0.2490    1.7680    0.0550 c3        1 K27     -0.125400
     12 C5         -1.7750    1.7760    0.1820 c3        1 K27     -0.016700
     13 N8         -2.3820    3.1220    0.2240 na        1 K27      0.059900
     14 C9         -2.4790    3.8680   -0.9190 ca        1 K27     -0.005300
     15 C10        -3.0910    5.1330   -0.9200 ca        1 K27     -0.088000
     16 C11        -3.6220    5.6410    0.2770 ca        1 K27     -0.069600
     17 C12        -3.5240    4.8750    1.4440 ca        1 K27     -0.088000
     18 C13        -2.8960    3.6170    1.3920 ca        1 K27     -0.005300
     19 C14        -4.1540    7.0280    0.2760 c         1 K27      0.532700
     20 N15        -5.5600    7.2410    0.7640 n4        1 K27     -0.748400
     21 O3         -3.5540    8.0190   -0.0980 o         1 K27     -0.299100
     22 H11C       -0.2840   -0.2340   -0.8250 h1        1 K27      0.104700
     23 H12C       -0.1140   -0.2030    0.9940 h1        1 K27      0.104700
     24 H21C        0.0690    2.2860   -0.8880 hc        1 K27      0.088200
     25 H22C        0.2220    2.3080    0.9190 hc        1 K27      0.088200
     26 H8          6.3910   -0.6080    0.6160 h4        1 K27      0.055800
     27 H4          4.4350   -0.0700    1.8640 ha        1 K27      0.216500
     28 H6          3.9880   -0.6300   -2.4500 ha        1 K27      0.216500
     29 H10         8.0180   -1.4080   -2.3210 ho        1 K27      0.493000
     30 H3          1.9730    0.3600    1.9990 h4        1 K27      0.198500
     31 H7          1.5480   -0.1840   -2.1940 h4        1 K27      0.198500
     32 H51C       -2.2350    1.2360   -0.7000 h1        1 K27      0.121700
     33 H52C       -2.0790    1.2310    1.1250 h1        1 K27      0.121700
     34 H9         -2.0550    3.4400   -1.8570 h4        1 K27      0.240000
     35 H13        -2.8050    2.9920    2.3110 h4        1 K27      0.240000
     36 HA         -3.1240    5.7090   -1.8680 ha        1 K27      0.223000
     37 H12        -3.8980    5.2260    2.4240 ha        1 K27      0.223000
     38 H151       -5.7700    8.2580    0.7760 hn        1 K27      0.494800
     39 H152       -5.6830    6.8720    1.7140 hn        1 K27      0.494800
     40 H153       -6.2350    6.7810    0.1370 hn        1 K27      0.494800
@<TRIPOS>BOND
     1    1    8 1   
     2    1   11 1   
     3    1   22 1   
     4    1   23 1   
     5    2    5 1   
     6    2    6 ar  
     7    2   10 ar  
     8    3    4 1   
     9    3   29 1   
    10    4    5 2   
    11    5   26 1   
    12    6    7 ar  
    13    6   27 1   
    14    7    8 1   
    15    7   30 1   
    16    8    9 2   
    17    9   10 ar  
    18    9   31 1   
    19   10   28 1   
    20   11   12 1   
    21   11   24 1   
    22   11   25 1   
    23   12   13 1   
    24   12   32 1   
    25   12   33 1   
    26   13   14 1   
    27   13   18 2   
    28   14   15 ar  
    29   14   34 1   
    30   15   16 ar  
    31   15   36 1   
    32   16   17 ar  
    33   16   19 1   
    34   17   18 ar  
    35   17   37 1   
    36   18   35 1   
    37   19   20 1   
    38   19   21 2   
    39   20   38 1   
    40   20   39 1   
    41   20   40 1   
@<TRIPOS>SUBSTRUCTURE
     1 K27         1 TEMP              0 ****  ****    0 ROOT
