@<TRIPOS>MOLECULE
K2A
   80    83     1     0     0
SMALL
bcc


@<TRIPOS>ATOM
      1 C1          1.4260   -5.2200   -1.0480 c3        1 K2A      0.165700
      2 O1          2.5080   -6.0860   -0.7370 oh        1 K2A     -0.597800
      3 C2          1.9300   -3.8200   -1.1780 ca        1 K2A     -0.024300
      4 C3          0.9980   -2.7830   -1.3190 ca        1 K2A     -0.143500
      5 C4          1.4350   -1.4700   -1.4580 ca        1 K2A     -0.016500
      6 C5          2.8010   -1.1590   -1.4540 ca        1 K2A     -0.393500
      7 C6          3.7210   -2.2050   -1.3090 ca        1 K2A     -0.016500
      8 C7          3.2960   -3.5230   -1.1740 ca        1 K2A     -0.143500
      9 S8          3.3300    0.4250   -1.6600 sy        1 K2A      1.504200
     10 O9          4.7230    0.4080   -1.8880 o         1 K2A     -0.653300
     11 O10         2.5440    1.0580   -2.6500 o         1 K2A     -0.653300
     12 N11         3.0050    1.1170   -0.2090 n3        1 K2A     -0.799500
     13 C12         3.8220    0.8420    0.9450 c3        1 K2A      0.218800
     14 C13         5.1100    1.6790    1.0620 c3        1 K2A     -0.093700
     15 C14         4.7990    3.1490    1.2280 c3        1 K2A     -0.085100
     16 C15         5.9150    1.1540    2.2440 c3        1 K2A     -0.074400
     17 C16         1.8730    1.9760   -0.0170 c3        1 K2A      0.193800
     18 C17         0.7240    1.3540    0.8090 c3        1 K2A      0.076100
     19 C18         7.3630    1.5680    2.1780 c3        1 K2A     -0.093100
     20 O18         0.8960    1.5640    2.1970 oh        1 K2A     -0.592800
     21 C19        -0.6490    1.8960    0.3200 c3        1 K2A      0.069700
     22 N20        -1.7690    1.1760    0.8960 n         1 K2A     -0.500900
     23 C21        -2.0110   -0.1180    0.4740 c         1 K2A      0.735100
     24 O22        -1.5710   -0.6940   -0.5360 o         1 K2A     -0.597000
     25 O23        -2.9030   -0.7800    1.3000 os        1 K2A     -0.430900
     26 C24        -3.3850   -2.0460    0.8400 c3        1 K2A      0.130100
     27 C25        -3.6890   -2.8810    2.0990 c3        1 K2A      0.121400
     28 O26        -4.9010   -3.5950    1.8570 os        1 K2A     -0.418600
     29 C27        -5.6100   -3.0260    0.7630 c3        1 K2A      0.321900
     30 O28        -6.7450   -2.4010    1.3350 os        1 K2A     -0.419600
     31 C29        -6.6230   -0.9750    1.2550 c3        1 K2A      0.124400
     32 C30        -5.4960   -0.6460    0.2770 c3        1 K2A     -0.104400
     33 C31        -4.7250   -1.9470    0.0890 c3        1 K2A     -0.131700
     34 C32        -0.7590    3.4050    0.5950 c3        1 K2A     -0.042100
     35 C33        -3.0020    4.5220    0.6660 ca        1 K2A     -0.122000
     36 C34        -4.0880    5.1180    0.0250 ca        1 K2A     -0.126000
     37 C35        -4.1110    5.2200   -1.3650 ca        1 K2A     -0.126000
     38 C36        -3.0440    4.7260   -2.1160 ca        1 K2A     -0.126000
     39 C37        -1.9570    4.1310   -1.4790 ca        1 K2A     -0.122000
     40 C38        -1.9290    4.0240   -0.0820 ca        1 K2A     -0.084300
     41 H1          0.9510   -5.5360   -2.0190 h1        1 K2A      0.040200
     42 H1A         0.6530   -5.2730   -0.2320 h1        1 K2A      0.040200
     43 HO1         2.1390   -6.9760   -0.7030 ho        1 K2A      0.407000
     44 H3         -0.0820   -2.9960   -1.3170 ha        1 K2A      0.154500
     45 H4          0.6830   -0.6680   -1.5770 ha        1 K2A      0.159000
     46 H6          4.8020   -1.9760   -1.3140 ha        1 K2A      0.159000
     47 H7          4.0300   -4.3380   -1.0630 ha        1 K2A      0.154500
     48 H12         3.2100    0.9880    1.8820 h1        1 K2A      0.055700
     49 H12A        4.1190   -0.2490    0.8990 h1        1 K2A      0.055700
     50 H13         5.7170    1.5390    0.1210 hc        1 K2A      0.081700
     51 H14         4.0830    3.3090    2.0710 hc        1 K2A      0.032700
     52 H14A        5.7330    3.7210    1.4480 hc        1 K2A      0.032700
     53 H14B        4.3500    3.5660    0.2940 hc        1 K2A      0.032700
     54 H15         5.4570    1.5240    3.1990 hc        1 K2A      0.038200
     55 H15A        5.8610    0.0320    2.2640 hc        1 K2A      0.038200
     56 H16         2.2120    2.9180    0.5070 h1        1 K2A      0.069200
     57 H16A        1.4720    2.2700   -1.0320 h1        1 K2A      0.069200
     58 H17         0.7220    0.2280    0.7050 h1        1 K2A      0.098700
     59 H18         7.4640    2.6790    2.2090 hc        1 K2A      0.035700
     60 H18A        7.9240    1.1400    3.0440 hc        1 K2A      0.035700
     61 H18B        7.8360    1.2000    1.2350 hc        1 K2A      0.035700
     62 HO18        1.0400    2.5090    2.3370 ho        1 K2A      0.400000
     63 H19        -0.6950    1.7250   -0.8010 h1        1 K2A      0.097700
     64 HN20       -2.0010    1.3910    1.8420 hn        1 K2A      0.323500
     65 H24        -2.6110   -2.5410    0.1940 h1        1 K2A      0.088700
     66 H25        -2.9020   -3.6520    2.2920 h1        1 K2A      0.064700
     67 H25A       -3.8250   -2.2270    2.9980 h1        1 K2A      0.064700
     68 H27        -5.9690   -3.8690    0.1210 h2        1 K2A      0.101700
     69 H29        -7.6190   -0.5990    0.9090 h1        1 K2A      0.052200
     70 H29A       -6.4060   -0.5910    2.2840 h1        1 K2A      0.052200
     71 H30        -5.9130   -0.3020   -0.7020 hc        1 K2A      0.066700
     72 H30A       -4.8460    0.1700    0.6780 hc        1 K2A      0.066700
     73 H31        -4.5680   -2.1660   -0.9950 hc        1 K2A      0.085700
     74 H32        -0.8080    3.5890    1.7020 hc        1 K2A      0.057200
     75 H32A        0.1820    3.8880    0.2140 hc        1 K2A      0.057200
     76 H34        -4.9270    5.5080    0.6200 ha        1 K2A      0.134500
     77 H35        -4.9680    5.6910   -1.8690 ha        1 K2A      0.134000
     78 H36        -3.0590    4.8050   -3.2130 ha        1 K2A      0.134500
     79 H37        -1.1160    3.7420   -2.0740 ha        1 K2A      0.132000
     80 H33        -2.9900    4.4440    1.7630 ha        1 K2A      0.132000
@<TRIPOS>BOND
     1    1    2 1   
     2    1    3 1   
     3    1   41 1   
     4    1   42 1   
     5    2   43 1   
     6    3    4 ar  
     7    3    8 ar  
     8    4    5 ar  
     9    4   44 1   
    10    5    6 ar  
    11    5   45 1   
    12    6    7 ar  
    13    6    9 1   
    14    7    8 ar  
    15    7   46 1   
    16    8   47 1   
    17    9   10 2   
    18    9   11 2   
    19    9   12 1   
    20   12   13 1   
    21   12   17 1   
    22   13   14 1   
    23   13   48 1   
    24   13   49 1   
    25   14   15 1   
    26   14   16 1   
    27   14   50 1   
    28   15   51 1   
    29   15   52 1   
    30   15   53 1   
    31   16   19 1   
    32   16   54 1   
    33   16   55 1   
    34   17   18 1   
    35   17   56 1   
    36   17   57 1   
    37   18   20 1   
    38   18   21 1   
    39   18   58 1   
    40   19   59 1   
    41   19   60 1   
    42   19   61 1   
    43   20   62 1   
    44   21   22 1   
    45   21   34 1   
    46   21   63 1   
    47   22   23 1   
    48   22   64 1   
    49   23   24 2   
    50   23   25 1   
    51   25   26 1   
    52   26   27 1   
    53   26   33 1   
    54   26   65 1   
    55   27   28 1   
    56   27   66 1   
    57   27   67 1   
    58   28   29 1   
    59   29   30 1   
    60   29   33 1   
    61   29   68 1   
    62   30   31 1   
    63   31   32 1   
    64   31   69 1   
    65   31   70 1   
    66   32   33 1   
    67   32   71 1   
    68   32   72 1   
    69   33   73 1   
    70   34   40 1   
    71   34   74 1   
    72   34   75 1   
    73   35   36 ar  
    74   35   40 ar  
    75   35   80 1   
    76   36   37 ar  
    77   36   76 1   
    78   37   38 ar  
    79   37   77 1   
    80   38   39 ar  
    81   38   78 1   
    82   39   40 ar  
    83   39   79 1   
@<TRIPOS>SUBSTRUCTURE
     1 K2A         1 TEMP              0 ****  ****    0 ROOT
