@<TRIPOS>MOLECULE
K2A
   82    84     1     0     0
SMALL
bcc


@<TRIPOS>ATOM
      1 C1          0.3730   -1.2140   -0.0790 c3        1 K2A      0.138700
      2 O1          0.3250   -0.6010   -1.3450 oh        1 K2A     -0.572800
      3 C2         -0.3140   -0.3980    0.9700 ca        1 K2A      0.059700
      4 C3         -1.0170    0.7720    0.6410 ca        1 K2A     -0.155500
      5 C4         -1.6670    1.5010    1.6190 ca        1 K2A      0.034500
      6 C5         -1.6500    1.0950    2.9830 ca        1 K2A     -0.642500
      7 C6         -0.9330   -0.1010    3.2890 ca        1 K2A      0.034500
      8 C7         -0.2830   -0.8250    2.3140 ca        1 K2A     -0.155500
      9 S8         -2.3260    1.9200    4.0960 s4        1 K2A      1.695300
     10 O9         -2.1020    1.5900    5.3920 o         1 K2A     -0.453400
     11 O10        -2.9250    3.1070    3.7900 o         1 K2A     -0.453400
     12 N11        -4.5080    0.8280    3.9500 n3        1 K2A     -0.903200
     13 C12        -4.5090   -0.5320    4.5060 c3        1 K2A      0.121800
     14 C13        -4.2620   -0.6490    6.0200 c3        1 K2A     -0.082700
     15 C14        -5.5710   -0.7020    6.7780 c3        1 K2A     -0.099100
     16 C15        -3.4390   -1.9090    6.2790 c3        1 K2A     -0.070400
     17 C16        -5.5540    1.6860    4.5070 c3        1 K2A      0.104800
     18 C17        -5.9800    2.8090    3.5450 c3        1 K2A      0.095100
     19 C18        -2.9530   -1.9980    7.7030 c3        1 K2A     -0.101100
     20 O18        -6.6930    2.3170    2.4320 oh        1 K2A     -0.594800
     21 C19        -6.8010    3.8850    4.3000 c3        1 K2A      0.104500
     22 N20        -7.2030    4.9820    3.3400 n4        1 K2A     -0.636800
     23 C21        -6.0330    5.8180    2.9380 c         1 K2A      0.615100
     24 O22        -5.5590    6.6870    3.6540 o         1 K2A     -0.408000
     25 O23        -5.6160    5.4750    1.7030 os        1 K2A     -0.401900
     26 C24        -4.4210    6.1550    1.1940 c3        1 K2A      0.138100
     27 C25        -3.1790    5.6820    1.9620 c3        1 K2A      0.098400
     28 O26        -2.5090    4.6950    1.1750 os        1 K2A     -0.435600
     29 C27        -3.0270    4.6800   -0.1520 c3        1 K2A      0.319900
     30 O28        -3.5190    3.3560   -0.2990 os        1 K2A     -0.445600
     31 C29        -4.9260    3.3740   -0.5990 c3        1 K2A      0.124400
     32 C30        -5.3410    4.8240   -0.8500 c3        1 K2A     -0.099400
     33 C31        -4.2210    5.6650   -0.2490 c3        1 K2A     -0.112700
     34 C32        -8.0450    3.3010    4.9860 c3        1 K2A     -0.050100
     35 C33       -10.0350    4.8120    4.8330 ca        1 K2A     -0.132500
     36 C34       -10.8790    5.7760    5.3810 ca        1 K2A     -0.107500
     37 C35       -10.6160    6.2970    6.6510 ca        1 K2A     -0.086000
     38 C36        -9.5090    5.8490    7.3720 ca        1 K2A     -0.107500
     39 C37        -8.6630    4.8830    6.8270 ca        1 K2A     -0.132500
     40 C38        -8.9190    4.3620    5.5530 ca        1 K2A     -0.178300
     41 H1          1.4270   -1.4410    0.2420 h1        1 K2A      0.098700
     42 H1A        -0.1900   -2.1880   -0.2000 h1        1 K2A      0.098700
     43 HO1         1.1170   -0.0580   -1.4460 ho        1 K2A      0.422000
     44 H3         -1.0530    1.1000   -0.4160 ha        1 K2A      0.191000
     45 H4         -2.2100    2.4310    1.3320 ha        1 K2A      0.187500
     46 H6         -0.8990   -0.4460    4.3420 ha        1 K2A      0.187500
     47 H7          0.2700   -1.7430    2.5800 ha        1 K2A      0.191000
     48 H12        -5.4800   -1.0550    4.2640 h1        1 K2A      0.068200
     49 H12A       -3.6900   -1.0810    3.9520 h1        1 K2A      0.068200
     50 H13        -3.6670    0.2340    6.3910 hc        1 K2A      0.069700
     51 H14        -6.1950   -1.5650    6.4410 hc        1 K2A      0.046700
     52 H14A       -5.3730   -0.8220    7.8720 hc        1 K2A      0.046700
     53 H14B       -6.1550    0.2390    6.6370 hc        1 K2A      0.046700
     54 H15        -4.0560   -2.8130    6.0310 hc        1 K2A      0.040700
     55 H15A       -2.5490   -1.9120    5.5940 hc        1 K2A      0.040700
     56 H16        -5.1540    2.1360    5.4600 h1        1 K2A      0.085700
     57 H16A       -6.4730    1.0800    4.7690 h1        1 K2A      0.085700
     58 H17        -5.0710    3.3110    3.0830 h1        1 K2A      0.122700
     59 H18        -3.8030   -2.1560    8.4100 hc        1 K2A      0.051033
     60 H18A       -2.4140   -1.0660    8.0000 hc        1 K2A      0.051033
     61 H18B       -2.2520   -2.8620    7.8090 hc        1 K2A      0.051033
     62 HO18       -7.3520    1.6750    2.7360 ho        1 K2A      0.429000
     63 H19        -6.1410    4.3680    5.0840 hx        1 K2A      0.128700
     64 HN20       -7.6180    4.5460    2.5020 hn        1 K2A      0.490800
     65 H24        -4.5970    7.2580    1.2760 h1        1 K2A      0.115700
     66 H25        -2.4670    6.5340    2.1220 h1        1 K2A      0.086700
     67 H25A       -3.4340    5.1980    2.9410 h1        1 K2A      0.086700
     68 H27        -2.1810    4.8370   -0.8680 h2        1 K2A      0.123700
     69 H29        -5.4600    2.9390    0.2860 h1        1 K2A      0.063200
     70 H29A       -5.0640    2.7220   -1.4980 h1        1 K2A      0.063200
     71 H30        -6.3370    5.0480   -0.4000 hc        1 K2A      0.079700
     72 H30A       -5.4140    5.0250   -1.9500 hc        1 K2A      0.079700
     73 H31        -3.9800    6.5470   -0.8940 hc        1 K2A      0.119700
     74 H32        -8.6220    2.6700    4.2580 hc        1 K2A      0.084700
     75 H32A       -7.6810    2.6280    5.8100 hc        1 K2A      0.084700
     76 H35       -11.2910    7.0520    7.0870 ha        1 K2A      0.168000
     77 H36        -9.3080    6.2490    8.3790 ha        1 K2A      0.163500
     78 H37        -7.8030    4.5190    7.4110 ha        1 K2A      0.134000
     79 H33       -10.2770    4.3720    3.8540 ha        1 K2A      0.134000
     80 H111       -4.6630    0.7480    2.9520 hn        1 K2A      0.393800
     81 H202       -7.9070    5.5860    3.8060 hn        1 K2A      0.490800
     82 H34       -11.7650    6.1150    4.8200 ha        1 K2A      0.163500
@<TRIPOS>BOND
     1    1    2 1   
     2    1    3 1   
     3    1   41 1   
     4    1   42 1   
     5    2   43 1   
     6    3    4 ar  
     7    3    8 ar  
     8    4    5 ar  
     9    4   44 1   
    10    5    6 ar  
    11    5   45 1   
    12    6    7 ar  
    13    6    9 1   
    14    7    8 ar  
    15    7   46 1   
    16    8   47 1   
    17    9   10 1   
    18    9   11 1   
    19   12   13 1   
    20   12   17 1   
    21   12   80 1   
    22   13   14 1   
    23   13   48 1   
    24   13   49 1   
    25   14   15 1   
    26   14   16 1   
    27   14   50 1   
    28   15   51 1   
    29   15   52 1   
    30   15   53 1   
    31   16   19 1   
    32   16   54 1   
    33   16   55 1   
    34   17   18 1   
    35   17   56 1   
    36   17   57 1   
    37   18   20 1   
    38   18   21 1   
    39   18   58 1   
    40   19   59 1   
    41   19   60 1   
    42   19   61 1   
    43   20   62 1   
    44   21   22 1   
    45   21   34 1   
    46   21   63 1   
    47   22   23 1   
    48   22   64 1   
    49   22   81 1   
    50   23   24 2   
    51   23   25 1   
    52   25   26 1   
    53   26   27 1   
    54   26   33 1   
    55   26   65 1   
    56   27   28 1   
    57   27   66 1   
    58   27   67 1   
    59   28   29 1   
    60   29   30 1   
    61   29   33 1   
    62   29   68 1   
    63   30   31 1   
    64   31   32 1   
    65   31   69 1   
    66   31   70 1   
    67   32   33 1   
    68   32   71 1   
    69   32   72 1   
    70   33   73 1   
    71   34   40 1   
    72   34   74 1   
    73   34   75 1   
    74   35   36 ar  
    75   35   40 ar  
    76   35   79 1   
    77   36   37 ar  
    78   36   82 1   
    79   37   38 ar  
    80   37   76 1   
    81   38   39 ar  
    82   38   77 1   
    83   39   40 ar  
    84   39   78 1   
@<TRIPOS>SUBSTRUCTURE
     1 K2A         1 TEMP              0 ****  ****    0 ROOT
