@<TRIPOS>MOLECULE
K2A
   80    77     1     0     0
SMALL
bcc


@<TRIPOS>ATOM
      1 C1          4.6360   -5.3430   -2.4390 c3        1 K2A      0.008000
      2 O1          5.6080   -6.2230   -1.9050 oh        1 K2A     -0.325000
      3 C2          4.0160   -4.5030   -1.2960 c2        1 K2A     -0.017000
      4 C3          4.3480   -3.1420   -1.1660 c2        1 K2A     -0.154000
      5 C4          3.7200   -2.3630   -0.1990 c1        1 K2A     -0.011000
      6 C5          2.7630   -2.9300    0.6420 c1        1 K2A     -0.838000
      7 C6          2.4330   -4.2880    0.5120 c1        1 K2A     -0.022000
      8 C7          3.0610   -5.0690   -0.4570 c1        1 K2A     -0.133000
      9 S8          2.0550   -1.9500    2.0040 s4        1 K2A      2.059800
     10 O9          2.3160   -2.5660    3.2820 o         1 K2A     -0.540900
     11 O10         2.7430   -0.6870    2.1560 o         1 K2A     -0.540900
     12 N11         0.4200   -1.7270    1.7640 n2        1 K2A     -0.819000
     13 C12        -0.4400   -2.8770    1.5700 c3        1 K2A     -0.018000
     14 C13        -0.3020   -3.8350    2.7830 c3        1 K2A     -0.133000
     15 C14        -1.4670   -3.6760    3.6680 c3        1 K2A     -0.203000
     16 C15        -0.2260   -5.2970    2.2830 c3        1 K2A     -0.153000
     17 C16        -0.1830   -0.3560    1.9240 c3        1 K2A     -0.043000
     18 C17        -0.5820    0.1960    0.5370 c3        1 K2A     -0.035000
     19 C18         0.4650   -6.1970    3.3830 c3        1 K2A     -0.211000
     20 O18        -1.5980   -0.5790    0.0070 oh        1 K2A     -0.320000
     21 C19        -1.0610    1.6300    0.6750 c3        1 K2A     -0.007000
     22 N20        -1.4310    2.1300   -0.6050 n         1 K2A     -0.310000
     23 C21        -0.7220    3.2610   -1.1770 c2        1 K2A      0.389000
     24 O22         0.2260    3.7270   -0.6030 o         1 K2A     -0.408000
     25 O23        -1.2250    3.8940   -2.3650 os        1 K2A     -0.269000
     26 C24        -0.2190    4.6530   -3.1040 c3        1 K2A      0.019000
     27 C25         0.7890    3.8890   -3.4010 c3        1 K2A     -0.029000
     28 O26         1.2700    4.3840   -4.7480 os        1 K2A     -0.275000
     29 C27         0.1380    5.3420   -5.2680 c3        1 K2A      0.139000
     30 O28        -0.3390    4.9350   -6.6770 os        1 K2A     -0.276000
     31 C29        -1.6440    4.2130   -6.4610 c3        1 K2A     -0.026000
     32 C30        -1.7000    4.0030   -5.1980 c3        1 K2A     -0.183000
     33 C31        -0.8270    5.1530   -4.5220 c3        1 K2A     -0.171000
     34 C32        -2.2700    1.6800    1.6110 c3        1 K2A     -0.128000
     35 C33        -3.6160    3.6340    2.0550 c1        1 K2A     -0.122000
     36 C34        -4.0060    4.7360    2.8110 c1        1 K2A     -0.125000
     37 C35        -3.1440    5.2660    3.7620 c1        1 K2A     -0.125000
     38 C36        -1.8810    4.6910    3.9600 c1        1 K2A     -0.125000
     39 C37        -1.4930    3.5920    3.2060 c1        1 K2A     -0.125000
     40 C38        -2.3580    3.0610    2.2520 c1        1 K2A     -0.077000
     41 H1          3.9310   -5.8630   -2.8820 h1        1 K2A      0.079500
     42 H1A         5.0620   -4.7420   -3.0940 h1        1 K2A      0.079500
     43 HO1         5.8810   -6.8020   -2.5510 ho        1 K2A      0.206000
     44 H3          5.0100   -2.7490   -1.7480 ha        1 K2A      0.147000
     45 H4          3.9500   -1.4180   -0.1090 ha        1 K2A      0.159000
     46 H6          1.7700   -4.6810    1.0930 ha        1 K2A      0.159000
     47 H7          2.8310   -6.0090   -0.5460 ha        1 K2A      0.162000
     48 H12        -0.1780   -3.3460    0.7540 h1        1 K2A      0.095000
     49 H12A       -1.3690   -2.5800    1.4910 h1        1 K2A      0.095000
     50 H13         0.5170   -3.6170    3.2800 hc        1 K2A      0.121000
     51 H14        -2.2840   -3.8920    3.1750 hc        1 K2A      0.072000
     52 H14A       -1.5120   -2.7540    3.9840 hc        1 K2A      0.072000
     53 H14B       -1.3770   -4.2860    4.4430 hc        1 K2A      0.072000
     54 H15         0.2940   -5.3310    1.4640 hc        1 K2A      0.077500
     55 H15A       -1.1280   -5.6290    2.1090 hc        1 K2A      0.077500
     56 H16         0.4710    0.2420    2.3370 h1        1 K2A      0.108500
     57 H16A       -0.9740   -0.4140    2.4890 h1        1 K2A      0.108500
     58 H17         0.1900    0.1690   -0.0580 h1        1 K2A      0.138000
     59 H18         0.9940   -6.9030    2.9450 hc        1 K2A      0.075000
     60 H18A        1.0570   -5.6400    3.9370 hc        1 K2A      0.075000
     61 H18B       -0.2290   -6.6120    3.9540 hc        1 K2A      0.075000
     62 HO18       -2.2650   -0.6290    0.5880 ho        1 K2A      0.199000
     63 H19        -0.3420    2.1790    1.0440 h1        1 K2A      0.137000
     64 HN20       -2.0820    1.7120   -1.0870 hn        1 K2A      0.237000
     65 H24         0.0820    5.4200   -2.5750 h1        1 K2A      0.128000
     66 H25         0.5040    2.9650   -3.4650 h1        1 K2A      0.104000
     67 H25A        1.5010    3.9830   -2.7280 h1        1 K2A      0.104000
     68 H27         0.4250    6.2820   -5.2460 h2        1 K2A      0.141000
     69 H29        -2.3930    4.7700   -6.7470 h1        1 K2A      0.091500
     70 H29A       -1.6460    3.3660   -6.9450 h1        1 K2A      0.091500
     71 H30        -1.3210    3.1200   -4.9820 hc        1 K2A      0.106000
     72 H30A       -2.6180    4.0590   -4.8910 hc        1 K2A      0.106000
     73 H31        -1.3470    5.9700   -4.4110 hc        1 K2A      0.125000
     74 H32        -2.1720    1.0050    2.3060 hc        1 K2A      0.096500
     75 H32A       -3.0880    1.5040    1.0970 hc        1 K2A      0.096500
     76 H33        -4.2160    3.2650    1.3950 ha        1 K2A      0.128000
     77 H34        -4.8880    5.1380    2.6720 ha        1 K2A      0.134750
     78 H35        -3.4150    6.0340    4.2880 ha        1 K2A      0.134750
     79 H36        -1.2810    5.0590    4.6220 ha        1 K2A      0.134750
     80 H37        -0.6200    3.1950    3.3420 ha        1 K2A      0.134750
@<TRIPOS>BOND
     1    1    2 1   
     2    1    3 1   
     3    1   41 1   
     4    1   42 1   
     5    2   43 1   
     6    3    4 1   
     7    3    8 1   
     8    4    5 1   
     9    4   44 1   
    10    5   45 1   
    11    6    7 1   
    12    6    9 1   
    13    7   46 1   
    14    8   47 1   
    15    9   10 1   
    16    9   11 1   
    17   12   13 1   
    18   12   17 1   
    19   13   14 1   
    20   13   48 1   
    21   13   49 1   
    22   14   15 1   
    23   14   16 1   
    24   14   50 1   
    25   15   51 1   
    26   15   52 1   
    27   15   53 1   
    28   16   19 1   
    29   16   54 1   
    30   16   55 1   
    31   17   18 1   
    32   17   56 1   
    33   17   57 1   
    34   18   20 1   
    35   18   21 1   
    36   18   58 1   
    37   19   59 1   
    38   19   60 1   
    39   19   61 1   
    40   20   62 1   
    41   21   22 1   
    42   21   34 1   
    43   21   63 1   
    44   22   23 1   
    45   22   64 1   
    46   23   24 1   
    47   23   25 1   
    48   25   26 1   
    49   26   27 1   
    50   26   33 1   
    51   26   65 1   
    52   27   28 1   
    53   27   66 1   
    54   27   67 1   
    55   28   29 1   
    56   29   30 1   
    57   29   33 1   
    58   29   68 1   
    59   30   31 1   
    60   31   32 1   
    61   31   69 1   
    62   31   70 1   
    63   32   33 1   
    64   32   71 1   
    65   32   72 1   
    66   33   73 1   
    67   34   40 1   
    68   34   74 1   
    69   34   75 1   
    70   35   40 1   
    71   35   76 1   
    72   36   37 1   
    73   36   77 1   
    74   37   78 1   
    75   38   39 1   
    76   38   79 1   
    77   39   80 1   
@<TRIPOS>SUBSTRUCTURE
     1 K2A         1 TEMP              0 ****  ****    0 ROOT
