@<TRIPOS>MOLECULE
K2A
   82    84     1     0     0
SMALL
bcc


@<TRIPOS>ATOM
      1 C1          1.4860   -1.4280    1.5080 c3        1 K2A      0.139700
      2 O1          2.2640   -0.5110    0.7750 oh        1 K2A     -0.575800
      3 C2          0.5320   -0.7430    2.4340 ca        1 K2A      0.056700
      4 C3          0.4020    0.6570    2.4420 ca        1 K2A     -0.154500
      5 C4         -0.5040    1.2710    3.2820 ca        1 K2A      0.036500
      6 C5         -1.3320    0.5190    4.1630 ca        1 K2A     -0.623500
      7 C6         -1.1820   -0.8950    4.1340 ca        1 K2A      0.036500
      8 C7         -0.2740   -1.5100    3.2950 ca        1 K2A     -0.154500
      9 S8         -2.3060    1.2160    5.1490 s4        1 K2A      1.679300
     10 O9         -2.9940    0.4560    6.0380 o         1 K2A     -0.441900
     11 O10        -2.1960    2.5650    5.3090 o         1 K2A     -0.441900
     12 N11        -4.2190    1.6030    3.7150 n3        1 K2A     -0.897200
     13 C12        -4.8180    0.4540    3.0240 c3        1 K2A      0.117800
     14 C13        -4.9050   -0.8550    3.8200 c3        1 K2A     -0.067700
     15 C14        -5.8660   -0.7660    4.9840 c3        1 K2A     -0.104100
     16 C15        -5.3230   -1.9630    2.8560 c3        1 K2A     -0.080400
     17 C16        -5.1580    2.4000    4.5000 c3        1 K2A      0.098800
     18 C17        -6.1590    3.2250    3.6720 c3        1 K2A      0.088100
     19 C18        -4.9590   -3.3320    3.3710 c3        1 K2A     -0.097100
     20 O18        -7.2840    2.4940    3.2400 oh        1 K2A     -0.594800
     21 C19        -6.6210    4.4790    4.4610 c3        1 K2A      0.104500
     22 N20        -7.4270    5.3860    3.5520 n4        1 K2A     -0.640800
     23 C21        -6.5270    6.1530    2.6410 c         1 K2A      0.614100
     24 O22        -6.1710    7.2980    2.8680 o         1 K2A     -0.390000
     25 O23        -6.2060    5.4210    1.5490 os        1 K2A     -0.408900
     26 C24        -4.9330    5.7370    0.9030 c3        1 K2A      0.134100
     27 C25        -3.7780    5.5040    1.8910 c3        1 K2A      0.093400
     28 O26        -3.3990    4.1260    1.7810 os        1 K2A     -0.451600
     29 C27        -3.7690    3.6400    0.4890 c3        1 K2A      0.316900
     30 O28        -4.5100    2.4700    0.7950 os        1 K2A     -0.458600
     31 C29        -5.7920    2.5070    0.1330 c3        1 K2A      0.118400
     32 C30        -5.9340    3.8440   -0.5920 c3        1 K2A     -0.101400
     33 C31        -4.7200    4.6670   -0.1820 c3        1 K2A     -0.109700
     34 C32        -7.4460    4.1060    5.7010 c3        1 K2A     -0.050100
     35 C33        -9.2940    5.7190    6.1930 ca        1 K2A     -0.133000
     36 C34        -9.7980    6.8260    6.8740 ca        1 K2A     -0.107500
     37 C35        -8.9850    7.5300    7.7640 ca        1 K2A     -0.087000
     38 C36        -7.6670    7.1230    7.9750 ca        1 K2A     -0.107500
     39 C37        -7.1600    6.0150    7.2960 ca        1 K2A     -0.133000
     40 C38        -7.9690    5.3100    6.3990 ca        1 K2A     -0.175300
     41 H1          2.1210   -2.1570    2.0830 h1        1 K2A      0.098200
     42 H1A         0.8890   -1.9960    0.7330 h1        1 K2A      0.098200
     43 HO1         3.0870   -0.3600    1.2590 ho        1 K2A      0.424000
     44 H3          1.0350    1.2560    1.7600 ha        1 K2A      0.189000
     45 H4         -0.5890    2.3750    3.2840 ha        1 K2A      0.171500
     46 H6         -1.8030   -1.5130    4.8130 ha        1 K2A      0.171500
     47 H7         -0.1750   -2.6110    3.3000 ha        1 K2A      0.189000
     48 H12        -5.8530    0.7200    2.6550 h1        1 K2A      0.077200
     49 H12A       -4.1880    0.2700    2.1030 h1        1 K2A      0.077200
     50 H13        -3.8810   -1.1050    4.2230 hc        1 K2A      0.031700
     51 H14        -6.8080   -0.2440    4.6850 hc        1 K2A      0.047700
     52 H14A       -6.1380   -1.7920    5.3390 hc        1 K2A      0.047700
     53 H14B       -5.3970   -0.2270    5.8450 hc        1 K2A      0.047700
     54 H15        -4.8270   -1.8070    1.8600 hc        1 K2A      0.051200
     55 H15A       -6.4310   -1.9050    2.6870 hc        1 K2A      0.051200
     56 H16        -5.7280    1.7190    5.1960 h1        1 K2A      0.092200
     57 H16A       -4.5420    3.1130    5.1240 h1        1 K2A      0.092200
     58 H17        -5.6600    3.5540    2.7010 h1        1 K2A      0.121700
     59 H18        -5.4690   -3.5500    4.3400 hc        1 K2A      0.046033
     60 H18A       -3.8560   -3.4180    3.5280 hc        1 K2A      0.046033
     61 H18B       -5.2690   -4.1100    2.6310 hc        1 K2A      0.046033
     62 HO18       -7.5690    1.8990    3.9500 ho        1 K2A      0.432000
     63 H19        -5.7150    5.0730    4.7870 hx        1 K2A      0.115700
     64 HN20       -7.9670    6.0520    4.1360 hn        1 K2A      0.492800
     65 H24        -4.9930    6.7850    0.5140 h1        1 K2A      0.127700
     66 H25        -2.8950    6.1420    1.6210 h1        1 K2A      0.083200
     67 H25A       -4.0640    5.6720    2.9580 h1        1 K2A      0.083200
     68 H27        -2.8440    3.3660   -0.0780 h2        1 K2A      0.117700
     69 H29        -6.5640    2.3710    0.9360 h1        1 K2A      0.072200
     70 H29A       -5.8120    1.6380   -0.5730 h1        1 K2A      0.072200
     71 H30        -5.9310    3.6870   -1.7020 hc        1 K2A      0.086200
     72 H30A       -6.8960    4.3480   -0.3300 hc        1 K2A      0.086200
     73 H31        -4.2420    5.1580   -1.0680 hc        1 K2A      0.121700
     74 H32        -6.7630    3.5290    6.3840 hc        1 K2A      0.087200
     75 H32A       -8.2900    3.4250    5.4090 hc        1 K2A      0.087200
     76 H35        -9.3880    8.4010    8.3080 ha        1 K2A      0.167000
     77 H36        -7.0280    7.6700    8.6870 ha        1 K2A      0.162500
     78 H37        -6.1260    5.6870    7.4840 ha        1 K2A      0.134000
     79 H33        -9.9570    5.1410    5.5310 ha        1 K2A      0.134000
     80 H111       -3.8280    2.2090    2.9950 hn        1 K2A      0.416800
     81 H202       -8.0720    4.8030    2.9980 hn        1 K2A      0.492800
     82 H34       -10.8450    7.1360    6.7210 ha        1 K2A      0.162500
@<TRIPOS>BOND
     1    1    2 1   
     2    1    3 1   
     3    1   41 1   
     4    1   42 1   
     5    2   43 1   
     6    3    4 ar  
     7    3    8 ar  
     8    4    5 ar  
     9    4   44 1   
    10    5    6 ar  
    11    5   45 1   
    12    6    7 ar  
    13    6    9 1   
    14    7    8 ar  
    15    7   46 1   
    16    8   47 1   
    17    9   10 1   
    18    9   11 1   
    19   12   13 1   
    20   12   17 1   
    21   12   80 1   
    22   13   14 1   
    23   13   48 1   
    24   13   49 1   
    25   14   15 1   
    26   14   16 1   
    27   14   50 1   
    28   15   51 1   
    29   15   52 1   
    30   15   53 1   
    31   16   19 1   
    32   16   54 1   
    33   16   55 1   
    34   17   18 1   
    35   17   56 1   
    36   17   57 1   
    37   18   20 1   
    38   18   21 1   
    39   18   58 1   
    40   19   59 1   
    41   19   60 1   
    42   19   61 1   
    43   20   62 1   
    44   21   22 1   
    45   21   34 1   
    46   21   63 1   
    47   22   23 1   
    48   22   64 1   
    49   22   81 1   
    50   23   24 2   
    51   23   25 1   
    52   25   26 1   
    53   26   27 1   
    54   26   33 1   
    55   26   65 1   
    56   27   28 1   
    57   27   66 1   
    58   27   67 1   
    59   28   29 1   
    60   29   30 1   
    61   29   33 1   
    62   29   68 1   
    63   30   31 1   
    64   31   32 1   
    65   31   69 1   
    66   31   70 1   
    67   32   33 1   
    68   32   71 1   
    69   32   72 1   
    70   33   73 1   
    71   34   40 1   
    72   34   74 1   
    73   34   75 1   
    74   35   36 ar  
    75   35   40 ar  
    76   35   79 1   
    77   36   37 ar  
    78   36   82 1   
    79   37   38 ar  
    80   37   76 1   
    81   38   39 ar  
    82   38   77 1   
    83   39   40 ar  
    84   39   78 1   
@<TRIPOS>SUBSTRUCTURE
     1 K2A         1 TEMP              0 ****  ****    0 ROOT
