@<TRIPOS>MOLECULE
K2A
   82    84     1     0     0
SMALL
bcc


@<TRIPOS>ATOM
      1 C1          0.4040   -1.2030   -0.0450 c3        1 K2A      0.138700
      2 O1          0.3990   -0.5560   -1.2960 oh        1 K2A     -0.572800
      3 C2         -0.2970   -0.4040    1.0070 ca        1 K2A      0.059700
      4 C3         -0.9730    0.7860    0.6930 ca        1 K2A     -0.155500
      5 C4         -1.6370    1.4980    1.6730 ca        1 K2A      0.034500
      6 C5         -1.6610    1.0550    3.0260 ca        1 K2A     -0.642500
      7 C6         -0.9710   -0.1600    3.3170 ca        1 K2A      0.034500
      8 C7         -0.3070   -0.8680    2.3390 ca        1 K2A     -0.155500
      9 S8         -2.3530    1.8610    4.1430 s4        1 K2A      1.695300
     10 O9         -2.1670    1.4930    5.4350 o         1 K2A     -0.453400
     11 O10        -2.9240    3.0660    3.8550 o         1 K2A     -0.453400
     12 N11        -4.5470    0.8100    3.9120 n7        1 K2A     -0.903200
     13 C12        -4.5840   -0.5640    4.4290 c3        1 K2A      0.121800
     14 C13        -4.3780   -0.7270    5.9450 c3        1 K2A     -0.082700
     15 C14        -5.7070   -0.7790    6.6680 c3        1 K2A     -0.099100
     16 C15        -3.5830   -2.0080    6.1890 c3        1 K2A     -0.070400
     17 C16        -5.5930    1.6700    4.4670 c3        1 K2A      0.104800
     18 C17        -5.9760    2.8260    3.5260 c3        1 K2A      0.095100
     19 C18        -3.1340   -2.1440    7.6210 c3        1 K2A     -0.101100
     20 O18        -6.6700    2.3770    2.3820 oh        1 K2A     -0.594800
     21 C19        -6.7980    3.8950    4.2900 c3        1 K2A      0.104500
     22 N20        -7.1580    5.0250    3.3500 ny        1 K2A     -0.636800
     23 C21        -5.9650    5.8510    3.0000 c         1 K2A      0.615100
     24 O22        -5.4950    6.6920    3.7510 o         1 K2A     -0.408000
     25 O23        -5.5230    5.5350    1.7670 os        1 K2A     -0.401900
     26 C24        -4.3050    6.2070    1.3060 c3        1 K2A      0.138100
     27 C25        -3.0900    5.6930    2.0910 c3        1 K2A      0.098400
     28 O26        -2.4170    4.7160    1.2940 os        1 K2A     -0.435600
     29 C27        -2.9020    4.7450   -0.0440 c3        1 K2A      0.319900
     30 O28        -3.4110    3.4340   -0.2390 os        1 K2A     -0.445600
     31 C29        -4.8100    3.4830   -0.5730 c3        1 K2A      0.124400
     32 C30        -5.1950    4.9460   -0.7950 c3        1 K2A     -0.099400
     33 C31        -4.0770    5.7520   -0.1440 c3        1 K2A     -0.112700
     34 C32        -8.0680    3.3150    4.9290 c3        1 K2A     -0.050100
     35 C33       -10.0280    4.8640    4.7710 ca        1 K2A     -0.132000
     36 C34       -10.8690    5.8270    5.3250 ca        1 K2A     -0.107500
     37 C35       -10.6280    6.3080    6.6150 ca        1 K2A     -0.086000
     38 C36        -9.5460    5.8210    7.3490 ca        1 K2A     -0.107500
     39 C37        -8.7030    4.8560    6.7980 ca        1 K2A     -0.132000
     40 C38        -8.9370    4.3750    5.5050 ca        1 K2A     -0.178300
     41 H1         -0.1700   -2.1640   -0.2080 h1        1 K2A      0.098700
     42 H1A         1.4460   -1.4560    0.2960 h1        1 K2A      0.098700
     43 HO1         1.2020   -0.0230   -1.3610 ho        1 K2A      0.422000
     44 H3         -0.9760    1.1420   -0.3560 ha        1 K2A      0.191000
     45 H4         -2.1570    2.4450    1.3970 ha        1 K2A      0.187500
     46 H6         -0.9700   -0.5330    4.3600 ha        1 K2A      0.187500
     47 H7          0.2240   -1.8020    2.5950 ha        1 K2A      0.191000
     48 H12        -3.7610   -1.1110    3.8800 h1        1 K2A      0.068200
     49 H12A       -5.5580   -1.0630    4.1480 h1        1 K2A      0.068200
     50 H13        -3.7790    0.1350    6.3550 hc        1 K2A      0.069700
     51 H14        -6.2710    0.1760    6.5390 hc        1 K2A      0.046700
     52 H14A       -5.5390   -0.9330    7.7630 hc        1 K2A      0.046700
     53 H14B       -6.3360   -1.6220    6.2920 hc        1 K2A      0.046700
     54 H15        -4.2080   -2.8940    5.9010 hc        1 K2A      0.041200
     55 H15A       -2.6750   -2.0070    5.5260 hc        1 K2A      0.041200
     56 H16        -5.2100    2.0880    5.4410 h1        1 K2A      0.085700
     57 H16A       -6.5280    1.0730    4.6880 h1        1 K2A      0.085700
     58 H17        -5.0480    3.3240    3.0990 h1        1 K2A      0.122700
     59 H18        -2.5870   -1.2300    7.9570 hc        1 K2A      0.051033
     60 H18A       -4.0030   -2.3070    8.3030 hc        1 K2A      0.051033
     61 H18B       -2.4490   -3.0220    7.7210 hc        1 K2A      0.051033
     62 HO18       -7.3460    1.7390    2.6530 ho        1 K2A      0.429000
     63 H19        -6.1490    4.3460    5.1020 hx        1 K2A      0.128700
     64 HN20       -7.5590    4.6190    2.4910 hn        1 K2A      0.490800
     65 H24        -4.4650    7.3100    1.4130 h1        1 K2A      0.115700
     66 H25        -3.3770    5.1880    3.0500 h1        1 K2A      0.086700
     67 H25A       -2.3680    6.5290    2.2920 h1        1 K2A      0.086700
     68 H27        -2.0350    4.9070   -0.7350 h2        1 K2A      0.123700
     69 H29        -4.9360    2.8580   -1.4920 h1        1 K2A      0.063200
     70 H29A       -5.3730    3.0340    0.2870 h1        1 K2A      0.063200
     71 H30        -6.1980    5.1750   -0.3630 hc        1 K2A      0.079700
     72 H30A       -5.2370    5.1770   -1.8910 hc        1 K2A      0.079700
     73 H31        -3.8060    6.6470   -0.7600 hc        1 K2A      0.119700
     74 H32        -8.6370    2.7140    4.1700 hc        1 K2A      0.084700
     75 H32A       -7.7360    2.6130    5.7430 hc        1 K2A      0.084700
     76 H35       -11.3000    7.0630    7.0560 ha        1 K2A      0.168000
     77 H36        -9.3630    6.1900    8.3720 ha        1 K2A      0.163500
     78 H37        -7.8640    4.4620    7.3920 ha        1 K2A      0.134000
     79 H33       -10.2540    4.4550    3.7750 ha        1 K2A      0.134000
     80 H111       -4.6780    0.7600    2.9080 hn        1 K2A      0.393800
     81 H202       -7.8620    5.6280    3.8160 hn        1 K2A      0.490800
     82 H34       -11.7340    6.1970    4.7530 ha        1 K2A      0.163500
@<TRIPOS>BOND
     1    1    2 1   
     2    1    3 1   
     3    1   41 1   
     4    1   42 1   
     5    2   43 1   
     6    3    4 ar  
     7    3    8 ar  
     8    4    5 ar  
     9    4   44 1   
    10    5    6 ar  
    11    5   45 1   
    12    6    7 ar  
    13    6    9 1   
    14    7    8 ar  
    15    7   46 1   
    16    8   47 1   
    17    9   10 1   
    18    9   11 1   
    19   12   13 1   
    20   12   17 1   
    21   12   80 1   
    22   13   14 1   
    23   13   48 1   
    24   13   49 1   
    25   14   15 1   
    26   14   16 1   
    27   14   50 1   
    28   15   51 1   
    29   15   52 1   
    30   15   53 1   
    31   16   19 1   
    32   16   54 1   
    33   16   55 1   
    34   17   18 1   
    35   17   56 1   
    36   17   57 1   
    37   18   20 1   
    38   18   21 1   
    39   18   58 1   
    40   19   59 1   
    41   19   60 1   
    42   19   61 1   
    43   20   62 1   
    44   21   22 1   
    45   21   34 1   
    46   21   63 1   
    47   22   23 1   
    48   22   64 1   
    49   22   81 1   
    50   23   24 2   
    51   23   25 1   
    52   25   26 1   
    53   26   27 1   
    54   26   33 1   
    55   26   65 1   
    56   27   28 1   
    57   27   66 1   
    58   27   67 1   
    59   28   29 1   
    60   29   30 1   
    61   29   33 1   
    62   29   68 1   
    63   30   31 1   
    64   31   32 1   
    65   31   69 1   
    66   31   70 1   
    67   32   33 1   
    68   32   71 1   
    69   32   72 1   
    70   33   73 1   
    71   34   40 1   
    72   34   74 1   
    73   34   75 1   
    74   35   36 ar  
    75   35   40 ar  
    76   35   79 1   
    77   36   37 ar  
    78   36   82 1   
    79   37   38 ar  
    80   37   76 1   
    81   38   39 ar  
    82   38   77 1   
    83   39   40 ar  
    84   39   78 1   
@<TRIPOS>SUBSTRUCTURE
     1 K2A         1 TEMP              0 ****  ****    0 ROOT
