@<TRIPOS>MOLECULE
K2B
   72    75     1     0     0
SMALL
bcc


@<TRIPOS>ATOM
      1 C1          0.0630    0.2410    0.3110 c3        1 K2B     -0.069400
      2 C2          1.5400    0.5090    0.4870 c3        1 K2B     -0.182400
      3 C3          1.9460    0.4150    1.9300 c         1 K2B      0.570300
      4 C4          1.2640   -0.6250    2.7100 ce        1 K2B     -0.266200
      5 C5          0.2170   -1.3320    2.2490 c2        1 K2B     -0.026400
      6 C6         -0.3590   -2.4350    3.0710 c3        1 K2B     -0.054200
      7 C7         -1.8680   -2.3610    3.1520 c3        1 K2B     -0.072400
      8 C8         -2.4750   -2.3030    1.7600 c3        1 K2B     -0.050700
      9 C9         -1.9300   -1.0810    1.0060 c3        1 K2B     -0.047700
     10 C10        -0.3900   -1.1100    0.8850 c3        1 K2B     -0.015800
     11 C11        -2.6090   -0.9080   -0.3480 c3        1 K2B     -0.075400
     12 C12        -4.1280   -0.9150   -0.2790 c3        1 K2B     -0.065400
     13 C13        -4.6370   -2.1620    0.4270 c3        1 K2B     -0.045000
     14 C14        -3.9820   -2.1710    1.8330 c3        1 K2B     -0.064700
     15 C15        -4.7800   -3.2080    2.6070 c3        1 K2B     -0.074400
     16 C16        -6.1980   -3.0910    2.0450 c3        1 K2B     -0.078400
     17 C17        -6.1380   -2.1650    0.8110 c3        1 K2B     -0.053700
     18 C18        -4.3060   -3.4070   -0.3790 c3        1 K2B     -0.083100
     19 C19         0.0890   -2.2280   -0.0370 c3        1 K2B     -0.085100
     20 C20        -7.1290   -2.5860   -0.2690 c3        1 K2B     -0.055700
     21 C21        -7.0400   -1.6900   -1.4900 c3        1 K2B     -0.091100
     22 C22        -8.5540   -2.5530    0.2810 c3        1 K2B     -0.080400
     23 C23        -9.4860   -3.4540   -0.5030 c3        1 K2B     -0.079400
     24 C24       -10.8960   -3.3850    0.0470 c3        1 K2B     -0.076400
     25 C25       -11.8530   -4.3060   -0.6960 c3        1 K2B     -0.067700
     26 C27       -13.1030   -4.5340    0.1300 c3        1 K2B     -0.089600
     27 C26       -12.2210   -3.7430   -2.0530 c3        1 K2B     -0.089600
     28 O1          2.8180    1.1450    2.4170 o         1 K2B     -0.537100
     29 H11C       -0.5170    1.0630    0.8070 hc        1 K2B      0.050200
     30 H12C       -0.1780    0.2720   -0.7850 hc        1 K2B      0.050200
     31 H21C        2.1440   -0.2420   -0.0890 hc        1 K2B      0.071200
     32 H22C        1.7930    1.5250    0.0860 hc        1 K2B      0.071200
     33 H4          1.6770   -0.8030    3.7170 ha        1 K2B      0.147000
     34 H61C        0.0690   -2.4170    4.1090 hc        1 K2B      0.055200
     35 H62C       -0.0560   -3.4110    2.6010 hc        1 K2B      0.055200
     36 H71C       -2.2600   -3.2620    3.6930 hc        1 K2B      0.047700
     37 H72C       -2.1750   -1.4570    3.7400 hc        1 K2B      0.047700
     38 H8         -2.2000   -3.2450    1.2130 hc        1 K2B      0.056700
     39 H9         -2.1870   -0.1730    1.6280 hc        1 K2B      0.051700
     40 H14        -4.2010   -1.1680    2.3090 hc        1 K2B      0.047700
     41 H111       -2.2730   -1.7210   -1.0450 hc        1 K2B      0.041700
     42 H112       -2.2860    0.0700   -0.7950 hc        1 K2B      0.041700
     43 H191       -0.3480   -3.2080    0.2680 hc        1 K2B      0.040367
     44 H192       -0.2040   -2.0180   -1.0930 hc        1 K2B      0.040367
     45 H193        1.2030   -2.3090    0.0070 hc        1 K2B      0.040367
     46 H121       -4.4860   -0.0050    0.2700 hc        1 K2B      0.042700
     47 H122       -4.5370   -0.8620   -1.3210 hc        1 K2B      0.042700
     48 H17        -6.4090   -1.1200    1.1310 hc        1 K2B      0.047700
     49 H181       -3.2060   -3.5220   -0.5210 hc        1 K2B      0.035367
     50 H182       -4.6910   -4.3180    0.1400 hc        1 K2B      0.035367
     51 H183       -4.7770   -3.3470   -1.3910 hc        1 K2B      0.035367
     52 H151       -4.3680   -4.2340    2.4440 hc        1 K2B      0.042200
     53 H152       -4.7560   -3.0020    3.7050 hc        1 K2B      0.042200
     54 H161       -6.5850   -4.1000    1.7590 hc        1 K2B      0.042700
     55 H162       -6.8890   -2.6630    2.8120 hc        1 K2B      0.042700
     56 H20        -6.8940   -3.6440   -0.5780 hc        1 K2B      0.050700
     57 H211       -7.9380   -1.8260   -2.1400 hc        1 K2B      0.034367
     58 H212       -6.9840   -0.6170   -1.1870 hc        1 K2B      0.034367
     59 H213       -6.1360   -1.9350   -2.0980 hc        1 K2B      0.034367
     60 H221       -8.5620   -2.8790    1.3550 hc        1 K2B      0.041700
     61 H222       -8.9370   -1.4990    0.2550 hc        1 K2B      0.041700
     62 H231       -9.1150   -4.5120   -0.4530 hc        1 K2B      0.040200
     63 H232       -9.4880   -3.1560   -1.5840 hc        1 K2B      0.040200
     64 H241      -10.8790   -3.6720    1.1330 hc        1 K2B      0.039700
     65 H242      -11.2720   -2.3300   -0.0110 hc        1 K2B      0.039700
     66 H25       -11.3440   -5.3000   -0.8500 hc        1 K2B      0.045700
     67 H261      -12.9160   -4.4380   -2.5840 hc        1 K2B      0.033367
     68 H262      -12.7280   -2.7540   -1.9430 hc        1 K2B      0.033367
     69 H263      -11.3090   -3.6050   -2.6820 hc        1 K2B      0.033367
     70 H271      -13.6160   -3.5640    0.3390 hc        1 K2B      0.033367
     71 H272      -12.8460   -5.0150    1.1040 hc        1 K2B      0.033367
     72 H273      -13.8130   -5.1980   -0.4180 hc        1 K2B      0.033367
@<TRIPOS>BOND
     1    1    2 1   
     2    1   10 1   
     3    1   29 1   
     4    1   30 1   
     5    2    3 1   
     6    2   31 1   
     7    2   32 1   
     8    3    4 1   
     9    3   28 2   
    10    4    5 2   
    11    4   33 1   
    12    5    6 1   
    13    5   10 1   
    14    6    7 1   
    15    6   34 1   
    16    6   35 1   
    17    7    8 1   
    18    7   36 1   
    19    7   37 1   
    20    8    9 1   
    21    8   14 1   
    22    8   38 1   
    23    9   10 1   
    24    9   11 1   
    25    9   39 1   
    26   10   19 1   
    27   11   12 1   
    28   11   41 1   
    29   11   42 1   
    30   12   13 1   
    31   12   46 1   
    32   12   47 1   
    33   13   14 1   
    34   13   17 1   
    35   13   18 1   
    36   14   15 1   
    37   14   40 1   
    38   15   16 1   
    39   15   52 1   
    40   15   53 1   
    41   16   17 1   
    42   16   54 1   
    43   16   55 1   
    44   17   20 1   
    45   17   48 1   
    46   18   49 1   
    47   18   50 1   
    48   18   51 1   
    49   19   43 1   
    50   19   44 1   
    51   19   45 1   
    52   20   21 1   
    53   20   22 1   
    54   20   56 1   
    55   21   57 1   
    56   21   58 1   
    57   21   59 1   
    58   22   23 1   
    59   22   60 1   
    60   22   61 1   
    61   23   24 1   
    62   23   62 1   
    63   23   63 1   
    64   24   25 1   
    65   24   64 1   
    66   24   65 1   
    67   25   26 1   
    68   25   27 1   
    69   25   66 1   
    70   26   70 1   
    71   26   71 1   
    72   26   72 1   
    73   27   67 1   
    74   27   68 1   
    75   27   69 1   
@<TRIPOS>SUBSTRUCTURE
     1 K2B         1 TEMP              0 ****  ****    0 ROOT
