@<TRIPOS>MOLECULE
K2B
   72    75     1     0     0
SMALL
bcc


@<TRIPOS>ATOM
      1 C1          0.0700    0.2250    0.3130 c3        1 K2B     -0.069400
      2 C2          1.5470    0.4900    0.4930 c3        1 K2B     -0.182400
      3 C3          1.9470    0.4050    1.9380 c         1 K2B      0.570300
      4 C4          1.2600   -0.6270    2.7230 ce        1 K2B     -0.266200
      5 C5          0.2120   -1.3340    2.2630 c2        1 K2B     -0.026400
      6 C6         -0.3700   -2.4300    3.0910 c3        1 K2B     -0.054200
      7 C7         -1.8790   -2.3510    3.1650 c3        1 K2B     -0.072400
      8 C8         -2.4810   -2.3000    1.7710 c3        1 K2B     -0.050700
      9 C9         -1.9300   -1.0860    1.0100 c3        1 K2B     -0.047700
     10 C10        -0.3890   -1.1200    0.8950 c3        1 K2B     -0.015800
     11 C11        -2.6030   -0.9210   -0.3480 c3        1 K2B     -0.075400
     12 C12        -4.1220   -0.9230   -0.2840 c3        1 K2B     -0.065400
     13 C13        -4.6370   -2.1630    0.4290 c3        1 K2B     -0.045000
     14 C14        -3.9870   -2.1640    1.8370 c3        1 K2B     -0.064700
     15 C15        -4.7910   -3.1930    2.6160 c3        1 K2B     -0.074400
     16 C16        -6.2070   -3.0760    2.0470 c3        1 K2B     -0.078400
     17 C17        -6.1400   -2.1590    0.8070 c3        1 K2B     -0.053700
     18 C18        -4.3080   -3.4140   -0.3670 c3        1 K2B     -0.083100
     19 C19         0.0910   -2.2460   -0.0170 c3        1 K2B     -0.085100
     20 C20        -7.1280   -2.5850   -0.2740 c3        1 K2B     -0.055700
     21 C21        -7.0320   -1.6980   -1.5000 c3        1 K2B     -0.091100
     22 C22        -8.5550   -2.5440    0.2710 c3        1 K2B     -0.080400
     23 C23        -9.4870   -3.4470   -0.5100 c3        1 K2B     -0.079400
     24 C24       -10.8980   -3.3700    0.0350 c3        1 K2B     -0.076400
     25 C25       -11.8560   -4.2920   -0.7060 c3        1 K2B     -0.067700
     26 C27       -13.1090   -4.5110    0.1170 c3        1 K2B     -0.089600
     27 C26       -12.2180   -3.7370   -2.0680 c3        1 K2B     -0.089600
     28 O1          2.8190    1.1360    2.4240 o         1 K2B     -0.537100
     29 H11C       -0.1670    0.2490   -0.7840 hc        1 K2B      0.050200
     30 H12C       -0.5100    1.0530    0.8010 hc        1 K2B      0.050200
     31 H21C        1.8040    1.5030    0.0860 hc        1 K2B      0.071200
     32 H22C        2.1520   -0.2670   -0.0760 hc        1 K2B      0.071200
     33 H4          1.6680   -0.7990    3.7330 ha        1 K2B      0.147000
     34 H61C       -0.0680   -3.4100    2.6280 hc        1 K2B      0.055200
     35 H62C        0.0550   -2.4060    4.1300 hc        1 K2B      0.055200
     36 H71C       -2.2760   -3.2480    3.7110 hc        1 K2B      0.047700
     37 H72C       -2.1850   -1.4420    3.7450 hc        1 K2B      0.047700
     38 H8         -2.2070   -3.2470    1.2310 hc        1 K2B      0.056700
     39 H9         -2.1860   -0.1730    1.6250 hc        1 K2B      0.051700
     40 H14        -4.2050   -1.1570    2.3050 hc        1 K2B      0.047700
     41 H111       -2.2660   -1.7390   -1.0370 hc        1 K2B      0.041700
     42 H112       -2.2750    0.0530   -0.8000 hc        1 K2B      0.041700
     43 H191       -0.3510   -3.2230    0.2930 hc        1 K2B      0.040367
     44 H192       -0.1990   -2.0430   -1.0760 hc        1 K2B      0.040367
     45 H193        1.2040   -2.3300    0.0320 hc        1 K2B      0.040367
     46 H121       -4.4790   -0.0070    0.2570 hc        1 K2B      0.042700
     47 H122       -4.5270   -0.8750   -1.3280 hc        1 K2B      0.042700
     48 H17        -6.4080   -1.1110    1.1190 hc        1 K2B      0.047700
     49 H181       -4.7740   -3.3610   -1.3810 hc        1 K2B      0.035367
     50 H182       -4.6970   -4.3210    0.1570 hc        1 K2B      0.035367
     51 H183       -3.2070   -3.5340   -0.5050 hc        1 K2B      0.035367
     52 H151       -4.7710   -2.9800    3.7120 hc        1 K2B      0.042200
     53 H152       -4.3820   -4.2220    2.4610 hc        1 K2B      0.042200
     54 H161       -6.9000   -2.6410    2.8090 hc        1 K2B      0.042700
     55 H162       -6.5960   -4.0860    1.7670 hc        1 K2B      0.042700
     56 H20        -6.8950   -3.6450   -0.5750 hc        1 K2B      0.050700
     57 H211       -6.1270   -1.9500   -2.1030 hc        1 K2B      0.034367
     58 H212       -6.9740   -0.6220   -1.2050 hc        1 K2B      0.034367
     59 H213       -7.9280   -1.8350   -2.1530 hc        1 K2B      0.034367
     60 H221       -8.5680   -2.8620    1.3470 hc        1 K2B      0.041700
     61 H222       -8.9340   -1.4880    0.2370 hc        1 K2B      0.041700
     62 H231       -9.4850   -3.1560   -1.5930 hc        1 K2B      0.040200
     63 H232       -9.1190   -4.5050   -0.4520 hc        1 K2B      0.040200
     64 H241      -10.8860   -3.6500    1.1220 hc        1 K2B      0.039700
     65 H242      -11.2710   -2.3140   -0.0320 hc        1 K2B      0.039700
     66 H25       -11.3490   -5.2890   -0.8520 hc        1 K2B      0.045700
     67 H261      -12.7220   -2.7460   -1.9660 hc        1 K2B      0.033367
     68 H262      -11.3040   -3.6060   -2.6940 hc        1 K2B      0.033367
     69 H263      -12.9120   -4.4340   -2.5960 hc        1 K2B      0.033367
     70 H271      -12.8570   -4.9870    1.0950 hc        1 K2B      0.033367
     71 H272      -13.8200   -5.1770   -0.4290 hc        1 K2B      0.033367
     72 H273      -13.6200   -3.5390    0.3180 hc        1 K2B      0.033367
@<TRIPOS>BOND
     1    1    2 1   
     2    1   10 1   
     3    1   29 1   
     4    1   30 1   
     5    2    3 1   
     6    2   31 1   
     7    2   32 1   
     8    3    4 1   
     9    3   28 2   
    10    4    5 2   
    11    4   33 1   
    12    5    6 1   
    13    5   10 1   
    14    6    7 1   
    15    6   34 1   
    16    6   35 1   
    17    7    8 1   
    18    7   36 1   
    19    7   37 1   
    20    8    9 1   
    21    8   14 1   
    22    8   38 1   
    23    9   10 1   
    24    9   11 1   
    25    9   39 1   
    26   10   19 1   
    27   11   12 1   
    28   11   41 1   
    29   11   42 1   
    30   12   13 1   
    31   12   46 1   
    32   12   47 1   
    33   13   14 1   
    34   13   17 1   
    35   13   18 1   
    36   14   15 1   
    37   14   40 1   
    38   15   16 1   
    39   15   52 1   
    40   15   53 1   
    41   16   17 1   
    42   16   54 1   
    43   16   55 1   
    44   17   20 1   
    45   17   48 1   
    46   18   49 1   
    47   18   50 1   
    48   18   51 1   
    49   19   43 1   
    50   19   44 1   
    51   19   45 1   
    52   20   21 1   
    53   20   22 1   
    54   20   56 1   
    55   21   57 1   
    56   21   58 1   
    57   21   59 1   
    58   22   23 1   
    59   22   60 1   
    60   22   61 1   
    61   23   24 1   
    62   23   62 1   
    63   23   63 1   
    64   24   25 1   
    65   24   64 1   
    66   24   65 1   
    67   25   26 1   
    68   25   27 1   
    69   25   66 1   
    70   26   70 1   
    71   26   71 1   
    72   26   72 1   
    73   27   67 1   
    74   27   68 1   
    75   27   69 1   
@<TRIPOS>SUBSTRUCTURE
     1 K2B         1 TEMP              0 ****  ****    0 ROOT
