@<TRIPOS>MOLECULE
K2B
   72    75     1     0     0
SMALL
bcc


@<TRIPOS>ATOM
      1 C1         -4.5840   -1.5110    0.5750 c3        1 K2B     -0.069400
      2 C2         -6.0880   -1.5400    0.4330 c3        1 K2B     -0.182400
      3 C3         -6.6930   -0.1960    0.7190 c         1 K2B      0.570300
      4 C4         -5.9100    0.9580    0.2600 ce        1 K2B     -0.266200
      5 C5         -4.6550    0.8620   -0.2140 c2        1 K2B     -0.026400
      6 C6         -3.9630    2.0710   -0.7460 c3        1 K2B     -0.054200
      7 C7         -2.5580    2.2130   -0.2020 c3        1 K2B     -0.072400
      8 C8         -1.7620    0.9420   -0.4420 c3        1 K2B     -0.050700
      9 C9         -2.4660   -0.2480    0.2280 c3        1 K2B     -0.047700
     10 C10        -3.9050   -0.4460   -0.2990 c3        1 K2B     -0.015800
     11 C11        -1.6360   -1.5220    0.1230 c3        1 K2B     -0.075400
     12 C12        -0.1990   -1.3600    0.5940 c3        1 K2B     -0.065400
     13 C13         0.4850   -0.2080   -0.1260 c3        1 K2B     -0.045000
     14 C14        -0.3730    1.0540    0.1500 c3        1 K2B     -0.064700
     15 C15         0.5210    2.2090   -0.2730 c3        1 K2B     -0.074400
     16 C16         1.9370    1.7340    0.0630 c3        1 K2B     -0.078400
     17 C17         1.8510    0.2420    0.4510 c3        1 K2B     -0.053700
     18 C18         0.6220   -0.5090   -1.6080 c3        1 K2B     -0.083100
     19 C19        -3.9220   -0.9100   -1.7530 c3        1 K2B     -0.085100
     20 C20         3.0830   -0.5370    0.0040 c3        1 K2B     -0.055700
     21 C21         2.9740   -2.0070    0.3600 c3        1 K2B     -0.091100
     22 C22         4.3390    0.0490    0.6460 c3        1 K2B     -0.080400
     23 C23         5.5880   -0.2800   -0.1460 c3        1 K2B     -0.079400
     24 C24         6.8200    0.2910    0.5230 c3        1 K2B     -0.076400
     25 C25         8.0910    0.0080   -0.2650 c3        1 K2B     -0.067700
     26 C27         9.2010    0.9360    0.1860 c3        1 K2B     -0.089600
     27 C26         8.5260   -1.4340   -0.1140 c3        1 K2B     -0.089600
     28 O1         -7.7910   -0.0730    1.2750 o         1 K2B     -0.537100
     29 H11C       -4.3240   -1.3220    1.6510 hc        1 K2B      0.050200
     30 H12C       -4.1780   -2.5210    0.3020 hc        1 K2B      0.050200
     31 H21C       -6.3760   -1.8310   -0.6140 hc        1 K2B      0.071200
     32 H22C       -6.5210   -2.3080    1.1270 hc        1 K2B      0.071200
     33 H4         -6.4270    1.9300    0.3210 ha        1 K2B      0.147000
     34 H61C       -3.9240    1.9820   -1.8670 hc        1 K2B      0.055200
     35 H62C       -4.5500    2.9980   -0.5050 hc        1 K2B      0.055200
     36 H71C       -2.0460    3.0750   -0.7050 hc        1 K2B      0.047700
     37 H72C       -2.5960    2.4380    0.8960 hc        1 K2B      0.047700
     38 H8         -1.6920    0.7700   -1.5510 hc        1 K2B      0.056700
     39 H9         -2.5570    0.0050    1.3250 hc        1 K2B      0.051700
     40 H14        -0.5000    1.1330    1.2710 hc        1 K2B      0.047700
     41 H111       -2.1180   -2.3220    0.7470 hc        1 K2B      0.041700
     42 H112       -1.6330   -1.8840   -0.9380 hc        1 K2B      0.041700
     43 H191       -4.9690   -0.9090   -2.1430 hc        1 K2B      0.040367
     44 H192       -3.3060   -0.2340   -2.3920 hc        1 K2B      0.040367
     45 H193       -3.5180   -1.9470   -1.8370 hc        1 K2B      0.040367
     46 H121       -0.1830   -1.1710    1.7000 hc        1 K2B      0.042700
     47 H122        0.3510   -2.3180    0.4100 hc        1 K2B      0.042700
     48 H17         1.7880    0.1640    1.5720 hc        1 K2B      0.047700
     49 H181       -0.3730   -0.6670   -2.0880 hc        1 K2B      0.035367
     50 H182        1.1340    0.3360   -2.1290 hc        1 K2B      0.035367
     51 H183        1.2250   -1.4380   -1.7590 hc        1 K2B      0.035367
     52 H151        0.4180    2.4160   -1.3670 hc        1 K2B      0.042200
     53 H152        0.2620    3.1460    0.2770 hc        1 K2B      0.042200
     54 H161        2.6110    1.8710   -0.8180 hc        1 K2B      0.042700
     55 H162        2.3570    2.3280    0.9120 hc        1 K2B      0.042700
     56 H20         3.1800   -0.4420   -1.1150 hc        1 K2B      0.050700
     57 H211        3.9730   -2.5020    0.2860 hc        1 K2B      0.034367
     58 H212        2.5970   -2.1320    1.4040 hc        1 K2B      0.034367
     59 H213        2.2780   -2.5350   -0.3350 hc        1 K2B      0.034367
     60 H221        4.2500    1.1650    0.7230 hc        1 K2B      0.041700
     61 H222        4.4390   -0.3450    1.6910 hc        1 K2B      0.041700
     62 H231        5.6950   -1.3920   -0.2470 hc        1 K2B      0.040200
     63 H232        5.4960    0.1380   -1.1830 hc        1 K2B      0.040200
     64 H241        6.6960    1.4020    0.6320 hc        1 K2B      0.039700
     65 H242        6.9200   -0.1330    1.5570 hc        1 K2B      0.039700
     66 H25         7.8860    0.2060   -1.3550 hc        1 K2B      0.045700
     67 H261        9.4540   -1.6220   -0.7070 hc        1 K2B      0.033367
     68 H262        8.7380   -1.6710    0.9570 hc        1 K2B      0.033367
     69 H263        7.7280   -2.1250   -0.4770 hc        1 K2B      0.033367
     70 H271        9.4070    0.8000    1.2750 hc        1 K2B      0.033367
     71 H272       10.1390    0.7230   -0.3810 hc        1 K2B      0.033367
     72 H273        8.9160    2.0020    0.0110 hc        1 K2B      0.033367
@<TRIPOS>BOND
     1    1    2 1   
     2    1   10 1   
     3    1   29 1   
     4    1   30 1   
     5    2    3 1   
     6    2   31 1   
     7    2   32 1   
     8    3    4 1   
     9    3   28 2   
    10    4    5 2   
    11    4   33 1   
    12    5    6 1   
    13    5   10 1   
    14    6    7 1   
    15    6   34 1   
    16    6   35 1   
    17    7    8 1   
    18    7   36 1   
    19    7   37 1   
    20    8    9 1   
    21    8   14 1   
    22    8   38 1   
    23    9   10 1   
    24    9   11 1   
    25    9   39 1   
    26   10   19 1   
    27   11   12 1   
    28   11   41 1   
    29   11   42 1   
    30   12   13 1   
    31   12   46 1   
    32   12   47 1   
    33   13   14 1   
    34   13   17 1   
    35   13   18 1   
    36   14   15 1   
    37   14   40 1   
    38   15   16 1   
    39   15   52 1   
    40   15   53 1   
    41   16   17 1   
    42   16   54 1   
    43   16   55 1   
    44   17   20 1   
    45   17   48 1   
    46   18   49 1   
    47   18   50 1   
    48   18   51 1   
    49   19   43 1   
    50   19   44 1   
    51   19   45 1   
    52   20   21 1   
    53   20   22 1   
    54   20   56 1   
    55   21   57 1   
    56   21   58 1   
    57   21   59 1   
    58   22   23 1   
    59   22   60 1   
    60   22   61 1   
    61   23   24 1   
    62   23   62 1   
    63   23   63 1   
    64   24   25 1   
    65   24   64 1   
    66   24   65 1   
    67   25   26 1   
    68   25   27 1   
    69   25   66 1   
    70   26   70 1   
    71   26   71 1   
    72   26   72 1   
    73   27   67 1   
    74   27   68 1   
    75   27   69 1   
@<TRIPOS>SUBSTRUCTURE
     1 K2B         1 TEMP              0 ****  ****    0 ROOT
