@<TRIPOS>MOLECULE
K2B
   72    74     1     0     0
SMALL
bcc


@<TRIPOS>ATOM
      1 C1          4.6610    2.0150    0.8320 c3        1 K2B     -0.146000
      2 C2          6.0820    1.9220    0.8920 c3        1 K2B     -0.210000
      3 C3          6.6120    1.9400    2.3650 c2        1 K2B      0.262000
      4 C4          5.5870    1.4720    3.5310 c2        1 K2B     -0.250000
      5 C5          4.2290    0.8970    3.0700 c1        1 K2B     -0.018000
      6 C6          3.1290    0.7800    3.9410 c2        1 K2B     -0.135000
      7 C7          2.0700    0.0680    3.5720 c3        1 K2B     -0.149000
      8 C8          1.7320    0.2440    2.0080 c3        1 K2B     -0.089000
      9 C9          2.2940    1.4060    1.4160 c3        1 K2B     -0.089000
     10 C10         3.8670    1.0050    1.6340 c3        1 K2B     -0.021000
     11 C11         1.9290    1.5470    0.0600 c3        1 K2B     -0.152000
     12 C12         0.2450    1.4190   -0.1550 c3        1 K2B     -0.145000
     13 C13        -0.2180    0.4130    0.3520 c3        1 K2B     -0.045000
     14 C14         0.1730    0.2070    1.7890 c3        1 K2B     -0.103000
     15 C15        -0.3440   -0.9860    2.0390 c3        1 K2B     -0.152000
     16 C16        -1.3040   -0.9220    1.5120 c3        1 K2B     -0.157000
     17 C17        -0.9680    0.4050    0.3810 c3        1 K2B     -0.094000
     18 C18         0.2540   -0.8120   -0.4620 c3        1 K2B     -0.202000
     19 C19         4.0930   -0.3950    0.9830 c3        1 K2B     -0.201000
     20 C20        -1.6840    0.0250   -1.2780 c3        1 K2B     -0.095000
     21 C21        -1.7830    1.2050   -2.0320 c3        1 K2B     -0.209000
     22 C22        -2.9800   -0.5460   -1.1100 c3        1 K2B     -0.159000
     23 C23        -3.4560   -1.1900   -2.4690 c3        1 K2B     -0.158000
     24 C24        -4.9650   -1.3560   -2.4500 c3        1 K2B     -0.155000
     25 C25        -5.4040   -2.1990   -3.6660 c3        1 K2B     -0.107000
     26 C27        -6.4440   -3.2360   -3.2240 c3        1 K2B     -0.207500
     27 C26        -6.0230   -1.2690   -4.7370 c3        1 K2B     -0.207500
     28 O1          7.5940    2.6020    2.6490 o         1 K2B     -0.303000
     29 H11C        4.4080    2.9070    1.1410 hc        1 K2B      0.088500
     30 H12C        4.3890    1.9310   -0.1210 hc        1 K2B      0.088500
     31 H21C        6.3740    1.1180    0.3940 hc        1 K2B      0.112000
     32 H22C        6.5040    2.6120    0.3870 hc        1 K2B      0.112000
     33 H4          5.9160    1.2770    4.4120 ha        1 K2B      0.148000
     34 H61C        3.3710    0.5640    4.8820 ha        1 K2B      0.096500
     35 H62C        2.8200    1.7070    4.0640 ha        1 K2B      0.096500
     36 H71C        1.2940    0.3580    4.1010 hc        1 K2B      0.084000
     37 H72C        2.2460   -0.8950    3.7580 hc        1 K2B      0.084000
     38 H8          2.1100   -0.5330    1.5400 hc        1 K2B      0.096000
     39 H9          2.0580    2.2170    1.9390 hc        1 K2B      0.089000
     40 H14        -0.2600    0.8830    2.3520 hc        1 K2B      0.086000
     41 H111        2.2280    2.4230   -0.2640 hc        1 K2B      0.081500
     42 H112        2.3630    0.8590   -0.4540 hc        1 K2B      0.081500
     43 H191        3.6680   -0.4150    0.0690 hc        1 K2B      0.080333
     44 H192        5.0510   -0.5660    0.9000 hc        1 K2B      0.080333
     45 H193        3.6930   -1.0750    1.5390 hc        1 K2B      0.080333
     46 H121        0.0450    1.4050   -1.1330 hc        1 K2B      0.082500
     47 H122       -0.1860    2.2020    0.2460 hc        1 K2B      0.082500
     48 H17        -1.3160    1.2610    0.7280 hc        1 K2B      0.086000
     49 H181        0.5420   -0.5200   -1.3620 hc        1 K2B      0.075333
     50 H182        0.9980   -1.2370   -0.0050 hc        1 K2B      0.075333
     51 H183       -0.4770   -1.4460   -0.5470 hc        1 K2B      0.075333
     52 H151       -0.4830   -1.1190    3.0340 hc        1 K2B      0.081500
     53 H152        0.2240   -1.7080    1.6550 hc        1 K2B      0.081500
     54 H161       -2.0350   -0.6850    2.1310 hc        1 K2B      0.082000
     55 H162       -1.4970   -1.7410    1.0380 hc        1 K2B      0.082000
     56 H20        -1.1150   -0.6000   -1.7370 hc        1 K2B      0.090000
     57 H211       -1.8810    1.9940   -1.4100 hc        1 K2B      0.073667
     58 H212       -0.9600    1.3170   -2.5850 hc        1 K2B      0.073667
     59 H213       -2.5870    1.1510   -2.6360 hc        1 K2B      0.073667
     60 H221       -3.6130    0.1570   -0.8410 hc        1 K2B      0.080500
     61 H222       -2.9450   -1.2300   -0.4240 hc        1 K2B      0.080500
     62 H231       -3.2060   -0.6140   -3.2040 hc        1 K2B      0.079500
     63 H232       -3.0310   -2.0720   -2.5830 hc        1 K2B      0.079500
     64 H241       -5.2270   -1.7970   -1.6450 hc        1 K2B      0.079000
     65 H242       -5.3780   -0.5000   -2.4920 hc        1 K2B      0.079000
     66 H25        -4.6050   -2.6720   -4.0510 hc        1 K2B      0.085000
     67 H261       -6.5080   -1.8080   -5.3980 hc        1 K2B      0.072667
     68 H262       -6.6460   -0.6410   -4.3060 hc        1 K2B      0.072667
     69 H263       -5.3270   -0.7770   -5.1740 hc        1 K2B      0.072667
     70 H271       -7.2040   -2.7780   -2.8010 hc        1 K2B      0.072667
     71 H272       -6.0410   -3.8470   -2.5890 hc        1 K2B      0.072667
     72 H273       -6.7540   -3.7310   -3.9950 hc        1 K2B      0.072667
@<TRIPOS>BOND
     1    1    2 1   
     2    1   10 1   
     3    1   29 1   
     4    1   30 1   
     5    2    3 1   
     6    2   31 1   
     7    2   32 1   
     8    3    4 1   
     9    3   28 1   
    10    4    5 1   
    11    4   33 1   
    12    5   10 1   
    13    6    7 1   
    14    6   34 1   
    15    6   35 1   
    16    7    8 1   
    17    7   36 1   
    18    7   37 1   
    19    8    9 1   
    20    8   14 1   
    21    8   38 1   
    22    9   10 1   
    23    9   11 1   
    24    9   39 1   
    25   10   19 1   
    26   11   12 1   
    27   11   41 1   
    28   11   42 1   
    29   12   13 1   
    30   12   46 1   
    31   12   47 1   
    32   13   14 1   
    33   13   17 1   
    34   13   18 1   
    35   14   15 1   
    36   14   40 1   
    37   15   16 1   
    38   15   52 1   
    39   15   53 1   
    40   16   17 1   
    41   16   54 1   
    42   16   55 1   
    43   17   20 1   
    44   17   48 1   
    45   18   49 1   
    46   18   50 1   
    47   18   51 1   
    48   19   43 1   
    49   19   44 1   
    50   19   45 1   
    51   20   21 1   
    52   20   22 1   
    53   20   56 1   
    54   21   57 1   
    55   21   58 1   
    56   21   59 1   
    57   22   23 1   
    58   22   60 1   
    59   22   61 1   
    60   23   24 1   
    61   23   62 1   
    62   23   63 1   
    63   24   25 1   
    64   24   64 1   
    65   24   65 1   
    66   25   26 1   
    67   25   27 1   
    68   25   66 1   
    69   26   70 1   
    70   26   71 1   
    71   26   72 1   
    72   27   67 1   
    73   27   68 1   
    74   27   69 1   
@<TRIPOS>SUBSTRUCTURE
     1 K2B         1 TEMP              0 ****  ****    0 ROOT
