@<TRIPOS>MOLECULE
K2C
   37    29     1     0     0
SMALL
bcc


@<TRIPOS>ATOM
      1 C7          0.7390    0.0010   -2.9310 c3        1 K2C      0.007000
      2 N6          2.1690    0.0010   -2.9310 n         1 K2C     -0.387000
      3 C22         0.2660    0.0010   -1.4850 c2        1 K2C     -0.051000
      4 C21        -1.0330    0.0010   -0.9080 c1        1 K2C     -0.040000
      5 C18        -1.1790    0.0010    0.4590 c1        1 K2C      0.024000
      6 N12        -2.5330    0.0010    0.7460 n1        1 K2C     -0.201000
      7 C19        -3.2270    0.0010   -0.4550 c1        1 K2C      0.019000
      8 C20        -2.3080    0.0010   -1.4760 c1        1 K2C     -0.072000
      9 C8         -2.7430    0.0010   -2.8120 c1        1 K2C     -0.122667
     10 C9         -4.1010    0.0010   -3.0990 c1        1 K2C     -0.122667
     11 C10        -5.0300    0.0010   -2.0660 c1        1 K2C     -0.122667
     12 C11        -4.6010    0.0010   -0.7460 c1        1 K2C     -0.122667
     13 O24         3.7660   -0.0180   -1.1950 o         1 K2C     -0.347000
     14 C5          2.6110    0.0010   -1.5710 c2        1 K2C      0.356000
     15 C23         1.3780    0.0010   -0.6750 c2        1 K2C     -0.120000
     16 C16         1.2280    0.0010    0.7380 c1        1 K2C      0.038000
     17 C17        -0.0280    0.0010    1.2970 c1        1 K2C     -0.027000
     18 N13         0.1150    0.0010    2.6740 n1        1 K2C     -0.195000
     19 C14         1.4700    0.0010    2.9650 c1        1 K2C      0.017000
     20 C15         2.1600    0.0010    1.7770 c1        1 K2C     -0.087000
     21 C4          3.5650    0.0010    1.7810 c1        1 K2C     -0.059000
     22 C3          4.2560    0.0010    2.9850 c1        1 K2C     -0.122667
     23 C2          3.5580    0.0010    4.1870 c1        1 K2C     -0.122667
     24 C1          2.1700    0.0010    4.1840 c1        1 K2C     -0.156000
     25 H71         0.4090   -0.7980   -3.3860 h1        1 K2C      0.101000
     26 HN12       -2.9050    0.0010    1.5790 DU        1 K2C      0.223500
     27 H8         -2.0910    0.0010   -3.5380 ha        1 K2C      0.135667
     28 H9         -4.4040    0.0010   -4.0270 ha        1 K2C      0.135667
     29 H10        -5.9850    0.0010   -2.2680 ha        1 K2C      0.135667
     30 H11        -5.2540    0.0010   -0.0210 ha        1 K2C      0.135667
     31 HN13       -0.5640    0.0010    3.2830 DU        1 K2C      0.223500
     32 H4          4.0560    0.0010    0.9380 ha        1 K2C      0.176000
     33 H3          5.2320    0.0010    2.9880 ha        1 K2C      0.135667
     34 H2          4.0440    0.0010    5.0330 ha        1 K2C      0.135667
     35 H1          1.6800    0.0010    5.0280 ha        1 K2C      0.138000
     36 HN6         2.7050    0.0010   -3.6690 hn        1 K2C      0.240000
     37 H72         0.4090    0.7990   -3.3860 h1        1 K2C      0.101000
@<TRIPOS>BOND
     1    1    2 1   
     2    1    3 1   
     3    1   25 1   
     4    1   37 1   
     5    2   14 1   
     6    2   36 1   
     7    3    4 1   
     8    3   15 1   
     9    4    5 1   
    10    6    7 1   
    11    7    8 1   
    12    9   10 1   
    13    9   27 1   
    14   10   28 1   
    15   11   12 1   
    16   11   29 1   
    17   12   30 1   
    18   13   14 1   
    19   14   15 1   
    20   15   16 1   
    21   16   17 1   
    22   18   19 1   
    23   19   24 1   
    24   20   21 1   
    25   21   32 1   
    26   22   23 1   
    27   22   33 1   
    28   23   34 1   
    29   24   35 1   
@<TRIPOS>SUBSTRUCTURE
     1 K2C         1 TEMP              0 ****  ****    0 ROOT
