@<TRIPOS>MOLECULE
K2C
   37    39     1     0     0
SMALL
bcc


@<TRIPOS>ATOM
      1 C7         -0.1660    0.3490    0.0350 c1        1 K2C     -0.029900
      2 N6          0.1760   -0.4850   -0.8920 n3        1 K2C     -0.275400
      3 C22        -0.2380    0.1160    1.4630 cc        1 K2C     -0.045100
      4 C21        -1.4900   -0.1690    2.0350 cc        1 K2C     -0.081000
      5 C18        -1.6700   -0.1510    3.4420 cc        1 K2C      0.068900
      6 N12        -2.9430   -0.3200    4.0610 nh        1 K2C     -0.184600
      7 C19        -4.0380   -0.3770    3.2790 c1        1 K2C     -0.064000
      8 C20        -2.6280   -0.5190    1.1930 cf        1 K2C     -0.134000
      9 C8         -3.3330    0.3100    0.4020 cf        1 K2C     -0.119000
     10 C9         -4.7490    0.0480    0.1510 ce        1 K2C     -0.139000
     11 C10        -5.5540   -0.2310    1.2110 ce        1 K2C     -0.089100
     12 C11        -4.9330   -0.3330    2.4680 c1        1 K2C     -0.089900
     13 C5          2.2020    0.6190    1.7160 c         1 K2C      0.588100
     14 C23         0.8710    0.3610    2.2880 cc        1 K2C     -0.211200
     15 C16         0.7190    0.3790    3.6820 cd        1 K2C      0.021000
     16 C17        -0.5400    0.1330    4.2860 cd        1 K2C      0.051000
     17 N13        -0.7450    0.0810    5.7090 nh        1 K2C     -0.489600
     18 C14         0.3570    0.0600    6.4890 c1        1 K2C     -0.008200
     19 C15         1.8530    0.6670    4.5570 cf        1 K2C     -0.143000
     20 C4          2.8770   -0.1590    4.8400 ce        1 K2C     -0.120000
     21 C3          3.5580   -0.0710    6.1310 ce        1 K2C     -0.146000
     22 C2          2.8010   -0.0570    7.2600 cf        1 K2C      0.017300
     23 C1          1.4060   -0.0300    7.0810 ch        1 K2C     -0.199300
     24 H71         0.5020   -1.4210   -0.7510 hn        1 K2C      0.256200
     25 HN12       -2.9550   -0.9160    4.8660 hn        1 K2C      0.287700
     26 H8         -2.9920   -1.5530    1.3620 ha        1 K2C      0.128000
     27 H9         -2.9400    1.2810    0.0610 ha        1 K2C      0.153000
     28 H10        -5.1420    0.1690   -0.8660 ha        1 K2C      0.141000
     29 H11        -6.6420   -0.3570    1.1260 ha        1 K2C      0.148000
     30 HN13       -1.4450    0.7320    6.0220 hn        1 K2C      0.422800
     31 H4          1.7420    1.6160    5.1180 ha        1 K2C      0.140000
     32 H3          3.1270   -1.0330    4.2190 ha        1 K2C      0.138000
     33 H2          4.6540   -0.1060    6.1590 ha        1 K2C      0.144000
     34 H1          3.2250   -0.0770    8.2730 ha        1 K2C      0.150000
     35 HN6         2.8990    1.1830    2.3780 h4        1 K2C      0.011200
     36 H72         0.2070   -0.1550   -1.8320 hn        1 K2C      0.256200
     37 O24         2.5570    0.2370    0.5960 o         1 K2C     -0.553100
@<TRIPOS>BOND
     1    1    2 2   
     2    1    3 2   
     3    2   24 1   
     4    2   36 1   
     5    3    4 1   
     6    3   14 1   
     7    4    5 1   
     8    4    8 2   
     9    5    6 1   
    10    5   16 2   
    11    6    7 2   
    12    6   25 1   
    13    7   12 2   
    14    8    9 1   
    15    8   26 1   
    16    9   10 2   
    17    9   27 1   
    18   10   11 1   
    19   10   28 1   
    20   11   12 2   
    21   11   29 1   
    22   13   14 1   
    23   13   35 1   
    24   13   37 2   
    25   14   15 2   
    26   15   16 1   
    27   15   19 1   
    28   16   17 1   
    29   17   18 1   
    30   17   30 1   
    31   18   23 3   
    32   19   20 2   
    33   19   31 1   
    34   20   21 1   
    35   20   32 1   
    36   21   22 2   
    37   21   33 1   
    38   22   23 1   
    39   22   34 1   
@<TRIPOS>SUBSTRUCTURE
     1 K2C         1 TEMP              0 ****  ****    0 ROOT
