@<TRIPOS>MOLECULE
K2C
   37    42     1     0     0
SMALL
bcc


@<TRIPOS>ATOM
      1 C7          1.1380    2.8750   -0.0450 c3        1 K2C      0.130300
      2 N6         -0.1210    3.6040   -0.0980 n         1 K2C     -0.576900
      3 C22         0.7340    1.4180   -0.0210 ca        1 K2C     -0.058300
      4 C21         1.5060    0.2820   -0.0180 cp        1 K2C     -0.041000
      5 C18         0.8550   -1.0180   -0.0020 ca        1 K2C     -0.021200
      6 N12         1.8180   -2.0530   -0.0720 na        1 K2C     -0.161300
      7 C19         3.0870   -1.4230    0.0030 ca        1 K2C     -0.026200
      8 C20         2.9350    0.0130   -0.0190 cp        1 K2C     -0.072000
      9 C8          4.0560    0.8290   -0.0350 ca        1 K2C     -0.080000
     10 C9          5.3200    0.2360   -0.0170 ca        1 K2C     -0.153000
     11 C10         5.4630   -1.1530    0.0130 ca        1 K2C     -0.102000
     12 C11         4.3560   -2.0030    0.0230 ca        1 K2C     -0.146000
     13 C5         -1.2220    2.7370    0.0070 c         1 K2C      0.718100
     14 C23        -0.6900    1.3400   -0.0050 ca        1 K2C     -0.141600
     15 C16        -1.3290    0.1200    0.0020 cp        1 K2C      0.038000
     16 C17        -0.5330   -1.0970   -0.0020 ca        1 K2C     -0.072200
     17 N13        -1.3690   -2.2420    0.0890 na        1 K2C     -0.154300
     18 C14        -2.7030   -1.7580    0.0070 ca        1 K2C     -0.028200
     19 C15        -2.7180   -0.3140    0.0110 cp        1 K2C     -0.086000
     20 C4         -3.9260    0.3700    0.0190 ca        1 K2C     -0.059000
     21 C3         -5.1110   -0.3680    0.0130 ca        1 K2C     -0.160000
     22 C2         -5.0940   -1.7650    0.0000 ca        1 K2C     -0.096000
     23 C1         -3.8960   -2.4810   -0.0020 ca        1 K2C     -0.156000
     24 H71         1.7510    3.1080   -0.9600 h1        1 K2C      0.061700
     25 HN12        1.6620   -2.8970    0.4290 hn        1 K2C      0.277700
     26 H8          3.9480    1.9230   -0.0610 ha        1 K2C      0.135000
     27 H9          6.2170    0.8730   -0.0270 ha        1 K2C      0.135000
     28 H10         6.4730   -1.5920    0.0290 ha        1 K2C      0.135000
     29 H11         4.4850   -3.0930    0.0410 ha        1 K2C      0.140000
     30 HN13       -1.1260   -3.0410   -0.4520 hn        1 K2C      0.268700
     31 H4         -3.9390    1.4740    0.0320 ha        1 K2C      0.176000
     32 H3         -6.0750    0.1620    0.0170 ha        1 K2C      0.137000
     33 H2         -6.0460   -2.3170   -0.0070 ha        1 K2C      0.132000
     34 H1         -3.8980   -3.5790   -0.0060 ha        1 K2C      0.138000
     35 HN6        -0.1700    4.5510    0.1750 hn        1 K2C      0.325500
     36 H72         1.7370    3.1420    0.8690 h1        1 K2C      0.061700
     37 O24        -2.3980    3.1230    0.0740 o         1 K2C     -0.622500
@<TRIPOS>BOND
     1    1    2 1   
     2    1    3 1   
     3    1   24 1   
     4    1   36 1   
     5    2   13 1   
     6    2   35 1   
     7    3    4 ar  
     8    3   14 ar  
     9    4    5 ar  
    10    4    8 1   
    11    5    6 1   
    12    5   16 ar  
    13    6    7 1   
    14    6   25 1   
    15    7    8 ar  
    16    7   12 ar  
    17    8    9 ar  
    18    9   10 ar  
    19    9   26 1   
    20   10   11 ar  
    21   10   27 1   
    22   11   12 ar  
    23   11   28 1   
    24   12   29 1   
    25   13   14 1   
    26   13   37 2   
    27   14   15 ar  
    28   15   16 ar  
    29   15   19 1   
    30   16   17 1   
    31   17   18 1   
    32   17   30 1   
    33   18   19 ar  
    34   18   23 ar  
    35   19   20 ar  
    36   20   21 ar  
    37   20   31 1   
    38   21   22 ar  
    39   21   32 1   
    40   22   23 ar  
    41   22   33 1   
    42   23   34 1   
@<TRIPOS>SUBSTRUCTURE
     1 K2C         1 TEMP              0 ****  ****    0 ROOT
