@<TRIPOS>MOLECULE
K2D
   85    87     1     0     0
SMALL
bcc


@<TRIPOS>ATOM
      1 C1         -0.6800   -2.3340    0.3660 c3        1 K2D      0.096700
      2 O1          0.7410   -2.1200    0.2790 os        1 K2D     -0.265900
      3 C2          1.4030   -1.7540    1.3890 ca        1 K2D      0.302100
      4 C3          2.8140   -1.6010    1.2360 ca        1 K2D     -0.215500
      5 C4          3.5750   -1.2440    2.3140 ca        1 K2D      0.061000
      6 C5          3.0090   -1.0090    3.6070 ca        1 K2D     -0.693500
      7 C6          1.5930   -1.1570    3.7180 ca        1 K2D      0.061000
      8 C7          0.8060   -1.5180    2.6540 ca        1 K2D     -0.215500
      9 S8          3.8850   -0.6970    4.8330 s4        1 K2D      1.688300
     10 O9          3.2780   -0.6610    6.0460 o         1 K2D     -0.434900
     11 O10         5.2360   -0.6990    4.6700 o         1 K2D     -0.434900
     12 N11         3.8880    1.7910    4.5650 n3        1 K2D     -0.894200
     13 C12         3.0780    2.4020    5.6230 c3        1 K2D      0.124800
     14 C13         3.6860    2.7480    6.9880 c3        1 K2D     -0.080700
     15 C14         4.6860    1.7310    7.5290 c3        1 K2D     -0.077900
     16 C15         4.2560    4.1590    7.0660 c3        1 K2D     -0.077900
     17 C16         5.2300    2.3190    4.3670 c3        1 K2D      0.098800
     18 C17         5.3360    3.4460    3.3240 c3        1 K2D      0.095100
     19 C18         3.2290    5.2420    6.8540 c3        1 K2D     -0.108100
     20 O18         4.4470    4.5180    3.5480 oh        1 K2D     -0.605800
     21 C19         6.7930    3.9710    3.2160 c3        1 K2D      0.110500
     22 C20         4.1240    0.9500    8.6920 c3        1 K2D     -0.108100
     23 N20         6.8630    5.0400    2.1470 n4        1 K2D     -0.640800
     24 C21         6.9120    4.4810    0.7640 c         1 K2D      0.624100
     25 O22         6.7330    3.2960    0.5120 o         1 K2D     -0.446000
     26 O23         7.1820    5.4550   -0.1240 os        1 K2D     -0.390900
     27 C24         7.2010    5.0520   -1.5340 c3        1 K2D      0.132100
     28 C25         5.7760    4.7250   -2.0100 c3        1 K2D      0.103400
     29 O26         5.5440    5.4380   -3.2180 os        1 K2D     -0.387600
     30 C27         6.5300    6.4450   -3.4130 c3        1 K2D      0.323900
     31 O28         5.8700    7.6680   -3.1510 os        1 K2D     -0.399600
     32 C29         6.4620    8.3370   -2.0300 c3        1 K2D      0.122400
     33 C30         7.7500    7.6010   -1.6580 c3        1 K2D     -0.103400
     34 C31         7.6660    6.2540   -2.3680 c3        1 K2D     -0.119700
     35 C32         7.3270    4.5290    4.5430 c3        1 K2D     -0.053100
     36 C33         8.7450    6.5820    4.3280 ca        1 K2D     -0.132500
     37 C34         9.9910    7.1990    4.2320 ca        1 K2D     -0.110000
     38 C35        11.1530    6.4260    4.1940 ca        1 K2D     -0.088000
     39 C36        11.0670    5.0340    4.2560 ca        1 K2D     -0.110000
     40 C37         9.8220    4.4140    4.3540 ca        1 K2D     -0.132500
     41 C38         8.6530    5.1850    4.3870 ca        1 K2D     -0.177300
     42 H1         -1.1920   -1.3830    0.6440 h1        1 K2D      0.083367
     43 H1A        -0.9000   -3.1510    1.0950 h1        1 K2D      0.083367
     44 H1B        -0.9400   -2.6450   -0.6800 h1        1 K2D      0.083367
     45 H3          3.2630   -1.7930    0.2450 ha        1 K2D      0.191500
     46 H4          4.6730   -1.1490    2.1980 ha        1 K2D      0.171500
     47 H6          1.1220   -0.9880    4.7080 ha        1 K2D      0.171500
     48 H7         -0.2840   -1.6340    2.7810 ha        1 K2D      0.191500
     49 H12         2.2590    1.6440    5.8190 h1        1 K2D      0.065700
     50 H12A        2.5840    3.3390    5.2280 h1        1 K2D      0.065700
     51 H13         2.7880    2.7450    7.6830 hc        1 K2D      0.092700
     52 H14         5.6220    2.2570    7.8590 hc        1 K2D      0.034200
     53 H14A        4.9980    1.0020    6.7340 hc        1 K2D      0.034200
     54 H15         5.1050    4.2880    6.3440 hc        1 K2D      0.034200
     55 H15A        4.6940    4.2910    8.0960 hc        1 K2D      0.034200
     56 H16         5.8790    1.4640    4.0090 h1        1 K2D      0.099700
     57 H16A        5.6450    2.6650    5.3550 h1        1 K2D      0.099700
     58 H17         5.0300    3.0440    2.3080 h1        1 K2D      0.100700
     59 H18         3.6700    6.2390    7.1060 hc        1 K2D      0.051367
     60 H18A        2.8690    5.2820    5.7980 hc        1 K2D      0.051367
     61 H18B        2.3430    5.0810    7.5170 hc        1 K2D      0.051367
     62 HO18        4.4120    4.7090    4.4990 ho        1 K2D      0.439000
     63 H19         7.4570    3.1190    2.8770 hx        1 K2D      0.128700
     64 H20         3.7910    1.6350    9.5080 hc        1 K2D      0.051367
     65 H20A        4.9040    0.2660    9.1060 hc        1 K2D      0.051367
     66 H20B        3.2520    0.3330    8.3620 hc        1 K2D      0.051367
     67 HN20        7.7050    5.6260    2.3040 hn        1 K2D      0.490800
     68 H24         7.8960    4.1770   -1.6180 h1        1 K2D      0.100700
     69 H25         5.6530    3.6380   -2.2530 h1        1 K2D      0.067700
     70 H25A        5.0160    5.0430   -1.2500 h1        1 K2D      0.067700
     71 H27         6.8210    6.4180   -4.4950 h2        1 K2D      0.133700
     72 H29         6.6470    9.3920   -2.3580 h1        1 K2D      0.063700
     73 H29A        5.7160    8.3230   -1.1950 h1        1 K2D      0.063700
     74 H30         7.8560    7.5070   -0.5520 hc        1 K2D      0.068200
     75 H30A        8.6410    8.1660   -2.0340 hc        1 K2D      0.068200
     76 H31         8.6370    6.0000   -2.8630 hc        1 K2D      0.107700
     77 H32         6.5830    5.2490    4.9790 hc        1 K2D      0.087200
     78 H32A        7.4240    3.6630    5.2540 hc        1 K2D      0.087200
     79 H35        12.1390    6.9150    4.1300 ha        1 K2D      0.167000
     80 H36        11.9850    4.4230    4.2420 ha        1 K2D      0.163000
     81 H37         9.7620    3.3170    4.4260 ha        1 K2D      0.136000
     82 H33         7.8380    7.2020    4.4050 ha        1 K2D      0.136000
     83 H111        3.3720    1.8970    3.7010 hn        1 K2D      0.384800
     84 H202        6.0260    5.6400    2.2240 hn        1 K2D      0.490800
     85 H34        10.0600    8.2990    4.2030 ha        1 K2D      0.163000
@<TRIPOS>BOND
     1    1    2 1   
     2    1   42 1   
     3    1   43 1   
     4    1   44 1   
     5    2    3 1   
     6    3    4 ar  
     7    3    8 ar  
     8    4    5 ar  
     9    4   45 1   
    10    5    6 ar  
    11    5   46 1   
    12    6    7 ar  
    13    6    9 1   
    14    7    8 ar  
    15    7   47 1   
    16    8   48 1   
    17    9   10 1   
    18    9   11 1   
    19   12   13 1   
    20   12   17 1   
    21   12   83 1   
    22   13   14 1   
    23   13   49 1   
    24   13   50 1   
    25   14   15 1   
    26   14   16 1   
    27   14   51 1   
    28   15   22 1   
    29   15   52 1   
    30   15   53 1   
    31   16   19 1   
    32   16   54 1   
    33   16   55 1   
    34   17   18 1   
    35   17   56 1   
    36   17   57 1   
    37   18   20 1   
    38   18   21 1   
    39   18   58 1   
    40   19   59 1   
    41   19   60 1   
    42   19   61 1   
    43   20   62 1   
    44   21   23 1   
    45   21   35 1   
    46   21   63 1   
    47   22   64 1   
    48   22   65 1   
    49   22   66 1   
    50   23   24 1   
    51   23   67 1   
    52   23   84 1   
    53   24   25 2   
    54   24   26 1   
    55   26   27 1   
    56   27   28 1   
    57   27   34 1   
    58   27   68 1   
    59   28   29 1   
    60   28   69 1   
    61   28   70 1   
    62   29   30 1   
    63   30   31 1   
    64   30   34 1   
    65   30   71 1   
    66   31   32 1   
    67   32   33 1   
    68   32   72 1   
    69   32   73 1   
    70   33   34 1   
    71   33   74 1   
    72   33   75 1   
    73   34   76 1   
    74   35   41 1   
    75   35   77 1   
    76   35   78 1   
    77   36   37 ar  
    78   36   41 ar  
    79   36   82 1   
    80   37   38 ar  
    81   37   85 1   
    82   38   39 ar  
    83   38   79 1   
    84   39   40 ar  
    85   39   80 1   
    86   40   41 ar  
    87   40   81 1   
@<TRIPOS>SUBSTRUCTURE
     1 K2D         1 TEMP              0 ****  ****    0 ROOT
