@<TRIPOS>MOLECULE
K2D
   85    87     1     0     0
SMALL
bcc


@<TRIPOS>ATOM
      1 C1         -0.4360   -2.5520    0.3150 c3        1 K2D      0.096700
      2 O1          0.9790   -2.2930    0.2530 os        1 K2D     -0.265900
      3 C2          1.6070   -1.8940    1.3710 ca        1 K2D      0.302100
      4 C3          3.0150   -1.6960    1.2430 ca        1 K2D     -0.215500
      5 C4          3.7430   -1.3040    2.3320 ca        1 K2D      0.061000
      6 C5          3.1440   -1.0740    3.6110 ca        1 K2D     -0.693500
      7 C6          1.7320   -1.2670    3.6970 ca        1 K2D      0.061000
      8 C7          0.9780   -1.6640    2.6210 ca        1 K2D     -0.215500
      9 S8          3.9860   -0.7210    4.8500 s4        1 K2D      1.688300
     10 O9          3.3540   -0.6930    6.0510 o         1 K2D     -0.434900
     11 O10         5.3390   -0.6810    4.7130 o         1 K2D     -0.434900
     12 N11         3.9130    1.7630    4.5550 n7        1 K2D     -0.894200
     13 C12         3.0640    2.3580    5.5920 c3        1 K2D      0.124800
     14 C13         3.6360    2.7380    6.9640 c3        1 K2D     -0.080700
     15 C14         4.6580    1.7590    7.5340 c3        1 K2D     -0.077900
     16 C15         4.1580    4.1670    7.0370 c3        1 K2D     -0.077900
     17 C16         5.2410    2.3320    4.3760 c3        1 K2D      0.098800
     18 C17         5.3300    3.4520    3.3230 c3        1 K2D      0.095100
     19 C18         3.1010    5.2140    6.7950 c3        1 K2D     -0.108100
     20 O18         4.4030    4.4960    3.5200 oh        1 K2D     -0.605800
     21 C19         6.7710    4.0220    3.2360 c3        1 K2D      0.109500
     22 C20         4.0990    0.9720    8.6940 c3        1 K2D     -0.108100
     23 N20         6.8260    5.0820    2.1560 ny        1 K2D     -0.639800
     24 C21         6.9180    4.5110    0.7810 c         1 K2D      0.624100
     25 O22         6.7870    3.3170    0.5390 o         1 K2D     -0.446000
     26 O23         7.1630    5.4860   -0.1130 os        1 K2D     -0.390900
     27 C24         7.2190    5.0690   -1.5190 c3        1 K2D      0.133100
     28 C25         5.8160    4.6760   -2.0110 c3        1 K2D      0.104400
     29 O26         5.5710    5.3670   -3.2280 os        1 K2D     -0.387600
     30 C27         6.5160    6.4130   -3.4200 c3        1 K2D      0.323900
     31 O28         5.8010    7.6090   -3.1790 os        1 K2D     -0.399600
     32 C29         6.3500    8.3140   -2.0580 c3        1 K2D      0.122400
     33 C30         7.6630    7.6370   -1.6630 c3        1 K2D     -0.103400
     34 C31         7.6450    6.2810   -2.3590 c3        1 K2D     -0.119700
     35 C32         7.2620    4.6110    4.5660 c3        1 K2D     -0.053100
     36 C33         8.6170    6.7070    4.3540 ca        1 K2D     -0.132500
     37 C34         9.8440    7.3620    4.2740 ca        1 K2D     -0.110000
     38 C35        11.0310    6.6270    4.2660 ca        1 K2D     -0.088000
     39 C36        10.9880    5.2340    4.3410 ca        1 K2D     -0.110000
     40 C37         9.7620    4.5750    4.4230 ca        1 K2D     -0.132500
     41 C38         8.5690    5.3080    4.4270 ca        1 K2D     -0.177300
     42 H1         -0.6440   -3.3680    1.0480 h1        1 K2D      0.083367
     43 H1A        -0.9840   -1.6150    0.5720 h1        1 K2D      0.083367
     44 H1B        -0.6650   -2.8820   -0.7330 h1        1 K2D      0.083367
     45 H3          3.4890   -1.8840    0.2640 ha        1 K2D      0.191500
     46 H4          4.8390   -1.1750    2.2360 ha        1 K2D      0.171500
     47 H6          1.2360   -1.1030    4.6750 ha        1 K2D      0.171500
     48 H7         -0.1100   -1.8140    2.7290 ha        1 K2D      0.191500
     49 H12         2.5480    3.2750    5.1770 h1        1 K2D      0.065700
     50 H12A        2.2670    1.5760    5.7800 h1        1 K2D      0.065700
     51 H13         2.7250    2.7120    7.6420 hc        1 K2D      0.092700
     52 H14         5.5700    2.3180    7.8760 hc        1 K2D      0.034200
     53 H14A        5.0080    1.0330    6.7530 hc        1 K2D      0.034200
     54 H15         5.0160    4.3160    6.3300 hc        1 K2D      0.034200
     55 H15A        4.5730    4.3230    8.0730 hc        1 K2D      0.034200
     56 H16         5.9240    1.4950    4.0390 h1        1 K2D      0.099700
     57 H16A        5.6260    2.7020    5.3680 h1        1 K2D      0.099700
     58 H17         5.0560    3.0300    2.3060 h1        1 K2D      0.100700
     59 H18         3.5050    6.2270    7.0440 hc        1 K2D      0.051367
     60 H18A        2.7600    5.2320    5.7310 hc        1 K2D      0.051367
     61 H18B        2.2090    5.0310    7.4430 hc        1 K2D      0.051367
     62 HO18        4.3440    4.6960    4.4670 ho        1 K2D      0.439000
     63 H19         7.4680    3.1880    2.9180 hx        1 K2D      0.128700
     64 H20         3.2540    0.3240    8.3550 hc        1 K2D      0.051367
     65 H20A        3.7290    1.6540    9.4980 hc        1 K2D      0.051367
     66 H20B        4.8930    0.3170    9.1300 hc        1 K2D      0.051367
     67 HN20        5.9690    5.6560    2.2130 hn        1 K2D      0.490800
     68 H24         7.9530    4.2230   -1.5830 h1        1 K2D      0.100700
     69 H25         5.7440    3.5830   -2.2450 h1        1 K2D      0.067700
     70 H25A        5.0330    4.9670   -1.2630 h1        1 K2D      0.067700
     71 H27         6.8220    6.3880   -4.4980 h2        1 K2D      0.133700
     72 H29         6.4950    9.3720   -2.3960 h1        1 K2D      0.063700
     73 H29A        5.5950    8.2780   -1.2320 h1        1 K2D      0.063700
     74 H30         8.5340    8.2360   -2.0340 hc        1 K2D      0.068200
     75 H30A        7.7590    7.5590   -0.5550 hc        1 K2D      0.068200
     76 H31         8.6320    6.0620   -2.8390 hc        1 K2D      0.107700
     77 H32         6.4870    5.3110    4.9810 hc        1 K2D      0.087200
     78 H32A        7.3740    3.7550    5.2880 hc        1 K2D      0.087200
     79 H35        12.0020    7.1470    4.2140 ha        1 K2D      0.167000
     80 H36        11.9250    4.6530    4.3510 ha        1 K2D      0.163000
     81 H37         9.7370    3.4770    4.5070 ha        1 K2D      0.136000
     82 H33         7.6890    7.2970    4.4080 ha        1 K2D      0.136000
     83 H111        3.4100    1.8440    3.6810 hn        1 K2D      0.383800
     84 H202        7.6460    5.6960    2.3220 hn        1 K2D      0.490800
     85 H34         9.8780    8.4630    4.2340 ha        1 K2D      0.163000
@<TRIPOS>BOND
     1    1    2 1   
     2    1   42 1   
     3    1   43 1   
     4    1   44 1   
     5    2    3 1   
     6    3    4 ar  
     7    3    8 ar  
     8    4    5 ar  
     9    4   45 1   
    10    5    6 ar  
    11    5   46 1   
    12    6    7 ar  
    13    6    9 1   
    14    7    8 ar  
    15    7   47 1   
    16    8   48 1   
    17    9   10 1   
    18    9   11 1   
    19   12   13 1   
    20   12   17 1   
    21   12   83 1   
    22   13   14 1   
    23   13   49 1   
    24   13   50 1   
    25   14   15 1   
    26   14   16 1   
    27   14   51 1   
    28   15   22 1   
    29   15   52 1   
    30   15   53 1   
    31   16   19 1   
    32   16   54 1   
    33   16   55 1   
    34   17   18 1   
    35   17   56 1   
    36   17   57 1   
    37   18   20 1   
    38   18   21 1   
    39   18   58 1   
    40   19   59 1   
    41   19   60 1   
    42   19   61 1   
    43   20   62 1   
    44   21   23 1   
    45   21   35 1   
    46   21   63 1   
    47   22   64 1   
    48   22   65 1   
    49   22   66 1   
    50   23   24 1   
    51   23   67 1   
    52   23   84 1   
    53   24   25 2   
    54   24   26 1   
    55   26   27 1   
    56   27   28 1   
    57   27   34 1   
    58   27   68 1   
    59   28   29 1   
    60   28   69 1   
    61   28   70 1   
    62   29   30 1   
    63   30   31 1   
    64   30   34 1   
    65   30   71 1   
    66   31   32 1   
    67   32   33 1   
    68   32   72 1   
    69   32   73 1   
    70   33   34 1   
    71   33   74 1   
    72   33   75 1   
    73   34   76 1   
    74   35   41 1   
    75   35   77 1   
    76   35   78 1   
    77   36   37 ar  
    78   36   41 ar  
    79   36   82 1   
    80   37   38 ar  
    81   37   85 1   
    82   38   39 ar  
    83   38   79 1   
    84   39   40 ar  
    85   39   80 1   
    86   40   41 ar  
    87   40   81 1   
@<TRIPOS>SUBSTRUCTURE
     1 K2D         1 TEMP              0 ****  ****    0 ROOT
