@<TRIPOS>MOLECULE
K2D
   83    86     1     0     0
SMALL
bcc


@<TRIPOS>ATOM
      1 C1         -1.7580    6.1380   -1.0000 c3        1 K2D      0.109700
      2 O1         -0.8920    5.0140   -1.1370 os        1 K2D     -0.319900
      3 C2         -1.4940    3.7840   -1.2530 ca        1 K2D      0.187100
      4 C3         -0.6100    2.7000   -1.4230 ca        1 K2D     -0.208500
      5 C4         -1.1280    1.4200   -1.5430 ca        1 K2D      0.017500
      6 C5         -2.5100    1.1800   -1.4910 ca        1 K2D     -0.438500
      7 C6         -3.3680    2.2750   -1.3270 ca        1 K2D      0.017500
      8 C7         -2.8810    3.5710   -1.2080 ca        1 K2D     -0.208500
      9 S8         -3.1250   -0.3700   -1.6750 sy        1 K2D      1.504200
     10 O9         -4.4760   -0.2660   -2.0660 o         1 K2D     -0.653800
     11 O10        -2.2850   -1.1100   -2.5410 o         1 K2D     -0.653800
     12 N11        -3.0040   -1.0050   -0.1620 n3        1 K2D     -0.788500
     13 C12        -3.8280   -0.5540    0.9310 c3        1 K2D      0.225800
     14 C13        -5.0730   -1.3730    1.3090 c3        1 K2D     -0.074700
     15 C14        -6.1770   -1.2980    0.2650 c3        1 K2D     -0.080900
     16 C15        -4.7790   -2.8260    1.6450 c3        1 K2D     -0.080900
     17 C16        -1.9010   -1.8640    0.1700 c3        1 K2D      0.182800
     18 C17        -0.7330   -1.1700    0.9110 c3        1 K2D      0.073100
     19 C18        -4.0080   -2.9800    2.9320 c3        1 K2D     -0.093100
     20 O18        -0.8910   -1.2380    2.3150 oh        1 K2D     -0.593800
     21 C19         0.6310   -1.7650    0.4630 c3        1 K2D      0.066700
     22 C20        -6.7830    0.0780    0.1490 c3        1 K2D     -0.093100
     23 N20         1.7580   -1.0240    0.9990 n         1 K2D     -0.502900
     24 C21         2.1130    0.1710    0.4010 c         1 K2D      0.734100
     25 O22         1.7860    0.5990   -0.7190 o         1 K2D     -0.594000
     26 O23         2.9820    0.9110    1.1830 os        1 K2D     -0.431900
     27 C24         3.5430    2.0830    0.5830 c3        1 K2D      0.131100
     28 C25         3.8370    3.0610    1.7380 c3        1 K2D      0.121400
     29 O26         5.1020    3.6690    1.4760 os        1 K2D     -0.418600
     30 C27         5.8190    2.9380    0.4880 c3        1 K2D      0.321900
     31 O28         6.8970    2.3330    1.1790 os        1 K2D     -0.419600
     32 C29         6.7030    0.9150    1.2630 c3        1 K2D      0.125400
     33 C30         5.5960    0.5260    0.2830 c3        1 K2D     -0.104400
     34 C31         4.9020    1.8300   -0.0910 c3        1 K2D     -0.131700
     35 C32         0.7220   -3.2540    0.8430 c3        1 K2D     -0.041100
     36 C33         2.9400   -4.4190    0.9080 ca        1 K2D     -0.121500
     37 C34         3.9890   -5.0810    0.2700 ca        1 K2D     -0.126000
     38 C35         3.9590   -5.2710   -1.1110 ca        1 K2D     -0.126000
     39 C36         2.8770   -4.7990   -1.8550 ca        1 K2D     -0.126000
     40 C37         1.8280   -4.1380   -1.2200 ca        1 K2D     -0.121500
     41 C38         1.8530   -3.9420    0.1670 ca        1 K2D     -0.084300
     42 H1         -1.0490    7.0030   -0.9430 h1        1 K2D      0.050700
     43 H1A        -2.4250    6.2310   -1.8910 h1        1 K2D      0.050700
     44 H1B        -2.3590    6.0560   -0.0630 h1        1 K2D      0.050700
     45 H3          0.4770    2.8700   -1.4560 ha        1 K2D      0.155500
     46 H4         -0.4260    0.5760   -1.6920 ha        1 K2D      0.161500
     47 H6         -4.4610    2.1020   -1.3060 ha        1 K2D      0.161500
     48 H7         -3.5790    4.4100   -1.0850 ha        1 K2D      0.155500
     49 H12        -3.1810   -0.4750    1.8560 h1        1 K2D      0.052200
     50 H12A       -4.1850    0.4890    0.6730 h1        1 K2D      0.052200
     51 H13        -5.4590   -0.8790    2.2510 hc        1 K2D      0.049700
     52 H14        -5.7820   -1.6160   -0.7360 hc        1 K2D      0.048200
     53 H14A       -6.9860   -2.0250    0.5480 hc        1 K2D      0.048200
     54 H15        -5.7540   -3.3770    1.7490 hc        1 K2D      0.048200
     55 H15A       -4.2310   -3.3130    0.7980 hc        1 K2D      0.048200
     56 H16        -2.2710   -2.7070    0.8230 h1        1 K2D      0.073700
     57 H16A       -1.5050   -2.3190   -0.7870 h1        1 K2D      0.073700
     58 H17        -0.7280   -0.0590    0.6970 h1        1 K2D      0.094700
     59 H18        -4.6110   -2.6110    3.7960 hc        1 K2D      0.032200
     60 H18A       -3.7630   -4.0550    3.1080 hc        1 K2D      0.032200
     61 H18B       -3.0540   -2.3980    2.9040 hc        1 K2D      0.032200
     62 HO18       -0.9460   -2.1710    2.5590 ho        1 K2D      0.400000
     63 H19         0.6800   -1.6760   -0.6660 h1        1 K2D      0.102700
     64 H20        -7.7310    0.0260   -0.4390 hc        1 K2D      0.032200
     65 H20A       -7.0140    0.5040    1.1550 hc        1 K2D      0.032200
     66 H20B       -6.0880    0.7710   -0.3860 hc        1 K2D      0.032200
     67 HN20        1.9130   -1.0990    1.9800 hn        1 K2D      0.322500
     68 H24         2.8160    2.5220   -0.1530 h1        1 K2D      0.090700
     69 H25         3.0910    3.8930    1.7820 h1        1 K2D      0.064700
     70 H25A        3.8890    2.5260    2.7200 h1        1 K2D      0.064700
     71 H27         6.2450    3.6790   -0.2340 h2        1 K2D      0.101700
     72 H29         7.6890    0.4520    1.0070 h1        1 K2D      0.051200
     73 H29A        6.4270    0.6680    2.3200 h1        1 K2D      0.051200
     74 H30         6.0310    0.0470   -0.6290 hc        1 K2D      0.066200
     75 H30A        4.8900   -0.2040    0.7490 hc        1 K2D      0.066200
     76 H31         4.7980    1.9240   -1.1990 hc        1 K2D      0.086700
     77 H32         0.8120   -3.3620    1.9580 hc        1 K2D      0.055700
     78 H32A       -0.2410   -3.7450    0.5340 hc        1 K2D      0.055700
     79 H34         4.8400   -5.4530    0.8590 ha        1 K2D      0.134000
     80 H35         4.7870   -5.7930   -1.6130 ha        1 K2D      0.133000
     81 H36         2.8510   -4.9470   -2.9450 ha        1 K2D      0.134000
     82 H37         0.9760   -3.7660   -1.8100 ha        1 K2D      0.133000
     83 H33         2.9700   -4.2710    1.9970 ha        1 K2D      0.133000
@<TRIPOS>BOND
     1    1    2 1   
     2    1   42 1   
     3    1   43 1   
     4    1   44 1   
     5    2    3 1   
     6    3    4 ar  
     7    3    8 ar  
     8    4    5 ar  
     9    4   45 1   
    10    5    6 ar  
    11    5   46 1   
    12    6    7 ar  
    13    6    9 1   
    14    7    8 ar  
    15    7   47 1   
    16    8   48 1   
    17    9   10 2   
    18    9   11 2   
    19    9   12 1   
    20   12   13 1   
    21   12   17 1   
    22   13   14 1   
    23   13   49 1   
    24   13   50 1   
    25   14   15 1   
    26   14   16 1   
    27   14   51 1   
    28   15   22 1   
    29   15   52 1   
    30   15   53 1   
    31   16   19 1   
    32   16   54 1   
    33   16   55 1   
    34   17   18 1   
    35   17   56 1   
    36   17   57 1   
    37   18   20 1   
    38   18   21 1   
    39   18   58 1   
    40   19   59 1   
    41   19   60 1   
    42   19   61 1   
    43   20   62 1   
    44   21   23 1   
    45   21   35 1   
    46   21   63 1   
    47   22   64 1   
    48   22   65 1   
    49   22   66 1   
    50   23   24 1   
    51   23   67 1   
    52   24   25 2   
    53   24   26 1   
    54   26   27 1   
    55   27   28 1   
    56   27   34 1   
    57   27   68 1   
    58   28   29 1   
    59   28   69 1   
    60   28   70 1   
    61   29   30 1   
    62   30   31 1   
    63   30   34 1   
    64   30   71 1   
    65   31   32 1   
    66   32   33 1   
    67   32   72 1   
    68   32   73 1   
    69   33   34 1   
    70   33   74 1   
    71   33   75 1   
    72   34   76 1   
    73   35   41 1   
    74   35   77 1   
    75   35   78 1   
    76   36   37 ar  
    77   36   41 ar  
    78   36   83 1   
    79   37   38 ar  
    80   37   79 1   
    81   38   39 ar  
    82   38   80 1   
    83   39   40 ar  
    84   39   81 1   
    85   40   41 ar  
    86   40   82 1   
@<TRIPOS>SUBSTRUCTURE
     1 K2D         1 TEMP              0 ****  ****    0 ROOT
