@<TRIPOS>MOLECULE
K2D
   85    87     1     0     0
SMALL
bcc


@<TRIPOS>ATOM
      1 C1         -0.6540   -2.3640    0.4020 c3        1 K2D      0.096700
      2 O1          0.7670   -2.1490    0.3170 os        1 K2D     -0.265900
      3 C2          1.4250   -1.7720    1.4250 ca        1 K2D      0.302100
      4 C3          2.8370   -1.6190    1.2750 ca        1 K2D     -0.215500
      5 C4          3.5950   -1.2520    2.3530 ca        1 K2D      0.061000
      6 C5          3.0240   -1.0060    3.6420 ca        1 K2D     -0.693500
      7 C6          1.6080   -1.1550    3.7500 ca        1 K2D      0.061000
      8 C7          0.8240   -1.5260    2.6860 ca        1 K2D     -0.215500
      9 S8          3.8960   -0.6830    4.8670 s4        1 K2D      1.688300
     10 O9          3.2860   -0.6370    6.0780 o         1 K2D     -0.434900
     11 O10         5.2470   -0.6850    4.7080 o         1 K2D     -0.434900
     12 N11         3.8960    1.8030    4.5780 n3        1 K2D     -0.894200
     13 C12         3.0840    2.4220    5.6310 c3        1 K2D      0.124800
     14 C13         3.6920    2.7800    6.9930 c3        1 K2D     -0.080700
     15 C14         4.6920    1.7680    7.5430 c3        1 K2D     -0.077900
     16 C15         4.2600    4.1920    7.0610 c3        1 K2D     -0.077900
     17 C16         5.2370    2.3310    4.3760 c3        1 K2D      0.098800
     18 C17         5.3430    3.4500    3.3250 c3        1 K2D      0.095100
     19 C18         3.2330    5.2720    6.8390 c3        1 K2D     -0.108100
     20 O18         4.4540    4.5220    3.5400 oh        1 K2D     -0.605800
     21 C19         6.8000    3.9740    3.2120 c3        1 K2D      0.109500
     22 C20         4.1300    0.9960    8.7110 c3        1 K2D     -0.108100
     23 N20         6.8690    5.0350    2.1340 n4        1 K2D     -0.639800
     24 C21         6.9160    4.4650    0.7560 c         1 K2D      0.624100
     25 O22         6.7470    3.2770    0.5150 o         1 K2D     -0.446000
     26 O23         7.1720    5.4350   -0.1410 os        1 K2D     -0.390900
     27 C24         7.1880    5.0210   -1.5480 c3        1 K2D      0.133100
     28 C25         5.7650    4.6670   -2.0120 c3        1 K2D      0.104400
     29 O26         5.5120    5.3680   -3.2220 os        1 K2D     -0.388600
     30 C27         6.4810    6.3900   -3.4310 c3        1 K2D      0.323900
     31 O28         5.8030    7.6030   -3.1720 os        1 K2D     -0.399600
     32 C29         6.3950    8.2900   -2.0610 c3        1 K2D      0.122400
     33 C30         7.6970    7.5770   -1.6960 c3        1 K2D     -0.103400
     34 C31         7.6280    6.2230   -2.3940 c3        1 K2D     -0.119700
     35 C32         7.3340    4.5430    4.5340 c3        1 K2D     -0.053100
     36 C33         8.7500    6.5960    4.3030 ca        1 K2D     -0.132500
     37 C34         9.9950    7.2120    4.2010 ca        1 K2D     -0.110000
     38 C35        11.1580    6.4400    4.1700 ca        1 K2D     -0.088000
     39 C36        11.0730    5.0490    4.2430 ca        1 K2D     -0.110000
     40 C37         9.8280    4.4280    4.3460 ca        1 K2D     -0.132500
     41 C38         8.6590    5.1990    4.3730 ca        1 K2D     -0.177300
     42 H1         -0.9100   -2.6840   -0.6430 h1        1 K2D      0.083367
     43 H1A        -0.8750   -3.1740    1.1370 h1        1 K2D      0.083367
     44 H1B        -1.1680   -1.4110    0.6690 h1        1 K2D      0.083367
     45 H3          3.2890   -1.8190    0.2880 ha        1 K2D      0.191500
     46 H4          4.6920   -1.1570    2.2390 ha        1 K2D      0.171500
     47 H6          1.1340   -0.9780    4.7370 ha        1 K2D      0.171500
     48 H7         -0.2660   -1.6420    2.8120 ha        1 K2D      0.191500
     49 H12         2.5910    3.3550    5.2270 h1        1 K2D      0.065700
     50 H12A        2.2660    1.6650    5.8310 h1        1 K2D      0.065700
     51 H13         2.7930    2.7810    7.6880 hc        1 K2D      0.092700
     52 H14         5.6280    2.2970    7.8700 hc        1 K2D      0.034200
     53 H14A        5.0060    1.0330    6.7540 hc        1 K2D      0.034200
     54 H15         5.1100    4.3150    6.3380 hc        1 K2D      0.034200
     55 H15A        4.6980    4.3320    8.0890 hc        1 K2D      0.034200
     56 H16         5.8880    1.4740    4.0260 h1        1 K2D      0.099700
     57 H16A        5.6520    2.6860    5.3620 h1        1 K2D      0.099700
     58 H17         5.0380    3.0390    2.3120 h1        1 K2D      0.100700
     59 H18         3.6730    6.2710    7.0830 hc        1 K2D      0.051367
     60 H18A        2.3470    5.1160    7.5020 hc        1 K2D      0.051367
     61 H18B        2.8730    5.3030    5.7820 hc        1 K2D      0.051367
     62 HO18        4.4180    4.7210    4.4890 ho        1 K2D      0.439000
     63 H19         7.4640    3.1200    2.8790 hx        1 K2D      0.128700
     64 H20         3.7950    1.6870    9.5220 hc        1 K2D      0.051367
     65 H20A        4.9100    0.3150    9.1320 hc        1 K2D      0.051367
     66 H20B        3.2580    0.3750    8.3860 hc        1 K2D      0.051367
     67 HN20        7.7110    5.6220    2.2860 hn        1 K2D      0.490800
     68 H24         7.8970    4.1560   -1.6290 h1        1 K2D      0.100700
     69 H25         5.6590    3.5770   -2.2480 h1        1 K2D      0.067700
     70 H25A        5.0060    4.9760   -1.2480 h1        1 K2D      0.067700
     71 H27         6.7630    6.3600   -4.5160 h2        1 K2D      0.133700
     72 H29         5.6570    8.2710   -1.2190 h1        1 K2D      0.063700
     73 H29A        6.5620    9.3450   -2.3990 h1        1 K2D      0.063700
     74 H30         7.8160    7.4930   -0.5900 hc        1 K2D      0.068200
     75 H30A        8.5770    8.1520   -2.0840 hc        1 K2D      0.068200
     76 H31         8.5980    5.9800   -2.8960 hc        1 K2D      0.107700
     77 H32         7.4310    3.6820    5.2520 hc        1 K2D      0.087200
     78 H32A        6.5890    5.2660    4.9650 hc        1 K2D      0.087200
     79 H35        12.1440    6.9300    4.1020 ha        1 K2D      0.167000
     80 H36        11.9910    4.4390    4.2340 ha        1 K2D      0.163000
     81 H37         9.7690    3.3320    4.4270 ha        1 K2D      0.136000
     82 H33         7.8420    7.2150    4.3750 ha        1 K2D      0.136000
     83 H111        3.3810    1.9010    3.7130 hn        1 K2D      0.383800
     84 H202        6.0320    5.6360    2.2080 hn        1 K2D      0.490800
     85 H34        10.0630    8.3120    4.1630 ha        1 K2D      0.163000
@<TRIPOS>BOND
     1    1    2 1   
     2    1   42 1   
     3    1   43 1   
     4    1   44 1   
     5    2    3 1   
     6    3    4 ar  
     7    3    8 ar  
     8    4    5 ar  
     9    4   45 1   
    10    5    6 ar  
    11    5   46 1   
    12    6    7 ar  
    13    6    9 1   
    14    7    8 ar  
    15    7   47 1   
    16    8   48 1   
    17    9   10 1   
    18    9   11 1   
    19   12   13 1   
    20   12   17 1   
    21   12   83 1   
    22   13   14 1   
    23   13   49 1   
    24   13   50 1   
    25   14   15 1   
    26   14   16 1   
    27   14   51 1   
    28   15   22 1   
    29   15   52 1   
    30   15   53 1   
    31   16   19 1   
    32   16   54 1   
    33   16   55 1   
    34   17   18 1   
    35   17   56 1   
    36   17   57 1   
    37   18   20 1   
    38   18   21 1   
    39   18   58 1   
    40   19   59 1   
    41   19   60 1   
    42   19   61 1   
    43   20   62 1   
    44   21   23 1   
    45   21   35 1   
    46   21   63 1   
    47   22   64 1   
    48   22   65 1   
    49   22   66 1   
    50   23   24 1   
    51   23   67 1   
    52   23   84 1   
    53   24   25 2   
    54   24   26 1   
    55   26   27 1   
    56   27   28 1   
    57   27   34 1   
    58   27   68 1   
    59   28   29 1   
    60   28   69 1   
    61   28   70 1   
    62   29   30 1   
    63   30   31 1   
    64   30   34 1   
    65   30   71 1   
    66   31   32 1   
    67   32   33 1   
    68   32   72 1   
    69   32   73 1   
    70   33   34 1   
    71   33   74 1   
    72   33   75 1   
    73   34   76 1   
    74   35   41 1   
    75   35   77 1   
    76   35   78 1   
    77   36   37 ar  
    78   36   41 ar  
    79   36   82 1   
    80   37   38 ar  
    81   37   85 1   
    82   38   39 ar  
    83   38   79 1   
    84   39   40 ar  
    85   39   80 1   
    86   40   41 ar  
    87   40   81 1   
@<TRIPOS>SUBSTRUCTURE
     1 K2D         1 TEMP              0 ****  ****    0 ROOT
