@<TRIPOS>MOLECULE
K2E
   84    87     1     0     0
SMALL
bcc


@<TRIPOS>ATOM
      1 C1         -0.2910   -0.6260   -0.7080 c3        1 K2E      0.321200
      2 O1          1.1650   -0.5150   -0.5830 os        1 K2E     -0.270900
      3 C2          1.4540   -0.3000    0.7260 ca        1 K2E      0.240100
      4 O2         -0.8320   -0.5100    0.6350 os        1 K2E     -0.323900
      5 C3          0.2370   -0.2850    1.4900 ca        1 K2E      0.027100
      6 C4          0.2210   -0.0720    2.8360 ca        1 K2E     -0.017000
      7 C5          1.4820    0.1260    3.4930 ca        1 K2E     -0.636500
      8 C6          2.6720    0.1010    2.7130 ca        1 K2E      0.067000
      9 C7          2.6900   -0.1080    1.3400 ca        1 K2E     -0.156000
     10 S8          1.5200    0.4390    5.0180 s4        1 K2E      1.677300
     11 O9          2.7080    0.8440    5.5320 o         1 K2E     -0.430900
     12 O10         0.3240    0.5530    5.6570 o         1 K2E     -0.430900
     13 N11         1.7590   -1.8580    5.7550 n3        1 K2E     -0.902200
     14 C12         2.9430   -2.0070    6.6150 c3        1 K2E      0.124800
     15 C13         2.8610   -1.7460    8.1230 c3        1 K2E     -0.079700
     16 C14         2.3070   -0.3730    8.4820 c3        1 K2E     -0.082400
     17 C15         2.1730   -2.8270    8.9420 c3        1 K2E     -0.082400
     18 C16         0.5250   -2.4000    6.3190 c3        1 K2E      0.097800
     19 C17        -0.5190   -2.7710    5.2520 c3        1 K2E      0.103100
     20 C18         2.6660   -4.2210    8.6530 c3        1 K2E     -0.106100
     21 O18        -0.1330   -3.8910    4.4850 oh        1 K2E     -0.603800
     22 C19        -1.9060   -3.0030    5.9080 c3        1 K2E      0.107500
     23 C20         3.3840    0.6830    8.5220 c3        1 K2E     -0.106100
     24 N20        -2.8960   -3.4700    4.8650 n4        1 K2E     -0.638800
     25 C21        -3.3350   -2.3830    3.9420 c         1 K2E      0.630100
     26 O22        -2.8710   -1.2500    3.9690 o         1 K2E     -0.455000
     27 O23        -4.2810   -2.8390    3.1020 os        1 K2E     -0.391900
     28 C24        -4.7690   -1.8890    2.0940 c3        1 K2E      0.138100
     29 C25        -3.6270   -1.4580    1.1610 c3        1 K2E      0.104400
     30 O26        -3.9950   -1.7620   -0.1780 os        1 K2E     -0.400600
     31 C27        -5.1890   -2.5360   -0.2170 c3        1 K2E      0.324900
     32 O28        -4.7680   -3.8290   -0.6110 os        1 K2E     -0.406600
     33 C29        -5.1250   -4.8030    0.3800 c3        1 K2E      0.123400
     34 C30        -5.9730   -4.1150    1.4500 c3        1 K2E     -0.103400
     35 C31        -5.7910   -2.6210    1.2130 c3        1 K2E     -0.118700
     36 C32        -1.8480   -4.0130    7.0630 c3        1 K2E     -0.052100
     37 C33        -3.8250   -5.5460    7.1670 ca        1 K2E     -0.133000
     38 C34        -5.0710   -5.8960    7.6850 ca        1 K2E     -0.109000
     39 C35        -5.7010   -5.0640    8.6140 ca        1 K2E     -0.087000
     40 C36        -5.0820   -3.8830    9.0240 ca        1 K2E     -0.109000
     41 C37        -3.8350   -3.5310    8.5090 ca        1 K2E     -0.133000
     42 C38        -3.2010   -4.3590    7.5750 ca        1 K2E     -0.180300
     43 H1         -0.6530    0.2340   -1.3260 h2        1 K2E      0.124700
     44 H1A        -0.5300   -1.6420   -1.1100 h2        1 K2E      0.124700
     45 H4         -0.7260   -0.0230    3.4040 ha        1 K2E      0.188000
     46 H6          3.6410    0.2730    3.2260 ha        1 K2E      0.183000
     47 H7          3.6290   -0.1120    0.7610 ha        1 K2E      0.210000
     48 H12         3.6950   -1.2670    6.2000 h1        1 K2E      0.075700
     49 H12A        3.3700   -3.0450    6.4840 h1        1 K2E      0.075700
     50 H13         3.9510   -1.7650    8.4430 hc        1 K2E      0.092700
     51 H14         1.5080   -0.0680    7.7550 hc        1 K2E      0.040950
     52 H14A        1.8160   -0.4240    9.4920 hc        1 K2E      0.040950
     53 H15         2.3770   -2.6000   10.0270 hc        1 K2E      0.040950
     54 H15A        1.0600   -2.7700    8.8210 hc        1 K2E      0.040950
     55 H16         0.0910   -1.6180    7.0080 h1        1 K2E      0.097700
     56 H16A        0.7420   -3.3330    6.9210 h1        1 K2E      0.097700
     57 H17        -0.6260   -1.9380    4.4910 h1        1 K2E      0.097700
     58 H18         2.2710   -4.9320    9.4210 hc        1 K2E      0.048200
     59 H18A        3.7830   -4.2610    8.6870 hc        1 K2E      0.048200
     60 H18B        2.3330   -4.5790    7.6480 hc        1 K2E      0.048200
     61 HO18        0.2450   -4.5620    5.0720 ho        1 K2E      0.435000
     62 H19        -2.2840   -2.0090    6.2990 hx        1 K2E      0.135700
     63 H20         4.1530    0.4330    9.2940 hc        1 K2E      0.048200
     64 H20A        2.9390    1.6740    8.7820 hc        1 K2E      0.048200
     65 H20B        3.8940    0.7730    7.5320 hc        1 K2E      0.048200
     66 HN20       -2.4540   -4.2130    4.2980 hn        1 K2E      0.491300
     67 H24        -5.2160   -1.0280    2.6570 h1        1 K2E      0.103700
     68 H25        -2.6760   -2.0040    1.3980 h1        1 K2E      0.068200
     69 H25A       -3.4450   -0.3530    1.2030 h1        1 K2E      0.068200
     70 H27        -5.8410   -2.1050   -1.0200 h2        1 K2E      0.132700
     71 H29        -5.6840   -5.6100   -0.1590 h1        1 K2E      0.062700
     72 H29A       -4.1730   -5.2150    0.8000 h1        1 K2E      0.062700
     73 H30        -5.6720   -4.4350    2.4750 hc        1 K2E      0.071700
     74 H30A       -7.0540   -4.3850    1.3200 hc        1 K2E      0.071700
     75 H31        -6.7700   -2.0810    1.2770 hc        1 K2E      0.112700
     76 H32        -1.3050   -4.9390    6.7330 hc        1 K2E      0.086700
     77 H32A       -1.2450   -3.5380    7.8860 hc        1 K2E      0.086700
     78 H35        -6.6810   -5.3490    9.0330 ha        1 K2E      0.169000
     79 H36        -5.5720   -3.2330    9.7680 ha        1 K2E      0.164500
     80 H37        -3.3420   -2.6090    8.8560 ha        1 K2E      0.136000
     81 H33        -3.3130   -6.2320    6.4750 ha        1 K2E      0.136000
     82 H111        1.9550   -2.3550    4.8940 hn        1 K2E      0.387800
     83 H202       -3.7250   -3.8700    5.3430 hn        1 K2E      0.491300
     84 H34        -5.5500   -6.8390    7.3770 ha        1 K2E      0.164500
@<TRIPOS>BOND
     1    1    2 1   
     2    1    4 1   
     3    1   43 1   
     4    1   44 1   
     5    2    3 1   
     6    3    5 ar  
     7    3    9 ar  
     8    4    5 1   
     9    5    6 ar  
    10    6    7 ar  
    11    6   45 1   
    12    7    8 ar  
    13    7   10 1   
    14    8    9 ar  
    15    8   46 1   
    16    9   47 1   
    17   10   11 1   
    18   10   12 1   
    19   13   14 1   
    20   13   18 1   
    21   13   82 1   
    22   14   15 1   
    23   14   48 1   
    24   14   49 1   
    25   15   16 1   
    26   15   17 1   
    27   15   50 1   
    28   16   23 1   
    29   16   51 1   
    30   16   52 1   
    31   17   20 1   
    32   17   53 1   
    33   17   54 1   
    34   18   19 1   
    35   18   55 1   
    36   18   56 1   
    37   19   21 1   
    38   19   22 1   
    39   19   57 1   
    40   20   58 1   
    41   20   59 1   
    42   20   60 1   
    43   21   61 1   
    44   22   24 1   
    45   22   36 1   
    46   22   62 1   
    47   23   63 1   
    48   23   64 1   
    49   23   65 1   
    50   24   25 1   
    51   24   66 1   
    52   24   83 1   
    53   25   26 2   
    54   25   27 1   
    55   27   28 1   
    56   28   29 1   
    57   28   35 1   
    58   28   67 1   
    59   29   30 1   
    60   29   68 1   
    61   29   69 1   
    62   30   31 1   
    63   31   32 1   
    64   31   35 1   
    65   31   70 1   
    66   32   33 1   
    67   33   34 1   
    68   33   71 1   
    69   33   72 1   
    70   34   35 1   
    71   34   73 1   
    72   34   74 1   
    73   35   75 1   
    74   36   42 1   
    75   36   76 1   
    76   36   77 1   
    77   37   38 ar  
    78   37   42 ar  
    79   37   81 1   
    80   38   39 ar  
    81   38   84 1   
    82   39   40 ar  
    83   39   78 1   
    84   40   41 ar  
    85   40   79 1   
    86   41   42 ar  
    87   41   80 1   
@<TRIPOS>SUBSTRUCTURE
     1 K2E         1 TEMP              0 ****  ****    0 ROOT
