@<TRIPOS>MOLECULE
K2E
   82    80     1     0     0
SMALL
bcc


@<TRIPOS>ATOM
      1 C1          8.3050    1.3050    3.8260 c3        1 K2E      0.097000
      2 O1          7.9020   -0.0360    3.9030 os        1 K2E     -0.209500
      3 C2          6.6360   -0.1530    3.2550 c2        1 K2E      0.032500
      4 O2          7.2970    2.0200    3.1640 os        1 K2E     -0.209500
      5 C3          6.2890    1.0940    2.7650 c2        1 K2E      0.032500
      6 C4          5.1350    1.2430    1.9770 c1        1 K2E     -0.079000
      7 C5          4.3430    0.1380    1.6880 c1        1 K2E     -0.833000
      8 C6          4.6940   -1.1200    2.1820 c1        1 K2E     -0.001000
      9 C7          5.8370   -1.2680    2.9630 c1        1 K2E     -0.079000
     10 S8          2.9780    0.2930    0.5130 s4        1 K2E      2.068800
     11 O9          3.4190    0.8830   -0.7250 o         1 K2E     -0.545900
     12 O10         2.5310   -0.9900    0.0640 o         1 K2E     -0.545900
     13 N11         1.7300    1.1650    1.1880 n2        1 K2E     -0.831000
     14 C12         1.9980    2.4510    1.7970 c3        1 K2E     -0.006000
     15 C13         2.0390    3.5340    0.7110 c3        1 K2E     -0.127000
     16 C14         1.8900    4.9080    1.3570 c3        1 K2E     -0.153500
     17 C15         3.3680    3.4620   -0.0280 c3        1 K2E     -0.153500
     18 C16         0.4090    0.5550    1.3250 c3        1 K2E     -0.062000
     19 C17        -0.0360   -0.0190   -0.0310 c3        1 K2E     -0.029000
     20 C18         3.1740    3.9100   -1.4590 c3        1 K2E     -0.212000
     21 O18         0.7960   -1.0730   -0.3820 oh        1 K2E     -0.343000
     22 C19        -1.4680   -0.5160    0.0740 c3        1 K2E      0.036000
     23 C20         1.1700    5.8380    0.4060 c3        1 K2E     -0.212000
     24 N20        -1.6950   -1.5290   -0.9060 n         1 K2E     -0.314000
     25 C21        -2.9400   -1.5530   -1.6490 c2        1 K2E      0.385000
     26 O22        -3.8030   -0.7240   -1.4180 o         1 K2E     -0.403000
     27 O23        -3.1550   -2.5470   -2.6480 os        1 K2E     -0.272000
     28 C24        -4.3530   -2.4300   -3.2980 c3        1 K2E      0.019000
     29 C25        -4.1900   -1.6330   -4.5410 c3        1 K2E     -0.029000
     30 O26        -4.2770   -2.4990   -5.5100 os        1 K2E     -0.276000
     31 C27        -5.1650   -3.6920   -4.9560 c3        1 K2E      0.139000
     32 O28        -4.8050   -5.0470   -5.6950 os        1 K2E     -0.277000
     33 C29        -3.7010   -5.4650   -5.1610 c3        1 K2E     -0.025000
     34 C30        -3.7040   -4.8970   -3.7800 c3        1 K2E     -0.183000
     35 C31        -4.8580   -3.8400   -3.7750 c3        1 K2E     -0.171000
     36 C32        -1.7060   -1.0870    1.4560 c3        1 K2E     -0.128000
     37 C33        -3.9200   -2.1200    1.9790 c1        1 K2E     -0.122000
     38 C34        -5.2260   -2.0580    2.4380 c1        1 K2E     -0.127750
     39 C35        -5.8000   -0.8310    2.7310 c1        1 K2E     -0.127750
     40 C36        -5.0690    0.3310    2.5670 c1        1 K2E     -0.127750
     41 C37        -3.7590    0.2690    2.1070 c1        1 K2E     -0.127750
     42 C38        -3.1860   -0.9540    1.8140 c1        1 K2E     -0.068000
     43 H1          9.1350    1.3620    3.3080 h2        1 K2E      0.120500
     44 H1A         8.4100    1.6590    4.7290 h2        1 K2E      0.120500
     45 H4          4.8900    2.1230    1.6310 ha        1 K2E      0.174500
     46 H6          4.1400   -1.8930    1.9800 ha        1 K2E      0.163000
     47 H7          6.0840   -2.1520    3.3110 ha        1 K2E      0.174500
     48 H12         2.8610    2.4190    2.2600 h1        1 K2E      0.087500
     49 H12A        1.2890    2.6610    2.4420 h1        1 K2E      0.087500
     50 H13         1.3030    3.3900    0.0770 hc        1 K2E      0.106000
     51 H14         1.3790    4.8260    2.1790 hc        1 K2E      0.077500
     52 H14A        2.7770    5.2710    1.5600 hc        1 K2E      0.077500
     53 H15         4.0190    4.0470    0.4120 hc        1 K2E      0.077500
     54 H15A        3.6960    2.5440   -0.0160 hc        1 K2E      0.077500
     55 H16        -0.2290    1.2260    1.6170 h1        1 K2E      0.113000
     56 H16A        0.4490   -0.1680    1.9890 h1        1 K2E      0.113000
     57 H17         0.0170    0.6780   -0.7130 h1        1 K2E      0.100000
     58 H18         2.2920    3.6320   -1.7700 hc        1 K2E      0.076667
     59 H18A        3.8630    3.5030   -2.0260 hc        1 K2E      0.076667
     60 H18B        3.2450    4.8870   -1.5080 hc        1 K2E      0.076667
     61 HO18        0.9900   -1.0220   -1.2540 ho        1 K2E      0.235000
     62 H19        -2.0800    0.2260   -0.0800 h1        1 K2E      0.124000
     63 H20         1.7610    6.0590   -0.3430 hc        1 K2E      0.076667
     64 H20A        0.9230    6.6540    0.8750 hc        1 K2E      0.076667
     65 H20B        0.3580    5.3960    0.0650 hc        1 K2E      0.076667
     66 HN20       -1.0590   -2.1740   -1.0560 hn        1 K2E      0.244000
     67 H24        -5.0140   -2.0140   -2.7150 h1        1 K2E      0.132000
     68 H25        -3.3120   -1.1950   -4.5520 h1        1 K2E      0.104000
     69 H25A       -4.9040   -0.9680   -4.6140 h1        1 K2E      0.104000
     70 H27        -6.1260   -3.4860   -5.0460 h2        1 K2E      0.140000
     71 H29        -3.6890   -6.4470   -5.1260 h1        1 K2E      0.091000
     72 H29A       -2.9330   -5.1320   -5.6640 h1        1 K2E      0.091000
     73 H30        -3.8850   -5.6020   -3.1210 hc        1 K2E      0.106000
     74 H30A       -2.8480   -4.4640   -3.5890 hc        1 K2E      0.106000
     75 H31        -5.6210   -4.1460   -3.2450 hc        1 K2E      0.124000
     76 H32        -1.4500   -2.0360    1.4650 hc        1 K2E      0.108500
     77 H32A       -1.1690   -0.5990    2.1060 hc        1 K2E      0.108500
     78 H33        -3.5210   -2.9760    1.7740 ha        1 K2E      0.133000
     79 H34        -5.7390   -2.8730    2.5530 ha        1 K2E      0.130500
     80 H35        -6.7140   -0.7880    3.0530 ha        1 K2E      0.130500
     81 H36        -5.4660    1.1800    2.7710 ha        1 K2E      0.130500
     82 H37        -3.2510    1.0770    1.9920 ha        1 K2E      0.130500
@<TRIPOS>BOND
     1    1    2 1   
     2    1    4 1   
     3    1   43 1   
     4    1   44 1   
     5    2    3 1   
     6    3    5 1   
     7    3    9 1   
     8    4    5 1   
     9    5    6 1   
    10    6   45 1   
    11    7    8 1   
    12    7   10 1   
    13    8   46 1   
    14    9   47 1   
    15   10   11 1   
    16   10   12 1   
    17   13   14 1   
    18   13   18 1   
    19   14   15 1   
    20   14   48 1   
    21   14   49 1   
    22   15   16 1   
    23   15   17 1   
    24   15   50 1   
    25   16   23 1   
    26   16   51 1   
    27   16   52 1   
    28   17   20 1   
    29   17   53 1   
    30   17   54 1   
    31   18   19 1   
    32   18   55 1   
    33   18   56 1   
    34   19   21 1   
    35   19   22 1   
    36   19   57 1   
    37   20   58 1   
    38   20   59 1   
    39   20   60 1   
    40   21   61 1   
    41   22   24 1   
    42   22   36 1   
    43   22   62 1   
    44   23   63 1   
    45   23   64 1   
    46   23   65 1   
    47   24   25 1   
    48   24   66 1   
    49   25   26 1   
    50   25   27 1   
    51   27   28 1   
    52   28   29 1   
    53   28   35 1   
    54   28   67 1   
    55   29   30 1   
    56   29   68 1   
    57   29   69 1   
    58   30   31 1   
    59   31   32 1   
    60   31   35 1   
    61   31   70 1   
    62   32   33 1   
    63   33   34 1   
    64   33   71 1   
    65   33   72 1   
    66   34   35 1   
    67   34   73 1   
    68   34   74 1   
    69   35   75 1   
    70   36   42 1   
    71   36   76 1   
    72   36   77 1   
    73   37   42 1   
    74   37   78 1   
    75   38   39 1   
    76   38   79 1   
    77   39   80 1   
    78   40   41 1   
    79   40   81 1   
    80   41   82 1   
@<TRIPOS>SUBSTRUCTURE
     1 K2E         1 TEMP              0 ****  ****    0 ROOT
