@<TRIPOS>MOLECULE
K2E
   82    86     1     0     0
SMALL
bcc


@<TRIPOS>ATOM
      1 C1          0.3030   -4.9910    0.9560 c3        1 K2E      0.316200
      2 O1         -1.1180   -5.2360    0.7960 os        1 K2E     -0.327900
      3 C2         -1.7580   -4.0210    0.9650 ca        1 K2E      0.123100
      4 O2          0.4790   -3.5790    1.2100 os        1 K2E     -0.328900
      5 C3         -0.7920   -3.0080    1.2180 ca        1 K2E      0.029100
      6 C4         -1.1460   -1.6940    1.4270 ca        1 K2E     -0.008000
      7 C5         -2.5260   -1.3900    1.3720 ca        1 K2E     -0.391500
      8 C6         -3.4650   -2.3980    1.1280 ca        1 K2E     -0.014000
      9 C7         -3.1100   -3.7380    0.9180 ca        1 K2E     -0.149000
     10 S8         -3.0550    0.1880    1.6600 sy        1 K2E      1.500200
     11 O9         -4.4100    0.1280    2.0430 o         1 K2E     -0.650300
     12 O10        -2.1910    0.8180    2.5840 o         1 K2E     -0.650300
     13 N11        -2.8890    0.9180    0.1980 n3        1 K2E     -0.791500
     14 C12        -3.5420    0.4470   -0.9970 c3        1 K2E      0.222800
     15 C13        -4.8470    1.1250   -1.4540 c3        1 K2E     -0.073700
     16 C14        -6.0420    0.7500   -0.5900 c3        1 K2E     -0.087400
     17 C15        -4.7460    2.6350   -1.5890 c3        1 K2E     -0.087400
     18 C16        -1.8850    1.9330    0.0210 c3        1 K2E      0.182800
     19 C17        -0.5720    1.4400   -0.6310 c3        1 K2E      0.075100
     20 C18        -3.8960    3.0540   -2.7620 c3        1 K2E     -0.093100
     21 O18        -0.6220    1.5270   -2.0420 oh        1 K2E     -0.593800
     22 C19         0.6470    2.2120   -0.0510 c3        1 K2E      0.065700
     23 C20        -6.5400   -0.6460   -0.8690 c3        1 K2E     -0.093100
     24 N20         1.9130    1.6180   -0.4410 n         1 K2E     -0.499900
     25 C21         2.2560    0.4010    0.1230 c         1 K2E      0.731100
     26 O22         1.7820   -0.1290    1.1420 o         1 K2E     -0.585000
     27 O23         3.2920   -0.2240   -0.5490 os        1 K2E     -0.433900
     28 C24         3.8110   -1.4170    0.0520 c3        1 K2E      0.130100
     29 C25         3.2040   -2.6510   -0.6410 c3        1 K2E      0.100400
     30 O26         4.2540   -3.6060   -0.8090 os        1 K2E     -0.421600
     31 C27         5.5220   -2.9780   -0.6820 c3        1 K2E      0.319900
     32 O28         6.0700   -2.9640   -1.9890 os        1 K2E     -0.420600
     33 C29         6.0950   -1.6260   -2.5040 c3        1 K2E      0.124400
     34 C30         5.8740   -0.6620   -1.3390 c3        1 K2E     -0.102400
     35 C31         5.3250   -1.5160   -0.2020 c3        1 K2E     -0.115700
     36 C32         0.5830    3.6970   -0.4450 c3        1 K2E     -0.040100
     37 C33         2.6040    5.1730   -0.3280 ca        1 K2E     -0.121500
     38 C34         3.4910    5.9710    0.3930 ca        1 K2E     -0.125500
     39 C35         3.3280    6.1340    1.7680 ca        1 K2E     -0.126000
     40 C36         2.2730    5.4970    2.4220 ca        1 K2E     -0.125500
     41 C37         1.3840    4.7000    1.7040 ca        1 K2E     -0.121500
     42 C38         1.5450    4.5310    0.3230 ca        1 K2E     -0.083300
     43 H1          0.6630   -5.5650    1.8450 h2        1 K2E      0.081700
     44 H1A         0.8180   -5.2490   -0.0030 h2        1 K2E      0.081700
     45 H4         -0.3870   -0.9200    1.6450 ha        1 K2E      0.195000
     46 H6         -4.5400   -2.1320    1.1160 ha        1 K2E      0.164000
     47 H7         -3.8630   -4.5150    0.7330 ha        1 K2E      0.164000
     48 H12        -2.8080    0.5210   -1.8550 h1        1 K2E      0.054200
     49 H12A       -3.7760   -0.6500   -0.8450 h1        1 K2E      0.054200
     50 H13        -5.0310    0.7070   -2.4900 hc        1 K2E      0.050700
     51 H14        -5.7820    0.8510    0.4970 hc        1 K2E      0.052950
     52 H14A       -6.8800    1.4700   -0.7920 hc        1 K2E      0.052950
     53 H15        -5.7780    3.0570   -1.7350 hc        1 K2E      0.052950
     54 H15A       -4.3550    3.0830   -0.6390 hc        1 K2E      0.052950
     55 H16        -2.3040    2.7600   -0.6240 h1        1 K2E      0.074200
     56 H16A       -1.6410    2.3770    1.0330 h1        1 K2E      0.074200
     57 H17        -0.4220    0.3360   -0.4370 h1        1 K2E      0.094700
     58 H18        -3.7540    4.1620   -2.7610 hc        1 K2E      0.031033
     59 H18A       -2.8900    2.5670   -2.7270 hc        1 K2E      0.031033
     60 H18B       -4.3840    2.7620   -3.7240 hc        1 K2E      0.031033
     61 HO18       -0.7980    2.4490   -2.2740 ho        1 K2E      0.400000
     62 H19         0.5840    2.1300    1.0790 h1        1 K2E      0.106700
     63 H20        -5.7630   -1.4100   -0.6210 hc        1 K2E      0.031033
     64 H20A       -7.4430   -0.8580   -0.2460 hc        1 K2E      0.031033
     65 H20B       -6.8170   -0.7650   -1.9440 hc        1 K2E      0.031033
     66 HN20        2.2130    1.7770   -1.3780 hn        1 K2E      0.318500
     67 H24         3.5930   -1.4250    1.1540 h1        1 K2E      0.099700
     68 H25         2.4220   -3.1480   -0.0110 h1        1 K2E      0.068700
     69 H25A        2.7900   -2.3880   -1.6470 h1        1 K2E      0.068700
     70 H27         6.1640   -3.6410   -0.0490 h2        1 K2E      0.100700
     71 H29         7.0970   -1.5000   -2.9860 h1        1 K2E      0.051200
     72 H29A        5.2860   -1.5390   -3.2740 h1        1 K2E      0.051200
     73 H30         6.8410   -0.1940   -1.0310 hc        1 K2E      0.066200
     74 H30A        5.1740    0.1590   -1.6280 hc        1 K2E      0.066200
     75 H31         5.8780   -1.3200    0.7480 hc        1 K2E      0.080700
     76 H32         0.7650    3.8110   -1.5480 hc        1 K2E      0.054700
     77 H32A       -0.4610    4.0570   -0.2360 hc        1 K2E      0.054700
     78 H34         4.3220    6.4710   -0.1260 ha        1 K2E      0.134000
     79 H35         4.0290    6.7630    2.3360 ha        1 K2E      0.133000
     80 H36         2.1410    5.6220    3.5070 ha        1 K2E      0.134000
     81 H37         0.5540    4.1980    2.2240 ha        1 K2E      0.132000
     82 H33         2.7410    5.0470   -1.4130 ha        1 K2E      0.132000
@<TRIPOS>BOND
     1    1    2 1   
     2    1    4 1   
     3    1   43 1   
     4    1   44 1   
     5    2    3 1   
     6    3    5 ar  
     7    3    9 ar  
     8    4    5 1   
     9    5    6 ar  
    10    6    7 ar  
    11    6   45 1   
    12    7    8 ar  
    13    7   10 1   
    14    8    9 ar  
    15    8   46 1   
    16    9   47 1   
    17   10   11 2   
    18   10   12 2   
    19   10   13 1   
    20   13   14 1   
    21   13   18 1   
    22   14   15 1   
    23   14   48 1   
    24   14   49 1   
    25   15   16 1   
    26   15   17 1   
    27   15   50 1   
    28   16   23 1   
    29   16   51 1   
    30   16   52 1   
    31   17   20 1   
    32   17   53 1   
    33   17   54 1   
    34   18   19 1   
    35   18   55 1   
    36   18   56 1   
    37   19   21 1   
    38   19   22 1   
    39   19   57 1   
    40   20   58 1   
    41   20   59 1   
    42   20   60 1   
    43   21   61 1   
    44   22   24 1   
    45   22   36 1   
    46   22   62 1   
    47   23   63 1   
    48   23   64 1   
    49   23   65 1   
    50   24   25 1   
    51   24   66 1   
    52   25   26 2   
    53   25   27 1   
    54   27   28 1   
    55   28   29 1   
    56   28   35 1   
    57   28   67 1   
    58   29   30 1   
    59   29   68 1   
    60   29   69 1   
    61   30   31 1   
    62   31   32 1   
    63   31   35 1   
    64   31   70 1   
    65   32   33 1   
    66   33   34 1   
    67   33   71 1   
    68   33   72 1   
    69   34   35 1   
    70   34   73 1   
    71   34   74 1   
    72   35   75 1   
    73   36   42 1   
    74   36   76 1   
    75   36   77 1   
    76   37   38 ar  
    77   37   42 ar  
    78   37   82 1   
    79   38   39 ar  
    80   38   78 1   
    81   39   40 ar  
    82   39   79 1   
    83   40   41 ar  
    84   40   80 1   
    85   41   42 ar  
    86   41   81 1   
@<TRIPOS>SUBSTRUCTURE
     1 K2E         1 TEMP              0 ****  ****    0 ROOT
