@<TRIPOS>MOLECULE
K2E
   84    87     1     0     0
SMALL
bcc


@<TRIPOS>ATOM
      1 C1          2.0030    0.3810   -0.0750 c3        1 K2E      0.319200
      2 O1          2.8340    1.2320    0.7830 os        1 K2E     -0.267900
      3 C2          2.3340    1.1680    2.0410 ca        1 K2E      0.247100
      4 O2          0.9900   -0.2070    0.7830 os        1 K2E     -0.310900
      5 C3          1.1950    0.2890    2.0610 ca        1 K2E      0.030100
      6 C4          0.4850    0.0430    3.1970 ca        1 K2E     -0.006000
      7 C5          0.9100    0.6970    4.4060 ca        1 K2E     -0.644500
      8 C6          2.0510    1.5500    4.3570 ca        1 K2E      0.071000
      9 C7          2.7730    1.8060    3.2010 ca        1 K2E     -0.159000
     10 S8          0.0960    0.5210    5.7060 s4        1 K2E      1.685300
     11 O9          0.4550    1.2440    6.7980 o         1 K2E     -0.450400
     12 O10        -1.1090   -0.1170    5.6370 o         1 K2E     -0.450400
     13 N11         1.0930   -1.4580    6.7230 n3        1 K2E     -0.914200
     14 C12         2.2350   -2.0560    6.0300 c3        1 K2E      0.134800
     15 C13         3.5200   -2.2480    6.8480 c3        1 K2E     -0.089700
     16 C14         4.1400   -0.9250    7.2760 c3        1 K2E     -0.091400
     17 C15         3.3250   -3.1500    8.0570 c3        1 K2E     -0.091400
     18 C16         0.0490   -2.4000    7.1310 c3        1 K2E      0.096800
     19 C17        -0.6850   -3.1080    5.9730 c3        1 K2E      0.126100
     20 C18         3.0340   -4.5820    7.6880 c3        1 K2E     -0.097100
     21 O18        -0.3710   -4.4890    5.9170 oh        1 K2E     -0.618800
     22 C19        -2.2230   -3.0450    6.1850 c3        1 K2E      0.149500
     23 C20         4.7250   -0.1490    6.1240 c3        1 K2E     -0.097100
     24 N20        -2.9360   -3.7790    5.0660 n4        1 K2E     -0.638800
     25 C21        -3.0160   -3.0020    3.8010 c         1 K2E      0.634100
     26 O22        -2.1570   -2.2080    3.4320 o         1 K2E     -0.471000
     27 O23        -4.1480   -3.3030    3.1380 os        1 K2E     -0.386900
     28 C24        -4.3380   -2.6420    1.8460 c3        1 K2E      0.129100
     29 C25        -3.3660   -3.2140    0.7990 c3        1 K2E      0.103400
     30 O26        -4.1060   -3.4120   -0.3970 os        1 K2E     -0.387600
     31 C27        -5.5040   -3.4630   -0.1220 c3        1 K2E      0.323900
     32 O28        -5.8550   -4.8270   -0.2120 os        1 K2E     -0.396600
     33 C29        -6.2850   -5.3300    1.0600 c3        1 K2E      0.121400
     34 C30        -6.4660   -4.1420    2.0060 c3        1 K2E     -0.104400
     35 C31        -5.7480   -2.9750    1.3370 c3        1 K2E     -0.119700
     36 C32        -2.6380   -3.6580    7.5330 c3        1 K2E     -0.055100
     37 C33        -4.7570   -4.9880    7.5180 ca        1 K2E     -0.132000
     38 C34        -6.1340   -5.0910    7.7100 ca        1 K2E     -0.111500
     39 C35        -6.8780   -3.9650    8.0650 ca        1 K2E     -0.090000
     40 C36        -6.2410   -2.7330    8.2290 ca        1 K2E     -0.111500
     41 C37        -4.8640   -2.6270    8.0390 ca        1 K2E     -0.132000
     42 C38        -4.1140   -3.7530    7.6790 ca        1 K2E     -0.177300
     43 H1          1.5080    1.0350   -0.8350 h2        1 K2E      0.123700
     44 H1A         2.6520   -0.4330   -0.4850 h2        1 K2E      0.123700
     45 H4         -0.3980   -0.6230    3.2000 ha        1 K2E      0.192000
     46 H6          2.3720    2.0520    5.2950 ha        1 K2E      0.186000
     47 H7          3.6450    2.4810    3.1930 ha        1 K2E      0.212000
     48 H12         2.4730   -1.3710    5.1630 h1        1 K2E      0.056200
     49 H12A        1.9420   -3.0550    5.6010 h1        1 K2E      0.056200
     50 H13         4.2470   -2.7590    6.1490 hc        1 K2E      0.086700
     51 H14         3.3930   -0.2950    7.8240 hc        1 K2E      0.056700
     52 H14A        4.9670   -1.1430    8.0080 hc        1 K2E      0.056700
     53 H15         2.5130   -2.7490    8.7180 hc        1 K2E      0.056700
     54 H15A        4.2700   -3.1300    8.6680 hc        1 K2E      0.056700
     55 H16         0.4670   -3.2030    7.8110 h1        1 K2E      0.092700
     56 H16A       -0.6970   -1.7960    7.7260 h1        1 K2E      0.092700
     57 H17        -0.4380   -2.6240    4.9820 h1        1 K2E      0.065700
     58 H18         3.8150   -4.9820    6.9970 hc        1 K2E      0.039033
     59 H18A        2.0390   -4.6780    7.1880 hc        1 K2E      0.039033
     60 H18B        3.0220   -5.2180    8.6070 hc        1 K2E      0.039033
     61 HO18        0.5830   -4.5880    5.7940 ho        1 K2E      0.449000
     62 H19        -2.5400   -1.9590    6.1280 hx        1 K2E      0.134700
     63 H20         5.2720    0.7470    6.5090 hc        1 K2E      0.039033
     64 H20A        5.4480   -0.7760    5.5470 hc        1 K2E      0.039033
     65 H20B        3.9290    0.2040    5.4230 hc        1 K2E      0.039033
     66 HN20       -3.8960   -4.0190    5.3840 hn        1 K2E      0.494300
     67 H24        -4.1950   -1.5430    2.0110 h1        1 K2E      0.093700
     68 H25        -2.9430   -4.1950    1.1400 h1        1 K2E      0.068700
     69 H25A       -2.5420   -2.4980    0.5470 h1        1 K2E      0.068700
     70 H27        -6.0210   -2.9030   -0.9440 h2        1 K2E      0.134700
     71 H29        -5.5010   -6.0410    1.4260 h1        1 K2E      0.066700
     72 H29A       -7.2410   -5.8810    0.8690 h1        1 K2E      0.066700
     73 H30        -7.5540   -3.8970    2.1160 hc        1 K2E      0.067700
     74 H30A       -6.0710   -4.3740    3.0220 hc        1 K2E      0.067700
     75 H31        -6.3760   -2.0500    1.3580 hc        1 K2E      0.104700
     76 H32        -2.1580   -4.6700    7.6440 hc        1 K2E      0.096700
     77 H32A       -2.2240   -3.0020    8.3460 hc        1 K2E      0.096700
     78 H35        -7.9640   -4.0510    8.2310 ha        1 K2E      0.166000
     79 H36        -6.8250   -1.8470    8.5270 ha        1 K2E      0.161500
     80 H37        -4.3640   -1.6590    8.1960 ha        1 K2E      0.136000
     81 H33        -4.1710   -5.8920    7.2860 ha        1 K2E      0.136000
     82 H111        1.4330   -1.0140    7.5720 hn        1 K2E      0.414800
     83 H202       -2.4260   -4.6580    4.8770 hn        1 K2E      0.494300
     84 H34        -6.6320   -6.0690    7.6010 ha        1 K2E      0.161500
@<TRIPOS>BOND
     1    1    2 1   
     2    1    4 1   
     3    1   43 1   
     4    1   44 1   
     5    2    3 1   
     6    3    5 ar  
     7    3    9 ar  
     8    4    5 1   
     9    5    6 ar  
    10    6    7 ar  
    11    6   45 1   
    12    7    8 ar  
    13    7   10 1   
    14    8    9 ar  
    15    8   46 1   
    16    9   47 1   
    17   10   11 1   
    18   10   12 1   
    19   13   14 1   
    20   13   18 1   
    21   13   82 1   
    22   14   15 1   
    23   14   48 1   
    24   14   49 1   
    25   15   16 1   
    26   15   17 1   
    27   15   50 1   
    28   16   23 1   
    29   16   51 1   
    30   16   52 1   
    31   17   20 1   
    32   17   53 1   
    33   17   54 1   
    34   18   19 1   
    35   18   55 1   
    36   18   56 1   
    37   19   21 1   
    38   19   22 1   
    39   19   57 1   
    40   20   58 1   
    41   20   59 1   
    42   20   60 1   
    43   21   61 1   
    44   22   24 1   
    45   22   36 1   
    46   22   62 1   
    47   23   63 1   
    48   23   64 1   
    49   23   65 1   
    50   24   25 1   
    51   24   66 1   
    52   24   83 1   
    53   25   26 2   
    54   25   27 1   
    55   27   28 1   
    56   28   29 1   
    57   28   35 1   
    58   28   67 1   
    59   29   30 1   
    60   29   68 1   
    61   29   69 1   
    62   30   31 1   
    63   31   32 1   
    64   31   35 1   
    65   31   70 1   
    66   32   33 1   
    67   33   34 1   
    68   33   71 1   
    69   33   72 1   
    70   34   35 1   
    71   34   73 1   
    72   34   74 1   
    73   35   75 1   
    74   36   42 1   
    75   36   76 1   
    76   36   77 1   
    77   37   38 ar  
    78   37   42 ar  
    79   37   81 1   
    80   38   39 ar  
    81   38   84 1   
    82   39   40 ar  
    83   39   78 1   
    84   40   41 ar  
    85   40   79 1   
    86   41   42 ar  
    87   41   80 1   
@<TRIPOS>SUBSTRUCTURE
     1 K2E         1 TEMP              0 ****  ****    0 ROOT
