@<TRIPOS>MOLECULE
K2E
   84    87     1     0     0
SMALL
bcc


@<TRIPOS>ATOM
      1 C1          2.6520    0.7660   -0.4190 c3        1 K2E      0.318200
      2 O1          3.3680    1.4890    0.6370 os        1 K2E     -0.269900
      3 C2          2.6570    1.3600    1.7830 ca        1 K2E      0.244100
      4 O2          1.4740    0.1880    0.2000 os        1 K2E     -0.309900
      5 C3          1.4850    0.5660    1.5360 ca        1 K2E      0.027100
      6 C4          0.5770    0.2770    2.5120 ca        1 K2E      0.003000
      7 C5          0.8230    0.8060    3.8260 ca        1 K2E     -0.640500
      8 C6          2.0060    1.5710    4.0470 ca        1 K2E      0.067000
      9 C7          2.9280    1.8680    3.0540 ca        1 K2E     -0.158000
     10 S8         -0.2150    0.6070    4.9520 s4        1 K2E      1.685300
     11 O9          0.0300    1.1850    6.1590 o         1 K2E     -0.454900
     12 O10        -1.4650    0.1680    4.6270 o         1 K2E     -0.454900
     13 N11         0.3960   -1.5370    5.9030 n7        1 K2E     -0.907200
     14 C12         1.1860   -2.4120    5.0360 c3        1 K2E      0.128800
     15 C13         2.4540   -3.0400    5.6320 c3        1 K2E     -0.089700
     16 C14         3.4940   -2.0080    6.0410 c3        1 K2E     -0.088900
     17 C15         2.1690   -3.9730    6.8000 c3        1 K2E     -0.088900
     18 C16        -0.7240   -2.1770    6.5970 c3        1 K2E      0.105800
     19 C17        -1.8960   -2.6560    5.7150 c3        1 K2E      0.118100
     20 C18         1.3690   -5.1870    6.4070 c3        1 K2E     -0.103100
     21 O18        -1.6770   -3.9870    5.2820 oh        1 K2E     -0.620800
     22 C19        -3.1920   -2.6750    6.5780 c3        1 K2E      0.134500
     23 C20         4.0740   -1.2540    4.8730 c3        1 K2E     -0.103100
     24 N20        -4.3270   -3.3240    5.8140 ny        1 K2E     -0.637800
     25 C21        -4.7180   -2.5300    4.6160 c         1 K2E      0.619100
     26 O22        -5.2940   -1.4550    4.6750 o         1 K2E     -0.407000
     27 O23        -4.3730   -3.1970    3.4950 os        1 K2E     -0.408900
     28 C24        -4.2730   -2.4330    2.2520 c3        1 K2E      0.141100
     29 C25        -3.2740   -1.2790    2.4130 c3        1 K2E      0.082400
     30 O26        -1.9660   -1.8310    2.2070 os        1 K2E     -0.450600
     31 C27        -2.0740   -3.0060    1.4030 c3        1 K2E      0.321900
     32 O28        -1.4660   -4.0090    2.2050 os        1 K2E     -0.452600
     33 C29        -2.2900   -5.1930    2.2110 c3        1 K2E      0.123400
     34 C30        -3.6300   -4.8620    1.5530 c3        1 K2E     -0.101400
     35 C31        -3.5760   -3.3730    1.2490 c3        1 K2E     -0.113700
     36 C32        -2.9880   -3.4230    7.9060 c3        1 K2E     -0.053100
     37 C33        -4.9360   -4.8780    8.5000 ca        1 K2E     -0.133500
     38 C34        -6.1120   -5.1130    9.2100 ca        1 K2E     -0.110000
     39 C35        -6.6310   -4.1260   10.0500 ca        1 K2E     -0.089000
     40 C36        -5.9690   -2.9050   10.1820 ca        1 K2E     -0.110000
     41 C37        -4.7910   -2.6670    9.4740 ca        1 K2E     -0.133500
     42 C38        -4.2690   -3.6510    8.6270 ca        1 K2E     -0.177300
     43 H1          2.3340    1.5090   -1.1920 h2        1 K2E      0.121200
     44 H1A         3.3150   -0.0580   -0.7840 h2        1 K2E      0.121200
     45 H4         -0.3230   -0.3340    2.3080 ha        1 K2E      0.204000
     46 H6          2.1950    1.9640    5.0680 ha        1 K2E      0.183000
     47 H7          3.8260    2.4760    3.2520 ha        1 K2E      0.209000
     48 H12         1.4960   -1.7780    4.1530 h1        1 K2E      0.067200
     49 H12A        0.5380   -3.2470    4.6480 h1        1 K2E      0.067200
     50 H13         2.8950   -3.6610    4.7970 hc        1 K2E      0.084700
     51 H14         4.3330   -2.5470    6.5640 hc        1 K2E      0.053200
     52 H14A        3.0700   -1.2900    6.7900 hc        1 K2E      0.053200
     53 H15         1.6530   -3.4130    7.6230 hc        1 K2E      0.053200
     54 H15A        3.1540   -4.3180    7.2210 hc        1 K2E      0.053200
     55 H16        -0.3680   -3.0780    7.1820 h1        1 K2E      0.087700
     56 H16A       -1.1220   -1.4100    7.3250 h1        1 K2E      0.087700
     57 H17        -2.0550   -1.9740    4.8290 h1        1 K2E      0.087700
     58 H18         1.8720   -5.7390    5.5760 hc        1 K2E      0.040700
     59 H18A        1.2780   -5.8800    7.2800 hc        1 K2E      0.040700
     60 H18B        0.3390   -4.9100    6.0720 hc        1 K2E      0.040700
     61 HO18       -1.3260   -3.9550    4.3760 ho        1 K2E      0.459000
     62 H19        -3.5100   -1.6090    6.7800 hx        1 K2E      0.119700
     63 H20         4.4190   -1.9580    4.0770 hc        1 K2E      0.040700
     64 H20A        4.9520   -0.6490    5.2080 hc        1 K2E      0.040700
     65 H20B        3.3220   -0.5570    4.4260 hc        1 K2E      0.040700
     66 HN20       -4.0140   -4.2640    5.5190 hn        1 K2E      0.492300
     67 H24        -5.3030   -2.1120    1.9620 h1        1 K2E      0.123700
     68 H25        -3.4620   -0.4980    1.6290 h1        1 K2E      0.091700
     69 H25A       -3.2640   -0.8070    3.4290 h1        1 K2E      0.091700
     70 H27        -1.4880   -2.8590    0.4620 h2        1 K2E      0.117700
     71 H29        -2.4060   -5.4860    3.2860 h1        1 K2E      0.066700
     72 H29A       -1.7270   -5.9860    1.6550 h1        1 K2E      0.066700
     73 H30        -4.4870   -5.1250    2.2200 hc        1 K2E      0.084200
     74 H30A       -3.7530   -5.4440    0.6030 hc        1 K2E      0.084200
     75 H31        -3.9640   -3.1440    0.2250 hc        1 K2E      0.119700
     76 H32        -2.4650   -4.3980    7.7050 hc        1 K2E      0.095200
     77 H32A       -2.3050   -2.7970    8.5440 hc        1 K2E      0.095200
     78 H35        -7.5560   -4.3170   10.6190 ha        1 K2E      0.166000
     79 H36        -6.3700   -2.1300   10.8560 ha        1 K2E      0.162000
     80 H37        -4.2620   -1.7090    9.6010 ha        1 K2E      0.135000
     81 H33        -4.5060   -5.6780    7.8780 ha        1 K2E      0.135000
     82 H111        1.0090   -1.1860    6.6350 hn        1 K2E      0.404800
     83 H202       -5.1400   -3.4150    6.4500 hn        1 K2E      0.492300
     84 H34        -6.6230   -6.0850    9.1210 ha        1 K2E      0.162000
@<TRIPOS>BOND
     1    1    2 1   
     2    1    4 1   
     3    1   43 1   
     4    1   44 1   
     5    2    3 1   
     6    3    5 ar  
     7    3    9 ar  
     8    4    5 1   
     9    5    6 ar  
    10    6    7 ar  
    11    6   45 1   
    12    7    8 ar  
    13    7   10 1   
    14    8    9 ar  
    15    8   46 1   
    16    9   47 1   
    17   10   11 1   
    18   10   12 1   
    19   13   14 1   
    20   13   18 1   
    21   13   82 1   
    22   14   15 1   
    23   14   48 1   
    24   14   49 1   
    25   15   16 1   
    26   15   17 1   
    27   15   50 1   
    28   16   23 1   
    29   16   51 1   
    30   16   52 1   
    31   17   20 1   
    32   17   53 1   
    33   17   54 1   
    34   18   19 1   
    35   18   55 1   
    36   18   56 1   
    37   19   21 1   
    38   19   22 1   
    39   19   57 1   
    40   20   58 1   
    41   20   59 1   
    42   20   60 1   
    43   21   61 1   
    44   22   24 1   
    45   22   36 1   
    46   22   62 1   
    47   23   63 1   
    48   23   64 1   
    49   23   65 1   
    50   24   25 1   
    51   24   66 1   
    52   24   83 1   
    53   25   26 2   
    54   25   27 1   
    55   27   28 1   
    56   28   29 1   
    57   28   35 1   
    58   28   67 1   
    59   29   30 1   
    60   29   68 1   
    61   29   69 1   
    62   30   31 1   
    63   31   32 1   
    64   31   35 1   
    65   31   70 1   
    66   32   33 1   
    67   33   34 1   
    68   33   71 1   
    69   33   72 1   
    70   34   35 1   
    71   34   73 1   
    72   34   74 1   
    73   35   75 1   
    74   36   42 1   
    75   36   76 1   
    76   36   77 1   
    77   37   38 ar  
    78   37   42 ar  
    79   37   81 1   
    80   38   39 ar  
    81   38   84 1   
    82   39   40 ar  
    83   39   78 1   
    84   40   41 ar  
    85   40   79 1   
    86   41   42 ar  
    87   41   80 1   
@<TRIPOS>SUBSTRUCTURE
     1 K2E         1 TEMP              0 ****  ****    0 ROOT
