@<TRIPOS>MOLECULE
K2N
   43    38     1     0     0
SMALL
bcc


@<TRIPOS>ATOM
      1 CAA        -7.9020    1.7200   -2.2820 c3        1 K2N     -0.220000
      2 CAB         2.1250   -1.9560    3.0590 c3        1 K2N     -0.245000
      3 NAC         0.4790    0.1260   -2.6960 n3        1 K2N     -0.344000
      4 OAD        -3.7390    1.0150   -2.4890 o         1 K2N     -0.340000
      5 CAE         6.7820   -0.1350    0.6040 c1        1 K2N     -0.126750
      6 CAF         5.9910    0.9720    0.8800 c1        1 K2N     -0.126750
      7 CAG         6.2060   -1.3780    0.4640 c1        1 K2N     -0.126750
      8 CAH         4.6210    0.8270    1.0140 c1        1 K2N     -0.126750
      9 CAI         4.8280   -1.5260    0.5990 c1        1 K2N     -0.101000
     10 CAJ        -1.7220   -0.4380    0.8380 c1        1 K2N     -0.352000
     11 CAK        -6.3430    1.7710   -2.3040 c3        1 K2N      0.002000
     12 NAL         1.7740   -0.6310   -0.2870 n1        1 K2N     -0.084000
     13 NAM        -1.6300    0.0660   -1.4920 n1        1 K2N     -0.261000
     14 NAN        -3.7710    0.0410   -0.3680 n         1 K2N     -0.300000
     15 NAO         0.3540   -0.4810    2.1720 n3        1 K2N     -0.285000
     16 OAP        -5.8130    0.5920   -1.6560 os        1 K2N     -0.301000
     17 CAQ        -4.4190    0.5670   -1.5700 c2        1 K2N      0.407000
     18 CAR         2.5130   -0.6450    0.9160 c1        1 K2N     -0.030000
     19 CAS         4.0380   -0.4260    0.8730 c1        1 K2N     -0.037000
     20 CAT        -0.2790   -0.0590   -1.4720 c1        1 K2N      0.248000
     21 CAU        -2.3620   -0.1220   -0.3410 c1        1 K2N      0.228000
     22 CAV        -0.3200   -0.5680    0.8600 c2        1 K2N      0.159000
     23 CAW         0.3850   -0.3830   -0.2690 c1        1 K2N     -0.244000
     24 CAX         1.7850   -0.6500    2.2640 c3        1 K2N      0.015000
     25 HAA        -8.2540    2.4770   -2.7550 hc        1 K2N      0.087667
     26 HAAA       -8.2160    1.7390   -1.3630 hc        1 K2N      0.087667
     27 H3         -8.2110    0.8830   -2.7220 hc        1 K2N      0.087667
     28 HAB         1.2730   -2.3690    3.4090 hc        1 K2N      0.088000
     29 HABA        2.5740   -2.5890    2.4670 hc        1 K2N      0.088000
     30 HABB        2.7430   -1.7280    3.8460 hc        1 K2N      0.088000
     31 HNAC        1.3910   -0.0500   -2.7100 hn        1 K2N      0.238500
     32 HNAA        0.0550    0.4590   -3.4620 hn        1 K2N      0.238500
     33 HAE         7.7390   -0.0330    0.5100 ha        1 K2N      0.134000
     34 HAF         6.4080    1.8650    0.9800 ha        1 K2N      0.134000
     35 HAG         6.7920   -2.1940    0.2590 ha        1 K2N      0.134000
     36 HAH         4.0430    1.6380    1.2150 ha        1 K2N      0.134000
     37 HAJ        -2.2600   -0.5780    1.6910 ha        1 K2N      0.142000
     38 HNAN       -4.2850   -0.1150    0.4200 hn        1 K2N      0.255000
     39 HNAO        0.1120    0.2980    2.5880 hn        1 K2N      0.211000
     40 HAX         2.1650    0.0250    2.8530 h1        1 K2N      0.109000
     41 HAI         4.4220   -2.4030    0.5000 ha        1 K2N      0.144000
     42 HAK        -6.0370    1.8000   -3.2160 h1        1 K2N      0.094000
     43 H19        -6.0330    2.5770   -1.8270 h1        1 K2N      0.094000
@<TRIPOS>BOND
     1    1   11 1   
     2    1   25 1   
     3    1   26 1   
     4    1   27 1   
     5    2   24 1   
     6    2   28 1   
     7    2   29 1   
     8    2   30 1   
     9    3   20 1   
    10    3   31 1   
    11    3   32 1   
    12    4   17 1   
    13    5    7 1   
    14    5   33 1   
    15    6    8 1   
    16    6   34 1   
    17    7   35 1   
    18    8   36 1   
    19    9   19 1   
    20    9   41 1   
    21   10   22 1   
    22   10   37 1   
    23   11   16 1   
    24   11   42 1   
    25   11   43 1   
    26   12   18 1   
    27   13   21 1   
    28   14   17 1   
    29   14   21 1   
    30   14   38 1   
    31   15   22 1   
    32   15   24 1   
    33   15   39 1   
    34   16   17 1   
    35   18   24 1   
    36   20   23 1   
    37   22   23 1   
    38   24   40 1   
@<TRIPOS>SUBSTRUCTURE
     1 K2N         1 TEMP              0 ****  ****    0 ROOT
