@<TRIPOS>MOLECULE
K2N
   43    45     1     0     0
SMALL
bcc


@<TRIPOS>ATOM
      1 CAA         8.2460   -0.3710   -0.2670 c3        1 K2N     -0.102100
      2 CAB        -2.8200   -1.9890    1.7520 c3        1 K2N     -0.127100
      3 OAD         4.7330    1.6020    0.3290 o         1 K2N     -0.529000
      4 CAE        -6.8590    0.6520   -0.2720 ca        1 K2N     -0.123000
      5 CAF        -6.3000   -0.3470   -1.0690 ca        1 K2N     -0.134500
      6 CAG        -6.0520    1.3720    0.6080 ca        1 K2N     -0.134500
      7 CAH        -4.9380   -0.6330   -0.9830 ca        1 K2N     -0.108000
      8 CAI        -4.6890    1.0940    0.6970 ca        1 K2N     -0.108000
      9 CAJ         1.3580   -1.2700    0.1740 ca        1 K2N     -0.417300
     10 CAK         7.0750    0.5500   -0.0220 c3        1 K2N      0.152400
     11 NAL        -1.7990    0.7140   -0.1650 ne        1 K2N     -0.511100
     12 NAM         1.9150    1.0970   -0.1280 nb        1 K2N     -0.787000
     13 NAN         3.6510   -0.5220    0.1360 n         1 K2N     -0.533400
     14 NAO        -0.9620   -2.0020    0.0750 nh        1 K2N     -0.729600
     15 OAP         5.9010   -0.2820   -0.0760 os        1 K2N     -0.462900
     16 CAQ         4.7040    0.3830    0.1360 c         1 K2N      0.753100
     17 CAR        -2.6870   -0.2200    0.0050 cf        1 K2N      0.416900
     18 CAS        -4.1280    0.0820   -0.0920 ca        1 K2N     -0.120900
     19 CAT         0.5760    1.3970   -0.1650 ca        1 K2N      0.769200
     20 CAU         2.2830   -0.1950    0.0570 ca        1 K2N      0.636200
     21 CAV        -0.0150   -0.9810    0.0880 ca        1 K2N      0.240600
     22 CAW        -0.4430    0.3750   -0.0750 ca        1 K2N     -0.169900
     23 CAX        -2.3580   -1.6790    0.3260 c3        1 K2N      0.137200
     24 HAA         8.2930   -1.1650    0.5160 hc        1 K2N      0.048367
     25 HAAA        8.1560   -0.8650   -1.2640 hc        1 K2N      0.048367
     26 H3          9.1880    0.2280   -0.2390 hc        1 K2N      0.048367
     27 HAB        -2.2610   -1.3760    2.4990 hc        1 K2N      0.048700
     28 HABA       -3.9080   -1.7540    1.8410 hc        1 K2N      0.048700
     29 HABB       -2.6680   -3.0690    1.9880 hc        1 K2N      0.048700
     30 HNAC        0.9380    3.4020   -0.4210 hn        1 K2N      0.443300
     31 HNAA       -0.7040    2.9590   -0.4820 hn        1 K2N      0.443300
     32 HAF        -6.9330   -0.9090   -1.7710 ha        1 K2N      0.133500
     33 HAG        -6.4900    2.1660    1.2320 ha        1 K2N      0.133500
     34 HAH        -4.5000   -1.4110   -1.6260 ha        1 K2N      0.140000
     35 HAJ         1.7050   -2.3010    0.3200 ha        1 K2N      0.142000
     36 HNAN        3.8820   -1.4840    0.0100 hn        1 K2N      0.341500
     37 HNAO       -0.6660   -2.8660    0.4770 hn        1 K2N      0.415800
     38 HAX        -2.9500   -2.3370   -0.3840 h1        1 K2N      0.069700
     39 HAI        -4.0510    1.6710    1.3840 ha        1 K2N      0.140000
     40 HAK         7.1250    1.0370    0.9860 h1        1 K2N      0.054700
     41 H19         6.9890    1.3430   -0.8100 h1        1 K2N      0.054700
     42 NAC         0.2310    2.7270   -0.2520 nh        1 K2N     -0.946500
     43 HAE        -7.9340    0.8740   -0.3420 ha        1 K2N      0.133000
@<TRIPOS>BOND
     1    1   10 1   
     2    1   24 1   
     3    1   25 1   
     4    1   26 1   
     5    2   23 1   
     6    2   27 1   
     7    2   28 1   
     8    2   29 1   
     9    3   16 2   
    10    4    5 ar  
    11    4    6 ar  
    12    4   43 1   
    13    5    7 ar  
    14    5   32 1   
    15    6    8 ar  
    16    6   33 1   
    17    7   18 ar  
    18    7   34 1   
    19    8   18 ar  
    20    8   39 1   
    21    9   20 ar  
    22    9   21 ar  
    23    9   35 1   
    24   10   15 1   
    25   10   40 1   
    26   10   41 1   
    27   11   17 2   
    28   11   22 1   
    29   12   19 ar  
    30   12   20 ar  
    31   13   16 1   
    32   13   20 1   
    33   13   36 1   
    34   14   21 1   
    35   14   23 1   
    36   14   37 1   
    37   15   16 1   
    38   17   18 1   
    39   17   23 1   
    40   19   22 ar  
    41   19   42 1   
    42   21   22 ar  
    43   23   38 1   
    44   30   42 1   
    45   31   42 1   
@<TRIPOS>SUBSTRUCTURE
     1 K2N         1 TEMP              0 ****  ****    0 ROOT
