@<TRIPOS>MOLECULE
K2N
   43    43     1     0     0
SMALL
bcc


@<TRIPOS>ATOM
      1 CAA         0.6470   -0.7820   -0.3330 c3        1 K2N     -0.221000
      2 CAB         9.0650   -2.4290    6.8450 c3        1 K2N     -0.126000
      3 OAD         3.5790   -1.5890    2.3790 o         1 K2N     -0.399000
      4 CAE        12.0790   -2.9830    3.2000 c1        1 K2N     -0.189000
      5 CAF        12.1040   -2.2480    4.1460 c1        1 K2N     -0.141000
      6 CAG        12.8180    0.9230    2.5670 c2        1 K2N     -0.536000
      7 CAH        12.1580   -1.4020    5.2640 c2        1 K2N     -0.065000
      8 CAI        11.7870    1.6390    2.2260 c1        1 K2N      0.148000
      9 CAJ         5.9120   -0.4420    3.6110 c2        1 K2N     -0.213000
     10 CAK         1.6160   -1.2790    0.7130 c3        1 K2N      0.001000
     11 NAL         9.5460    0.2690    4.1970 n2        1 K2N     -0.290000
     12 NAM         6.6620    1.3340    2.1120 n2        1 K2N     -0.254000
     13 NAN         4.3990    0.6130    1.9940 n         1 K2N     -0.263000
     14 NAO         7.4600   -1.4840    5.2150 n4        1 K2N      0.162000
     15 OAP         2.6060   -0.2420    0.8550 os        1 K2N     -0.286000
     16 CAQ         3.5840   -0.4920    1.7970 c2        1 K2N      0.391000
     17 CAR         9.7760   -0.6270    5.1810 c2        1 K2N      0.147000
     18 CAS        11.1400   -0.6790    5.7500 c2        1 K2N     -0.077000
     19 CAT         7.8840    1.3200    2.6800 c2        1 K2N      0.173000
     20 CAU         5.6890    0.4760    2.5830 c2        1 K2N      0.110000
     21 CAV         7.2150   -0.5020    4.1630 c2        1 K2N     -0.200000
     22 CAW         8.2600    0.3370    3.7250 c2        1 K2N      0.040000
     23 CAX         8.8170   -1.4820    5.7380 c2        1 K2N     -0.442000
     24 HAA         1.1720   -0.5970   -1.3000 hc        1 K2N      0.089000
     25 HAAA        0.1700    0.1730   -0.0040 hc        1 K2N      0.089000
     26 H3         -0.1450   -1.5530   -0.4870 hc        1 K2N      0.089000
     27 HAB         8.8970   -3.4890    6.5240 hc        1 K2N      0.072667
     28 HABA        8.3960   -2.2210    7.7200 hc        1 K2N      0.072667
     29 HABB       10.1250   -2.3360    7.1890 hc        1 K2N      0.072667
     30 HNAC        9.7600    2.1270    2.5030 hn        1 K2N      0.235000
     31 HNAA        8.5950    2.8260    1.4990 hn        1 K2N      0.235000
     32 HAF        13.1430   -1.3670    5.7690 ha        1 K2N      0.139000
     33 HAG        13.8450    1.0600    2.2020 ha        1 K2N      0.198000
     34 HAH        12.7140    0.0830    3.2840 ha        1 K2N      0.198000
     35 HAJ         5.1110   -1.1090    3.9610 ha        1 K2N      0.167000
     36 HNAN        4.2840    1.3620    1.3400 hn        1 K2N      0.254000
     37 HNAO        7.2460   -2.4200    4.8460 hn        1 K2N      0.196000
     38 HAX         6.8050   -1.3060    5.9880 hn        1 K2N      0.196000
     39 HAI        11.2760   -0.0390    6.6390 ha        1 K2N      0.145000
     40 HAK         1.1200   -1.4430    1.7040 h1        1 K2N      0.093000
     41 H19         2.1300   -2.2240    0.3960 h1        1 K2N      0.093000
     42 NAC         8.7910    2.3030    2.3210 nh        1 K2N     -0.328000
     43 HAE        12.0560   -3.6290    2.3600 ha        1 K2N      0.225000
@<TRIPOS>BOND
     1    1   10 1   
     2    1   24 1   
     3    1   25 1   
     4    1   26 1   
     5    2   23 1   
     6    2   27 1   
     7    2   28 1   
     8    2   29 1   
     9    3   16 1   
    10    4    5 1   
    11    4   43 1   
    12    5    7 1   
    13    6    8 1   
    14    6   33 1   
    15    6   34 1   
    16    7   18 1   
    17    7   32 1   
    18    9   20 1   
    19    9   21 1   
    20    9   35 1   
    21   10   15 1   
    22   10   40 1   
    23   10   41 1   
    24   11   17 1   
    25   11   22 1   
    26   12   19 1   
    27   12   20 1   
    28   13   16 1   
    29   13   20 1   
    30   13   36 1   
    31   14   21 1   
    32   14   23 1   
    33   14   37 1   
    34   14   38 1   
    35   15   16 1   
    36   17   18 1   
    37   17   23 1   
    38   18   39 1   
    39   19   22 1   
    40   19   42 1   
    41   21   22 1   
    42   30   42 1   
    43   31   42 1   
@<TRIPOS>SUBSTRUCTURE
     1 K2N         1 TEMP              0 ****  ****    0 ROOT
