@<TRIPOS>MOLECULE
K2N
   45    46     1     0     0
SMALL
bcc


@<TRIPOS>ATOM
      1 CAA         1.6360   -1.0850   -0.8030 c3        1 K2N     -0.237000
      2 CAB         9.0890   -2.1230    7.4180 c3        1 K2N     -0.184000
      3 OAD         3.3640   -1.5110    2.9880 o         1 K2N     -0.255000
      4 CAE        11.6530   -1.0150    2.8410 c1        1 K2N      0.173000
      5 CAF        12.4430   -1.1660    3.8590 c2        1 K2N     -0.059000
      6 CAG        10.9130   -0.9570    1.7060 c2        1 K2N     -0.201000
      7 CAH        12.2640   -0.8110    5.2490 c2        1 K2N     -0.108000
      8 CAI        10.8750    0.1540    0.9010 c2        1 K2N      0.161000
      9 CAJ         5.7550   -0.3310    4.2410 c2        1 K2N     -0.035000
     10 CAK         2.1620   -1.5410    0.5300 c3        1 K2N      0.011000
     11 NAL         9.4630    0.0310    4.2760 n2        1 K2N     -0.294000
     12 NAM         6.4830    1.1710    2.4420 n2        1 K2N     -0.159000
     13 NAN         4.1200    0.7450    2.7010 n4        1 K2N      0.006000
     14 NAO         7.3970   -1.3650    5.7660 n4        1 K2N      0.122000
     15 OAP         2.9160   -0.3830    1.0440 os        1 K2N     -0.238000
     16 CAQ         3.4350   -0.5210    2.2710 c2        1 K2N      0.344000
     17 CAR         9.7450   -0.6740    5.4320 c2        1 K2N      0.094000
     18 CAS        11.1280   -0.6170    5.9310 c2        1 K2N     -0.050000
     19 CAT         7.7580    1.0120    2.7920 c2        1 K2N      0.103000
     20 CAU         5.5060    0.5020    3.1510 c2        1 K2N     -0.153000
     21 CAV         7.0950   -0.5000    4.6300 c2        1 K2N     -0.286000
     22 CAW         8.1730    0.1510    3.9390 c2        1 K2N      0.119000
     23 CAX         8.8060   -1.3630    6.1750 c2        1 K2N     -0.258000
     24 HAA         2.4700   -0.8110   -1.4930 hc        1 K2N      0.118667
     25 HAAA        1.0550   -1.9300   -1.2540 hc        1 K2N      0.118667
     26 H3          0.9610   -0.2030   -0.6900 hc        1 K2N      0.118667
     27 HAB         8.5800   -3.1220    7.4210 hc        1 K2N      0.114667
     28 HABA        8.7520   -1.5490    8.3190 hc        1 K2N      0.114667
     29 HABB       10.1880   -2.3100    7.5120 hc        1 K2N      0.114667
     30 HNAC       10.2520    0.1720   -0.0110 ha        1 K2N      0.168000
     31 HNAA        9.4590    2.0710    2.6260 hn        1 K2N      0.209000
     32 HAG        11.4580    1.0670    1.1180 ha        1 K2N      0.168000
     33 HAH        13.2270   -0.7210    5.7960 ha        1 K2N      0.183000
     34 HAJ         4.9330   -0.8530    4.7630 ha        1 K2N      0.175000
     35 HNAN        3.5920    1.1440    3.4890 hn        1 K2N      0.283000
     36 HNAO        7.1300   -2.3330    5.5290 hn        1 K2N      0.233500
     37 HAX         6.8300   -1.0720    6.5750 hn        1 K2N      0.233500
     38 HAI        11.1930   -0.3650    7.0110 ha        1 K2N      0.180000
     39 HAK         1.3510   -1.7720    1.2670 h1        1 K2N      0.120500
     40 H19         2.8810   -2.3960    0.4520 h1        1 K2N      0.120500
     41 HAE        10.3010   -1.8480    1.4440 ha        1 K2N      0.194000
     42 HAN2        4.1110    1.4160    1.9130 hn        1 K2N      0.283000
     43 HAC3        8.4270    2.2800    1.3460 hn        1 K2N      0.209000
     44 NAC         8.7750    1.6360    2.0330 nh        1 K2N     -0.312000
     45 HAF        13.4470   -1.6230    3.6320 ha        1 K2N      0.240000
@<TRIPOS>BOND
     1    1   10 1   
     2    1   24 1   
     3    1   25 1   
     4    1   26 1   
     5    2   23 1   
     6    2   27 1   
     7    2   28 1   
     8    2   29 1   
     9    3   16 1   
    10    4    5 1   
    11    4    6 1   
    12    5    7 1   
    13    5   45 1   
    14    6    8 1   
    15    6   41 1   
    16    7   18 1   
    17    7   33 1   
    18    8   30 1   
    19    8   32 1   
    20    9   20 1   
    21    9   21 1   
    22    9   34 1   
    23   10   15 1   
    24   10   39 1   
    25   10   40 1   
    26   11   17 1   
    27   11   22 1   
    28   12   19 1   
    29   12   20 1   
    30   13   16 1   
    31   13   20 1   
    32   13   35 1   
    33   13   42 1   
    34   14   21 1   
    35   14   23 1   
    36   14   36 1   
    37   14   37 1   
    38   15   16 1   
    39   17   18 1   
    40   17   23 1   
    41   18   38 1   
    42   19   22 1   
    43   19   44 1   
    44   21   22 1   
    45   31   44 1   
    46   43   44 1   
@<TRIPOS>SUBSTRUCTURE
     1 K2N         1 TEMP              0 ****  ****    0 ROOT
