@<TRIPOS>MOLECULE
K2N
   43    42     1     0     0
SMALL
bcc


@<TRIPOS>ATOM
      1 CAA         0.6600    0.0210   -0.6030 c3        1 K2N     -0.103100
      2 CAB         8.0540   -2.6990    7.3110 c3        1 K2N     -0.008800
      3 OAD         3.1660   -1.0790    2.4170 o         1 K2N     -0.587000
      4 CAE        13.7950   -2.5070    7.7750 c1        1 K2N     -0.103500
      5 CAF        12.7480   -2.2350    7.2580 cg        1 K2N     -0.061000
      6 CAG        13.1200    0.5540    1.7250 c1        1 K2N     -0.171000
      7 CAH        11.5680   -1.9250    6.6710 cg        1 K2N     -0.026000
      8 CAI        12.4790    0.1870    2.6660 c1        1 K2N     -0.171000
      9 CAJ         5.6720   -0.4010    3.6480 cc        1 K2N     -0.291600
     10 CAK         1.4190   -0.5370    0.5760 c3        1 K2N      0.151400
     11 NAL         9.3320   -0.5390    4.4350 nd        1 K2N     -0.814000
     12 NAM         6.9330    0.8490    1.9700 nc        1 K2N     -0.752000
     13 NAN         4.5650    0.7380    1.7790 ns        1 K2N     -0.417500
     14 NAO         6.8180   -1.5330    5.5100 ny        1 K2N     -0.250600
     15 OAP         2.6480    0.2130    0.6420 os        1 K2N     -0.445900
     16 CAQ         3.4870   -0.1300    1.6820 c         1 K2N      0.737100
     17 CAR         9.2800   -1.3270    5.5380 cd        1 K2N      0.663300
     18 CAS        10.5170   -1.6570    6.1590 ch        1 K2N     -0.170000
     19 CAT         8.0800    0.6080    2.6320 cc        1 K2N      0.581200
     20 CAU         5.7450    0.3660    2.4820 cc        1 K2N      0.414900
     21 CAV         6.8850   -0.7040    4.3120 cd        1 K2N     -0.267300
     22 CAW         8.1330   -0.2380    3.8480 cc        1 K2N      0.399000
     23 CAX         8.1070   -1.8410    6.1090 cc        1 K2N     -0.493600
     24 HAA         0.4480    1.1070   -0.4560 hc        1 K2N      0.050367
     25 HAAA       -0.3060   -0.5300   -0.7050 hc        1 K2N      0.050367
     26 H3          1.2500   -0.0970   -1.5430 hc        1 K2N      0.050367
     27 HAB         7.4570   -2.2200    8.1300 hc        1 K2N      0.039033
     28 HABA        7.5950   -3.6950    7.0820 hc        1 K2N      0.039033
     29 HABB        9.0890   -2.8750    7.6950 hc        1 K2N      0.039033
     30 HNAC        9.2370    1.6220    1.2800 hn        1 K2N      0.433300
     31 HNAA       10.1050    0.8350    2.4970 hn        1 K2N      0.433300
     32 HAF        14.7110    1.8250   -0.9530 ha        1 K2N      0.001000
     33 HAG        13.6910    0.8790    0.8920 ha        1 K2N      0.171000
     34 HAH        15.1570    1.3290   -0.8390 ha        1 K2N      0.001000
     35 HAJ         4.7070   -0.7730    4.0230 ha        1 K2N      0.170000
     36 HNAN        4.6810    1.3760    1.0160 hn        1 K2N      0.341500
     37 HNAO        6.3430   -2.4150    5.2730 hn        1 K2N      0.404300
     38 HAX         6.2340   -1.0540    6.2090 hn        1 K2N      0.404300
     39 HAI        11.9150   -0.1430    3.5070 ha        1 K2N      0.171000
     40 HAK         0.8620   -0.4030    1.5390 h1        1 K2N      0.054200
     41 H19         1.6690   -1.6220    0.4420 h1        1 K2N      0.054200
     42 NAC         9.2420    1.2240    2.1910 nv        1 K2N     -0.892800
     43 HAE        14.7220   -2.7460    8.2320 ha        1 K2N      0.173500
@<TRIPOS>BOND
     1    1   10 1   
     2    1   24 1   
     3    1   25 1   
     4    1   26 1   
     5    2   23 1   
     6    2   27 1   
     7    2   28 1   
     8    2   29 1   
     9    3   16 2   
    10    4    5 3   
    11    4   43 1   
    12    5    7 1   
    13    6    8 3   
    14    6   33 1   
    15    7   18 3   
    16    8   39 1   
    17    9   20 1   
    18    9   21 2   
    19    9   35 1   
    20   10   15 1   
    21   10   40 1   
    22   10   41 1   
    23   11   17 1   
    24   11   22 2   
    25   12   19 2   
    26   12   20 1   
    27   13   16 1   
    28   13   20 2   
    29   13   36 1   
    30   14   21 1   
    31   14   23 1   
    32   14   37 1   
    33   14   38 1   
    34   15   16 1   
    35   17   18 1   
    36   17   23 2   
    37   19   22 1   
    38   19   42 1   
    39   21   22 1   
    40   30   42 1   
    41   31   42 1   
    42   32   34 1   
@<TRIPOS>SUBSTRUCTURE
     1 K2N         1 TEMP              0 ****  ****    0 ROOT
