@<TRIPOS>MOLECULE
K2Q
   26    24     1     0     0
SMALL
bcc


@<TRIPOS>ATOM
      1 OAA        -2.5950   -0.2130    2.7400 o         1 K2Q     -0.567000
      2 CAK        -1.3360   -0.2130    2.7400 c1        1 K2Q      0.355000
      3 OAB        -0.7060   -0.2130    3.8310 os        1 K2Q     -0.554000
      4 CAL        -0.5790   -0.2110    1.4300 c2        1 K2Q     -0.120000
      5 CAI         0.0870   -1.4930    0.9290 c3        1 K2Q     -0.166000
      6 CAG         0.0940    1.2510    0.8300 c1        1 K2Q     -0.245000
      7 CAO         0.7040    1.1530   -0.4560 c2        1 K2Q      0.114000
      8 OAD         1.6850    2.1570   -0.5510 oh        1 K2Q     -0.336000
      9 CAF        -0.3750    1.4350   -1.5160 c2        1 K2Q     -0.119000
     10 CAE        -1.5360    0.7490   -1.4940 c1        1 K2Q     -0.202000
     11 CAH        -1.5810   -0.6470   -0.9090 c2        1 K2Q      0.000000
     12 OAJ        -0.4880   -1.2400   -1.5680 os        1 K2Q     -0.277000
     13 CAN         0.6800   -1.3180   -0.6290 c3        1 K2Q      0.004000
     14 CAM         1.4130   -0.2940   -0.8210 c3        1 K2Q     -0.014000
     15 OAC         2.6540   -0.4370    0.0270 oh        1 K2Q     -0.339000
     16 HAI1       -0.3950   -2.3260    1.0900 hc        1 K2Q      0.115000
     17 HAI2        0.8580   -1.6350    1.5110 hc        1 K2Q      0.115000
     18 HAG         0.3740    1.9510    1.4510 ha        1 K2Q      0.153000
     19 HAN         1.2010   -2.1130   -0.8500 h1        1 K2Q      0.101000
     20 HAD         1.3050    2.9530   -0.4560 ho        1 K2Q      0.209000
     21 HAF        -0.2290    2.1270   -2.1880 ha        1 K2Q      0.130000
     22 HAE        -2.3410    1.1410   -1.8830 ha        1 K2Q      0.110000
     23 HAH1       -2.4360   -1.0910   -1.0650 h4        1 K2Q      0.102000
     24 HAH2       -1.5030   -0.6750    0.0640 h4        1 K2Q      0.102000
     25 HAM         1.6800   -0.2780   -1.7600 h1        1 K2Q      0.119000
     26 HAC         3.3640   -0.5190   -0.4990 ho        1 K2Q      0.211000
@<TRIPOS>BOND
     1    1    2 1   
     2    2    4 1   
     3    4    5 1   
     4    4    6 1   
     5    5   13 1   
     6    5   16 1   
     7    5   17 1   
     8    6   18 1   
     9    7    8 1   
    10    7    9 1   
    11    7   14 1   
    12    8   20 1   
    13    9   10 1   
    14    9   21 1   
    15   10   22 1   
    16   11   12 1   
    17   11   23 1   
    18   11   24 1   
    19   12   13 1   
    20   13   14 1   
    21   13   19 1   
    22   14   15 1   
    23   14   25 1   
    24   15   26 1   
@<TRIPOS>SUBSTRUCTURE
     1 K2Q         1 TEMP              0 ****  ****    0 ROOT
