@<TRIPOS>MOLECULE
K2Q
   26    27     1     0     0
SMALL
bcc


@<TRIPOS>ATOM
      1 OAA         3.2790   -0.8830   -0.9610 o         1 K2Q     -0.825800
      2 CAK         2.7790   -0.2020   -0.0260 c         1 K2Q      0.903800
      3 OAB         3.4480    0.3880    0.8700 o         1 K2Q     -0.825800
      4 CAL         1.2580   -0.0880    0.0590 ce        1 K2Q     -0.128400
      5 CAI         0.7610    1.1680    0.6730 c3        1 K2Q     -0.063200
      6 CAG         0.4620   -1.0840   -0.3460 c2        1 K2Q     -0.259200
      7 CAO        -1.0290   -1.0590   -0.1810 c3        1 K2Q      0.196200
      8 OAD        -1.5150   -2.3760    0.1180 oh        1 K2Q     -0.609800
      9 CAF        -1.6980   -0.6750   -1.4660 c2        1 K2Q     -0.096200
     10 CAE        -2.2820    0.4890   -1.7470 c2        1 K2Q     -0.224200
     11 CAH        -2.4420    1.6610   -0.8470 c3        1 K2Q      0.177600
     12 OAJ        -1.2620    2.0790   -0.1870 os        1 K2Q     -0.417600
     13 CAN        -0.7540    1.2530    0.8640 c3        1 K2Q      0.115100
     14 CAM        -1.4090   -0.1260    0.9930 c3        1 K2Q      0.099100
     15 OAC        -1.0300   -0.7250    2.2240 oh        1 K2Q     -0.610800
     16 HAI1        1.2680    1.2900    1.6700 hc        1 K2Q      0.081200
     17 HAI2        1.0940    2.0290    0.0300 hc        1 K2Q      0.081200
     18 HAG         0.8770   -1.9830   -0.8260 ha        1 K2Q      0.153000
     19 HAN        -0.9760    1.8220    1.8160 h1        1 K2Q      0.038700
     20 HAD        -1.0700   -2.6460    0.9310 ho        1 K2Q      0.410000
     21 HAF        -1.6550   -1.4780   -2.2230 ha        1 K2Q      0.132000
     22 HAE        -2.7120    0.6440   -2.7520 ha        1 K2Q      0.112000
     23 HAH1       -2.7120    2.5730   -1.4560 h1        1 K2Q      0.034700
     24 HAH2       -3.2660    1.4760   -0.1050 h1        1 K2Q      0.034700
     25 HAM        -2.5280   -0.0460    1.0720 h1        1 K2Q      0.071700
     26 HAC        -0.0640   -0.7940    2.2160 ho        1 K2Q      0.420000
@<TRIPOS>BOND
     1    1    2 1   
     2    2    3 1   
     3    2    4 1   
     4    4    5 1   
     5    4    6 2   
     6    5   13 1   
     7    5   16 1   
     8    5   17 1   
     9    6    7 1   
    10    6   18 1   
    11    7    8 1   
    12    7    9 1   
    13    7   14 1   
    14    8   20 1   
    15    9   10 2   
    16    9   21 1   
    17   10   11 1   
    18   10   22 1   
    19   11   12 1   
    20   11   23 1   
    21   11   24 1   
    22   12   13 1   
    23   13   14 1   
    24   13   19 1   
    25   14   15 1   
    26   14   25 1   
    27   15   26 1   
@<TRIPOS>SUBSTRUCTURE
     1 K2Q         1 TEMP              0 ****  ****    0 ROOT
