@<TRIPOS>MOLECULE
K2Q
   26    27     1     0     0
SMALL
bcc


@<TRIPOS>ATOM
      1 OAA        -0.0530    0.1380    0.0400 o         1 K2Q     -0.825800
      2 CAK         1.1840    0.3490   -0.0790 c         1 K2Q      0.903800
      3 OAB         1.9200    0.8400    0.8240 o         1 K2Q     -0.825800
      4 CAL         1.8540    0.0170   -1.4120 ce        1 K2Q     -0.128400
      5 CAI         3.2850   -0.3580   -1.3120 c3        1 K2Q     -0.063200
      6 CAG         1.1900    0.1180   -2.5690 c2        1 K2Q     -0.259200
      7 CAO         1.8380   -0.0940   -3.9060 c3        1 K2Q      0.196200
      8 OAD         1.2850    0.8120   -4.8720 oh        1 K2Q     -0.609800
      9 CAF         1.5330   -1.4640   -4.4300 c2        1 K2Q     -0.096200
     10 CAE         2.3700   -2.4980   -4.5000 c2        1 K2Q     -0.224200
     11 CAH         3.8050   -2.5290   -4.1110 c3        1 K2Q      0.177600
     12 OAJ         4.0920   -2.0060   -2.8280 os        1 K2Q     -0.417600
     13 CAN         4.0000   -0.5910   -2.6440 c3        1 K2Q      0.115100
     14 CAM         3.3560    0.1820   -3.8000 c3        1 K2Q      0.099100
     15 OAC         3.5800    1.5750   -3.6300 oh        1 K2Q     -0.610800
     16 HAI1        3.3610   -1.2940   -0.6930 hc        1 K2Q      0.081200
     17 HAI2        3.8180    0.4530   -0.7420 hc        1 K2Q      0.081200
     18 HAG         0.1190    0.3680   -2.5880 ha        1 K2Q      0.153000
     19 HAN         5.0710   -0.2380   -2.5570 h1        1 K2Q      0.038700
     20 HAD         1.4510    1.7000   -4.5300 ho        1 K2Q      0.410000
     21 HAF         0.4860   -1.5670   -4.7660 ha        1 K2Q      0.132000
     22 HAE         1.9980   -3.4630   -4.8860 ha        1 K2Q      0.112000
     23 HAH1        4.4330   -2.0220   -4.8950 h1        1 K2Q      0.034700
     24 HAH2        4.1500   -3.5990   -4.0180 h1        1 K2Q      0.034700
     25 HAM         3.8570   -0.0480   -4.7810 h1        1 K2Q      0.071700
     26 HAC         3.1860    1.8200   -2.7800 ho        1 K2Q      0.420000
@<TRIPOS>BOND
     1    1    2 1   
     2    2    3 1   
     3    2    4 1   
     4    4    5 1   
     5    4    6 2   
     6    5   13 1   
     7    5   16 1   
     8    5   17 1   
     9    6    7 1   
    10    6   18 1   
    11    7    8 1   
    12    7    9 1   
    13    7   14 1   
    14    8   20 1   
    15    9   10 2   
    16    9   21 1   
    17   10   11 1   
    18   10   22 1   
    19   11   12 1   
    20   11   23 1   
    21   11   24 1   
    22   12   13 1   
    23   13   14 1   
    24   13   19 1   
    25   14   15 1   
    26   14   25 1   
    27   15   26 1   
@<TRIPOS>SUBSTRUCTURE
     1 K2Q         1 TEMP              0 ****  ****    0 ROOT
