@<TRIPOS>MOLECULE
K2Q
   26    27     1     0     0
SMALL
bcc


@<TRIPOS>ATOM
      1 OAA        -0.0270    0.1390    0.0560 o         1 K2Q     -0.825800
      2 CAK         1.2070    0.3590   -0.0760 c         1 K2Q      0.903800
      3 OAB         1.9470    0.8630    0.8170 o         1 K2Q     -0.825800
      4 CAL         1.8680    0.0190   -1.4110 ce        1 K2Q     -0.128400
      5 CAI         3.3020   -0.3460   -1.3200 c3        1 K2Q     -0.063200
      6 CAG         1.1940    0.1070   -2.5640 c2        1 K2Q     -0.259200
      7 CAO         1.8320   -0.1120   -3.9040 c3        1 K2Q      0.196200
      8 OAD         1.2660    0.7830   -4.8730 oh        1 K2Q     -0.609800
      9 CAF         1.5310   -1.4880   -4.4150 c2        1 K2Q     -0.096200
     10 CAE         2.3740   -2.5180   -4.4830 c2        1 K2Q     -0.224200
     11 CAH         3.8120   -2.5360   -4.1060 c3        1 K2Q      0.177600
     12 OAJ         4.1060   -2.0010   -2.8290 os        1 K2Q     -0.417600
     13 CAN         4.0070   -0.5850   -2.6560 c3        1 K2Q      0.115100
     14 CAM         3.3490    0.1740   -3.8130 c3        1 K2Q      0.099100
     15 OAC         3.5660    1.5690   -3.6560 oh        1 K2Q     -0.610800
     16 HAI1        3.8340    0.4730   -0.7610 hc        1 K2Q      0.081200
     17 HAI2        3.3880   -1.2770   -0.6940 hc        1 K2Q      0.081200
     18 HAG         0.1210    0.3510   -2.5760 ha        1 K2Q      0.153000
     19 HAN         5.0770   -0.2250   -2.5810 h1        1 K2Q      0.038700
     20 HAD         1.4290    1.6740   -4.5400 ho        1 K2Q      0.410000
     21 HAF         0.4820   -1.6000   -4.7410 ha        1 K2Q      0.132000
     22 HAE         2.0040   -3.4880   -4.8570 ha        1 K2Q      0.112000
     23 HAH1        4.4310   -2.0330   -4.8990 h1        1 K2Q      0.034700
     24 HAH2        4.1640   -3.6040   -4.0070 h1        1 K2Q      0.034700
     25 HAM         3.8430   -0.0610   -4.7960 h1        1 K2Q      0.071700
     26 HAC         3.1770    1.8190   -2.8040 ho        1 K2Q      0.420000
@<TRIPOS>BOND
     1    1    2 1   
     2    2    3 1   
     3    2    4 1   
     4    4    5 1   
     5    4    6 2   
     6    5   13 1   
     7    5   16 1   
     8    5   17 1   
     9    6    7 1   
    10    6   18 1   
    11    7    8 1   
    12    7    9 1   
    13    7   14 1   
    14    8   20 1   
    15    9   10 2   
    16    9   21 1   
    17   10   11 1   
    18   10   22 1   
    19   11   12 1   
    20   11   23 1   
    21   11   24 1   
    22   12   13 1   
    23   13   14 1   
    24   13   19 1   
    25   14   15 1   
    26   14   25 1   
    27   15   26 1   
@<TRIPOS>SUBSTRUCTURE
     1 K2Q         1 TEMP              0 ****  ****    0 ROOT
