@<TRIPOS>MOLECULE
K2T
   19    20     1     0     0
SMALL
bcc


@<TRIPOS>ATOM
      1 C1          0.0330    0.0150   -0.0290 c3        1 K2T     -0.052800
      2 C2          1.5140   -0.0020   -0.0290 ca        1 K2T     -0.078300
      3 C3          2.2040   -0.0310    1.2000 ca        1 K2T     -0.125000
      4 C4          3.5870   -0.0490    1.2550 ca        1 K2T     -0.085000
      5 C5          4.3200   -0.0370    0.0510 ca        1 K2T      0.111400
      6 C6          3.6180   -0.0110   -1.1980 ca        1 K2T     -0.091100
      7 C7          2.2250    0.0080   -1.2260 ca        1 K2T     -0.085000
      8 S8          4.7200   -0.0140   -2.4820 ss        1 K2T     -0.077100
      9 C9          6.0730   -0.0330   -1.3380 cc        1 K2T      0.563100
     10 N10         5.7170   -0.0340   -0.0490 nd        1 K2T     -0.593100
     11 N11         7.3680   -0.1470   -1.8320 nv        1 K2T     -0.857800
     12 H1         -0.3440    0.8960    0.5490 hc        1 K2T      0.045367
     13 H1A        -0.3760    0.0730   -1.0670 hc        1 K2T      0.045367
     14 H1B        -0.3630   -0.9130    0.4540 hc        1 K2T      0.045367
     15 H3          1.6220   -0.0410    2.1340 ha        1 K2T      0.135000
     16 H4          4.1150   -0.0730    2.2190 ha        1 K2T      0.150000
     17 H7          1.6930    0.0290   -2.1880 ha        1 K2T      0.138000
     18 HN11        7.5460    0.4480   -2.6140 hn        1 K2T      0.405800
     19 HN1A        8.0900   -0.1140   -1.1410 hn        1 K2T      0.405800
@<TRIPOS>BOND
     1    1    2 1   
     2    1   12 1   
     3    1   13 1   
     4    1   14 1   
     5    2    3 ar  
     6    2    7 ar  
     7    3    4 ar  
     8    3   15 1   
     9    4    5 ar  
    10    4   16 1   
    11    5    6 ar  
    12    5   10 1   
    13    6    7 ar  
    14    6    8 1   
    15    7   17 1   
    16    8    9 1   
    17    9   10 2   
    18    9   11 1   
    19   11   18 1   
    20   11   19 1   
@<TRIPOS>SUBSTRUCTURE
     1 K2T         1 TEMP              0 ****  ****    0 ROOT
