@<TRIPOS>MOLECULE
K2T
   19    20     1     0     0
SMALL
bcc


@<TRIPOS>ATOM
      1 C1          0.0320    0.0110   -0.0300 c3        1 K2T     -0.052800
      2 C2          1.5140   -0.0020   -0.0300 ca        1 K2T     -0.078300
      3 C3          2.2030   -0.0170    1.1990 ca        1 K2T     -0.125000
      4 C4          3.5860   -0.0320    1.2550 ca        1 K2T     -0.085000
      5 C5          4.3200   -0.0300    0.0520 ca        1 K2T      0.111400
      6 C6          3.6190   -0.0190   -1.1980 ca        1 K2T     -0.091100
      7 C7          2.2250   -0.0030   -1.2260 ca        1 K2T     -0.085000
      8 S8          4.7210   -0.0330   -2.4810 ss        1 K2T     -0.077100
      9 C9          6.0740   -0.0370   -1.3370 cc        1 K2T      0.563100
     10 N10         5.7160   -0.0250   -0.0470 nd        1 K2T     -0.593100
     11 N11         7.3690   -0.1520   -1.8290 nh        1 K2T     -0.857800
     12 H1         -0.3470    0.8990    0.5340 hc        1 K2T      0.045367
     13 H1A        -0.3750    0.0540   -1.0700 hc        1 K2T      0.045367
     14 H1B        -0.3620   -0.9110    0.4650 hc        1 K2T      0.045367
     15 H3          1.6210   -0.0180    2.1340 ha        1 K2T      0.135000
     16 H4          4.1140   -0.0440    2.2200 ha        1 K2T      0.150000
     17 H7          1.6940    0.0060   -2.1890 ha        1 K2T      0.138000
     18 HN11        7.5460    0.4340   -2.6160 hn        1 K2T      0.405800
     19 HN1A        8.0900   -0.1110   -1.1380 hn        1 K2T      0.405800
@<TRIPOS>BOND
     1    1    2 1   
     2    1   12 1   
     3    1   13 1   
     4    1   14 1   
     5    2    3 ar  
     6    2    7 ar  
     7    3    4 ar  
     8    3   15 1   
     9    4    5 ar  
    10    4   16 1   
    11    5    6 ar  
    12    5   10 1   
    13    6    7 ar  
    14    6    8 1   
    15    7   17 1   
    16    8    9 1   
    17    9   10 2   
    18    9   11 1   
    19   11   18 1   
    20   11   19 1   
@<TRIPOS>SUBSTRUCTURE
     1 K2T         1 TEMP              0 ****  ****    0 ROOT
