@<TRIPOS>MOLECULE
K2Z
   85    86     1     0     0
SMALL
bcc


@<TRIPOS>ATOM
      1 CAU        -1.3710   -0.1620    0.0610 c3        1 K2Z      0.173800
      2 CAS        -0.5720   -0.8090   -1.0880 c3        1 K2Z      0.169300
      3 NBK         0.6500   -1.4400   -0.6170 n3        1 K2Z     -0.733600
      4 CAE         1.3760   -2.1210   -1.6660 c3        1 K2Z      0.153100
      5 CAT         1.4760   -0.5100    0.1350 c3        1 K2Z      0.169300
      6 CAV         0.7080    0.1440    1.3010 c3        1 K2Z      0.173800
      7 NBL        -0.5640    0.7260    0.8890 n3        1 K2Z     -0.751600
      8 CAR        -1.3060    1.3130    1.9810 c3        1 K2Z      0.201800
      9 CAP        -1.8930    2.6810    1.5570 c3        1 K2Z     -0.134400
     10 CAQ        -2.5800    3.3010    2.7620 c3        1 K2Z      0.118800
     11 NAY        -3.1900    4.6420    2.4160 n4        1 K2Z     -0.666800
     12 CBF        -3.8500    5.2900    3.5780 c         1 K2Z      0.540100
     13 OAH        -5.0600    5.1620    3.7170 o         1 K2Z     -0.427100
     14 CBM        -2.9660    6.1410    4.5010 c3        1 K2Z      0.065100
     15 OAI        -2.6830    7.2940    3.7360 oh        1 K2Z     -0.605800
     16 CBJ        -3.6670    6.5210    5.8310 c3        1 K2Z      0.101500
     17 CAO        -4.0290    5.2640    6.6370 c3        1 K2Z     -0.114400
     18 CAA        -4.3450    5.5770    8.0760 c3        1 K2Z     -0.125100
     19 NBA        -4.8720    7.4120    5.6480 n4        1 K2Z     -0.664800
     20 C          -4.5610    8.8750    5.5210 c         1 K2Z      0.532100
     21 O          -3.3950    9.2340    5.5350 o         1 K2Z     -0.379100
     22 CA         -5.7620    9.8290    5.3760 c3        1 K2Z      0.079500
     23 CB         -5.6380   10.5250    4.0090 c3        1 K2Z     -0.113400
     24 CG         -6.7410   11.5430    3.7350 c3        1 K2Z     -0.078700
     25 CD2        -6.5900   12.0370    2.3060 c3        1 K2Z     -0.110600
     26 CD1        -8.1240   10.9690    3.9460 c3        1 K2Z     -0.110600
     27 N          -5.7840   10.8060    6.5120 n4        1 K2Z     -0.670800
     28 CBD        -6.0460   10.1210    7.8500 c         1 K2Z      0.669100
     29 OAF        -5.7640    8.9250    7.9460 o         1 K2Z     -0.556000
     30 OBB        -6.5880   10.9480    8.7010 os        1 K2Z     -0.388900
     31 CAW        -6.8050   10.5180   10.1550 c3        1 K2Z      0.252700
     32 CBG        -5.7870   11.1800   10.9710 ca        1 K2Z     -0.213300
     33 CAM        -5.9470   12.5280   11.3330 ca        1 K2Z     -0.076000
     34 CAK        -5.0270   13.1360   12.1840 ca        1 K2Z     -0.128500
     35 CAJ        -3.9440   12.4060   12.6810 ca        1 K2Z     -0.044000
     36 CAL        -3.7780   11.0650   12.3200 ca        1 K2Z     -0.128500
     37 CAN        -4.6900   10.4530   11.4670 ca        1 K2Z     -0.076000
     38 HAU        -2.1970    0.4530   -0.3950 h1        1 K2Z      0.038450
     39 HAUA       -1.8440   -0.9810    0.6770 h1        1 K2Z      0.038450
     40 HAS        -0.3690   -0.0250   -1.8750 h1        1 K2Z      0.051200
     41 HASA       -1.2220   -1.6050   -1.5480 h1        1 K2Z      0.051200
     42 HAE         1.7520   -1.4270   -2.4670 h1        1 K2Z      0.047367
     43 HAEA        0.6980   -2.8810   -2.1370 h1        1 K2Z      0.047367
     44 HAEB        2.2510   -2.6530   -1.2100 h1        1 K2Z      0.047367
     45 HAT         1.9020    0.3060   -0.5210 h1        1 K2Z      0.051200
     46 HATA        2.3370   -1.0850    0.5770 h1        1 K2Z      0.051200
     47 HAV         0.5610   -0.6260    2.1130 h1        1 K2Z      0.038450
     48 HAVA        1.3490    0.9730    1.7130 h1        1 K2Z      0.038450
     49 HAR        -2.1640    0.6640    2.3220 h1        1 K2Z      0.043200
     50 HARA       -0.6300    1.4850    2.8660 h1        1 K2Z      0.043200
     51 HAP        -2.6210    2.5220    0.7170 hc        1 K2Z      0.088200
     52 HAPA       -1.0650    3.3390    1.1830 hc        1 K2Z      0.088200
     53 HAQ        -3.4140    2.6340    3.1260 hx        1 K2Z      0.106700
     54 HAQA       -1.8380    3.4680    3.5940 hx        1 K2Z      0.106700
     55 HNAY       -3.8850    4.4870    1.6650 hn        1 K2Z      0.486300
     56 HBM        -2.0310    5.5680    4.7760 h1        1 K2Z      0.135700
     57 HOAI       -1.8420    7.6770    4.0420 ho        1 K2Z      0.483000
     58 HBJ        -2.9080    7.1230    6.4300 hx        1 K2Z      0.148700
     59 HAO        -3.1350    4.5820    6.6060 hc        1 K2Z      0.094200
     60 HAOA       -4.8870    4.7200    6.1560 hc        1 K2Z      0.094200
     61 HAA        -4.5130    4.6170    8.6330 hc        1 K2Z      0.074700
     62 HAAA       -3.4970    6.1120    8.5700 hc        1 K2Z      0.074700
     63 HAAB       -5.2710    6.1930    8.1870 hc        1 K2Z      0.074700
     64 HNBA       -5.4100    7.1000    4.8270 hn        1 K2Z      0.492300
     65 HA         -6.7460    9.2650    5.4170 hx        1 K2Z      0.143700
     66 HB         -4.6360   11.0280    3.9240 hc        1 K2Z      0.097700
     67 HBA        -5.6870    9.7190    3.2260 hc        1 K2Z      0.097700
     68 HG         -6.6020   12.4330    4.4130 hc        1 K2Z      0.053700
     69 HD2        -5.5650   12.4450    2.1330 hc        1 K2Z      0.062867
     70 HD2A       -6.7810   11.2120    1.5780 hc        1 K2Z      0.062867
     71 HD2B       -7.3300   12.8540    2.1110 hc        1 K2Z      0.062867
     72 HD1        -8.3190   10.7490    5.0230 hc        1 K2Z      0.062867
     73 HD1A       -8.2670   10.0340    3.3520 hc        1 K2Z      0.062867
     74 HD1B       -8.8950   11.7080    3.6040 hc        1 K2Z      0.062867
     75 HN         -6.5360   11.4990    6.3320 hn        1 K2Z      0.499800
     76 HAW        -7.8430   10.9330   10.2900 h1        1 K2Z      0.110200
     77 HAWA       -6.7740    9.4020   10.1800 h1        1 K2Z      0.110200
     78 HAM        -6.8110   13.1010   10.9590 ha        1 K2Z      0.139000
     79 HAK        -5.1620   14.1910   12.4790 ha        1 K2Z      0.169500
     80 HAJ        -3.2250   12.8850   13.3680 ha        1 K2Z      0.175000
     81 HAL        -2.9320   10.4890   12.7290 ha        1 K2Z      0.169500
     82 HAN        -4.5710    9.3900   11.2090 ha        1 K2Z      0.139000
     83 HAY2       -2.4540    5.2650    2.0490 hn        1 K2Z      0.486300
     84 HBA2       -5.4690    7.3000    6.4950 hn        1 K2Z      0.492300
     85 H2         -4.8920   11.3200    6.5680 hn        1 K2Z      0.499800
@<TRIPOS>BOND
     1    1    2 1   
     2    1    7 1   
     3    1   38 1   
     4    1   39 1   
     5    2    3 1   
     6    2   40 1   
     7    2   41 1   
     8    3    4 1   
     9    3    5 1   
    10    4   42 1   
    11    4   43 1   
    12    4   44 1   
    13    5    6 1   
    14    5   45 1   
    15    5   46 1   
    16    6    7 1   
    17    6   47 1   
    18    6   48 1   
    19    7    8 1   
    20    8    9 1   
    21    8   49 1   
    22    8   50 1   
    23    9   10 1   
    24    9   51 1   
    25    9   52 1   
    26   10   11 1   
    27   10   53 1   
    28   10   54 1   
    29   11   12 1   
    30   11   55 1   
    31   11   83 1   
    32   12   13 2   
    33   12   14 1   
    34   14   15 1   
    35   14   16 1   
    36   14   56 1   
    37   15   57 1   
    38   16   17 1   
    39   16   19 1   
    40   16   58 1   
    41   17   18 1   
    42   17   59 1   
    43   17   60 1   
    44   18   61 1   
    45   18   62 1   
    46   18   63 1   
    47   19   20 1   
    48   19   64 1   
    49   19   84 1   
    50   20   21 2   
    51   20   22 1   
    52   22   23 1   
    53   22   27 1   
    54   22   65 1   
    55   23   24 1   
    56   23   66 1   
    57   23   67 1   
    58   24   25 1   
    59   24   26 1   
    60   24   68 1   
    61   25   69 1   
    62   25   70 1   
    63   25   71 1   
    64   26   72 1   
    65   26   73 1   
    66   26   74 1   
    67   27   28 1   
    68   27   75 1   
    69   27   85 1   
    70   28   29 2   
    71   28   30 1   
    72   30   31 1   
    73   31   32 1   
    74   31   76 1   
    75   31   77 1   
    76   32   33 ar  
    77   32   37 ar  
    78   33   34 ar  
    79   33   78 1   
    80   34   35 ar  
    81   34   79 1   
    82   35   36 ar  
    83   35   80 1   
    84   36   37 ar  
    85   36   81 1   
    86   37   82 1   
@<TRIPOS>SUBSTRUCTURE
     1 K2Z         1 TEMP              0 ****  ****    0 ROOT
