@<TRIPOS>MOLECULE
K2Z
   82    81     1     0     0
SMALL
bcc


@<TRIPOS>ATOM
      1 CAU         8.7150   -2.3070   -0.1230 c3        1 K2Z     -0.069000
      2 CAS         9.8690   -2.9800   -0.8690 c3        1 K2Z     -0.069000
      3 NBK        10.8240   -2.0510   -1.3330 n3        1 K2Z     -0.258000
      4 CAE        11.8030   -2.7220   -2.1320 c3        1 K2Z     -0.119000
      5 CAT        10.2410   -0.9960   -2.0830 c3        1 K2Z     -0.069000
      6 CAV         9.0870   -0.3180   -1.3390 c3        1 K2Z     -0.069000
      7 NBL         8.1300   -1.2450   -0.8750 n3        1 K2Z     -0.254000
      8 CAR         7.1520   -0.5550   -0.0550 c3        1 K2Z     -0.063000
      9 CAP         5.7830   -0.6870   -0.6770 c3        1 K2Z     -0.188000
     10 CAQ         4.6970   -0.3320    0.3910 c3        1 K2Z     -0.037000
     11 NAY         3.4170   -0.0980   -0.2690 n         1 K2Z     -0.353000
     12 CBF         2.1460   -0.2040    0.5060 c2        1 K2Z      0.305000
     13 OAH         2.1490   -0.7230    1.6320 o         1 K2Z     -0.372000
     14 CBM         0.8410    0.3620   -0.0760 c3        1 K2Z     -0.005000
     15 OAI         0.8990    0.3280   -1.4810 oh        1 K2Z     -0.337000
     16 CBJ        -0.3200   -0.4640    0.4030 c3        1 K2Z      0.001000
     17 CAO        -0.5950   -1.6270   -0.6100 c3        1 K2Z     -0.169000
     18 CAA         0.1170   -2.8780   -0.1450 c3        1 K2Z     -0.219000
     19 NBA        -1.4590    0.3450    0.5060 n         1 K2Z     -0.381000
     20 C          -2.6190   -0.1400    1.2040 c2        1 K2Z      0.266000
     21 O          -2.5930   -1.2480    1.7470 o         1 K2Z     -0.361000
     22 CA         -3.8510    0.7300    1.3240 c3        1 K2Z      0.026000
     23 CB         -4.5300    0.4600    2.6550 c3        1 K2Z     -0.161000
     24 CG         -4.7240    1.8260    3.4420 c3        1 K2Z     -0.109000
     25 CD2        -6.1680    2.1760    3.4650 c3        1 K2Z     -0.209000
     26 CD1        -4.2240    1.6740    4.8490 c3        1 K2Z     -0.209000
     27 N          -4.7610    0.4310    0.2550 n         1 K2Z     -0.354000
     28 CBD        -5.5940    1.4790   -0.2960 c2        1 K2Z      0.399000
     29 OAF        -5.2100    2.6260   -0.2800 o         1 K2Z     -0.427000
     30 OBB        -6.8540    1.1660   -0.8440 os        1 K2Z     -0.272000
     31 CAW        -7.4550    2.2440   -1.5810 c3        1 K2Z      0.041000
     32 CBG        -9.0060    1.9940   -1.7060 c2        1 K2Z     -0.093000
     33 CAM        -9.8900    2.6770   -0.8760 c2        1 K2Z     -0.117000
     34 CAK       -11.2640    2.4750   -1.0040 c1        1 K2Z     -0.131000
     35 CAJ       -11.7540    1.5870   -1.9640 c1        1 K2Z     -0.126500
     36 CAL       -10.8710    0.9000   -2.7980 c1        1 K2Z     -0.126500
     37 CAN        -9.4990    1.1010   -2.6730 c1        1 K2Z     -0.102000
     38 HAU         9.0610   -1.9410    0.7400 h1        1 K2Z      0.076250
     39 HAUA        8.0350   -2.9690    0.0660 h1        1 K2Z      0.076250
     40 HAS        10.3220   -3.6320   -0.2440 h1        1 K2Z      0.075750
     41 HASA        9.5010   -3.4870   -1.6550 h1        1 K2Z      0.075750
     42 HAE        12.4010   -2.0420   -2.5700 h1        1 K2Z      0.071000
     43 HAEA       11.3510   -3.2570   -2.8250 h1        1 K2Z      0.071000
     44 HAEB       12.3550   -3.3270   -1.5470 h1        1 K2Z      0.071000
     45 HAT        10.9170   -0.3380   -2.2770 h1        1 K2Z      0.075750
     46 HATA        9.9000   -1.3600   -2.9270 h1        1 K2Z      0.075750
     47 HAV         8.6540    0.3120   -1.9350 h1        1 K2Z      0.076250
     48 HAVA        9.4590    0.1790   -0.5540 h1        1 K2Z      0.076250
     49 HAR         7.3960    0.4170    0.0120 h1        1 K2Z      0.072500
     50 HARA        7.1420   -0.9470    0.8300 h1        1 K2Z      0.072500
     51 HAP         5.6450   -1.6450   -1.0000 hc        1 K2Z      0.092500
     52 HAPA        5.7060   -0.0490   -1.4640 hc        1 K2Z      0.092500
     53 HAQ         4.6040   -1.0900    1.0380 h1        1 K2Z      0.102500
     54 HAQA        4.9700    0.4880    0.8790 h1        1 K2Z      0.102500
     55 HNAY        3.3970    0.1860   -1.1440 hn        1 K2Z      0.232000
     56 HBM         0.7310    1.2510    0.2120 h1        1 K2Z      0.124000
     57 HOAI        0.8180    1.1820   -1.8110 ho        1 K2Z      0.219000
     58 HBJ        -0.1020   -0.8530    1.3070 h1        1 K2Z      0.136000
     59 HAO        -1.5950   -1.8030   -0.6600 hc        1 K2Z      0.100000
     60 HAOA       -0.2520   -1.3640   -1.5280 hc        1 K2Z      0.100000
     61 HAA        -0.2510   -3.6600   -0.6120 hc        1 K2Z      0.079000
     62 HAAA        1.0490   -2.8000   -0.3350 hc        1 K2Z      0.079000
     63 HAAB       -0.0090   -2.9850    0.8140 hc        1 K2Z      0.079000
     64 HNBA       -1.4700    1.1970    0.1060 hn        1 K2Z      0.253000
     65 HA         -3.5860    1.6890    1.2740 h1        1 K2Z      0.124000
     66 HB         -5.3680    0.0670    2.5020 hc        1 K2Z      0.111000
     67 HBA        -3.9620   -0.1650    3.2020 hc        1 K2Z      0.111000
     68 HG         -4.2310    2.5240    3.0000 hc        1 K2Z      0.091000
     69 HD2        -6.6760    1.4130    3.7520 hc        1 K2Z      0.075333
     70 HD2A       -6.3130    2.9120    4.0800 hc        1 K2Z      0.075333
     71 HD2B       -6.4500    2.4350    2.5790 hc        1 K2Z      0.075333
     72 HD1        -4.6380    0.8700    5.2640 hc        1 K2Z      0.075333
     73 HD1A       -4.4710    2.4910    5.3810 hc        1 K2Z      0.075333
     74 HD1B       -3.2560    1.5730    4.8400 hc        1 K2Z      0.075333
     75 HN         -4.8130   -0.4550   -0.0950 hn        1 K2Z      0.256000
     76 HAW        -7.2960    3.0990   -1.1040 h1        1 K2Z      0.104500
     77 HAWA       -7.0600    2.2910   -2.4700 h1        1 K2Z      0.104500
     78 HAM        -9.5400    3.3160   -0.1860 ha        1 K2Z      0.134000
     79 HAK       -11.8950    2.9620   -0.4100 ha        1 K2Z      0.134000
     80 HAJ       -12.7220    1.4450   -2.0520 ha        1 K2Z      0.134000
     81 HAL       -11.2260    0.2630   -3.4880 ha        1 K2Z      0.134000
     82 HAN        -8.8610    0.6040   -3.2730 ha        1 K2Z      0.142000
@<TRIPOS>BOND
     1    1    2 1   
     2    1    7 1   
     3    1   38 1   
     4    1   39 1   
     5    2    3 1   
     6    2   40 1   
     7    2   41 1   
     8    3    4 1   
     9    3    5 1   
    10    4   42 1   
    11    4   43 1   
    12    4   44 1   
    13    5    6 1   
    14    5   45 1   
    15    5   46 1   
    16    6    7 1   
    17    6   47 1   
    18    6   48 1   
    19    7    8 1   
    20    8    9 1   
    21    8   49 1   
    22    8   50 1   
    23    9   10 1   
    24    9   51 1   
    25    9   52 1   
    26   10   11 1   
    27   10   53 1   
    28   10   54 1   
    29   11   12 1   
    30   11   55 1   
    31   12   13 1   
    32   12   14 1   
    33   14   15 1   
    34   14   16 1   
    35   14   56 1   
    36   15   57 1   
    37   16   17 1   
    38   16   19 1   
    39   16   58 1   
    40   17   18 1   
    41   17   59 1   
    42   17   60 1   
    43   18   61 1   
    44   18   62 1   
    45   18   63 1   
    46   19   20 1   
    47   19   64 1   
    48   20   21 1   
    49   20   22 1   
    50   22   23 1   
    51   22   27 1   
    52   22   65 1   
    53   23   24 1   
    54   23   66 1   
    55   23   67 1   
    56   24   25 1   
    57   24   26 1   
    58   24   68 1   
    59   25   69 1   
    60   25   70 1   
    61   25   71 1   
    62   26   72 1   
    63   26   73 1   
    64   26   74 1   
    65   27   28 1   
    66   27   75 1   
    67   28   29 1   
    68   28   30 1   
    69   30   31 1   
    70   31   32 1   
    71   31   76 1   
    72   31   77 1   
    73   32   33 1   
    74   32   37 1   
    75   33   34 1   
    76   33   78 1   
    77   34   79 1   
    78   35   36 1   
    79   35   80 1   
    80   36   81 1   
    81   37   82 1   
@<TRIPOS>SUBSTRUCTURE
     1 K2Z         1 TEMP              0 ****  ****    0 ROOT
