@<TRIPOS>MOLECULE
K2Z
   85    86     1     0     0
SMALL
bcc


@<TRIPOS>ATOM
      1 CAU        -1.2960   -0.2440   -0.3380 c3        1 K2Z      0.174300
      2 CAS        -0.6680   -0.8530   -1.6080 c3        1 K2Z      0.169300
      3 NBK         0.4060   -1.7810   -1.2970 n3        1 K2Z     -0.733600
      4 CAE         0.9590   -2.4180   -2.4710 c3        1 K2Z      0.153100
      5 CAT         1.4190   -1.1650   -0.4550 c3        1 K2Z      0.169300
      6 CAV         0.8230   -0.5570    0.8300 c3        1 K2Z      0.174300
      7 NBL        -0.3090    0.3260    0.5700 n3        1 K2Z     -0.752600
      8 CAR        -0.8930    0.8790    1.7710 c3        1 K2Z      0.200800
      9 CAP        -1.1710    2.3900    1.5890 c3        1 K2Z     -0.132400
     10 CAQ        -1.7210    2.9330    2.8960 c3        1 K2Z      0.113800
     11 NAY        -1.9930    4.4170    2.8030 n4        1 K2Z     -0.667800
     12 CBF        -2.4140    5.0170    4.1030 c         1 K2Z      0.494100
     13 OAH        -1.8480    4.6720    5.1280 o         1 K2Z     -0.362100
     14 CBM        -3.4950    6.1010    4.0300 c3        1 K2Z      0.049100
     15 OAI        -4.4700    5.8370    3.0560 oh        1 K2Z     -0.571800
     16 CBJ        -4.1140    6.3600    5.4300 c3        1 K2Z      0.099500
     17 CAO        -4.8890    5.1410    5.9520 c3        1 K2Z     -0.115400
     18 CAA        -5.2110    5.2500    7.4200 c3        1 K2Z     -0.124100
     19 NBA        -5.0190    7.5730    5.3880 n4        1 K2Z     -0.671800
     20 C          -4.3280    8.8950    5.5400 c         1 K2Z      0.526100
     21 O          -3.1080    8.9170    5.5800 o         1 K2Z     -0.380100
     22 CA         -5.2270   10.1430    5.6190 c3        1 K2Z      0.080500
     23 CB         -4.8920   11.0320    4.4070 c3        1 K2Z     -0.115400
     24 CG         -5.6780   12.3390    4.3690 c3        1 K2Z     -0.076700
     25 CD2        -5.3650   13.0460    3.0600 c3        1 K2Z     -0.110600
     26 CD1        -7.1690   12.1210    4.5010 c3        1 K2Z     -0.110600
     27 N          -5.0170   10.8510    6.9220 n4        1 K2Z     -0.671800
     28 CBD        -5.4650   10.0040    8.1130 c         1 K2Z      0.659100
     29 OAF        -5.6020    8.7910    7.9320 o         1 K2Z     -0.567000
     30 OBB        -5.6450   10.7300    9.1780 os        1 K2Z     -0.391900
     31 CAW        -6.0950   10.0320   10.4920 c3        1 K2Z      0.265700
     32 CBG        -6.3180   11.1540   11.3940 ca        1 K2Z     -0.197300
     33 CAM        -7.6000   11.7260   11.5110 ca        1 K2Z     -0.063000
     34 CAK        -7.8260   12.7440   12.4300 ca        1 K2Z     -0.131000
     35 CAJ        -6.7800   13.2110   13.2330 ca        1 K2Z     -0.031000
     36 CAL        -5.5020   12.6560   13.1130 ca        1 K2Z     -0.131000
     37 CAN        -5.2670   11.6370   12.1970 ca        1 K2Z     -0.063000
     38 HAU        -1.9880    0.5850   -0.6560 h1        1 K2Z      0.038450
     39 HAUA       -1.9150   -1.0380    0.1740 h1        1 K2Z      0.038450
     40 HAS        -1.4770   -1.4220   -2.1480 h1        1 K2Z      0.050200
     41 HASA       -0.3240   -0.0130   -2.2800 h1        1 K2Z      0.050200
     42 HAE         1.7160   -3.1790   -2.1440 h1        1 K2Z      0.047033
     43 HAEA        1.4550   -1.6960   -3.1760 h1        1 K2Z      0.047033
     44 HAEB        0.1330   -2.9440   -3.0180 h1        1 K2Z      0.047033
     45 HAT         1.9940   -0.3630   -1.0020 h1        1 K2Z      0.050200
     46 HATA        2.1480   -1.9650   -0.1440 h1        1 K2Z      0.050200
     47 HAV         1.6280    0.0520    1.3280 h1        1 K2Z      0.038450
     48 HAVA        0.5330   -1.3970    1.5260 h1        1 K2Z      0.038450
     49 HAR        -1.8680    0.3810    2.0470 h1        1 K2Z      0.044700
     50 HARA       -0.1870    0.7580    2.6410 h1        1 K2Z      0.044700
     51 HAP        -0.2140    2.9060    1.3100 hc        1 K2Z      0.083200
     52 HAPA       -1.9040    2.5330    0.7530 hc        1 K2Z      0.083200
     53 HAQ        -2.6920    2.4270    3.1610 hx        1 K2Z      0.114700
     54 HAQA       -0.9800    2.7750    3.7350 hx        1 K2Z      0.114700
     55 HNAY       -1.1200    4.8760    2.4920 hn        1 K2Z      0.480300
     56 HBM        -2.9710    7.0420    3.6600 h1        1 K2Z      0.141700
     57 HOAI       -4.9990    5.0660    3.3230 ho        1 K2Z      0.451000
     58 HBJ        -3.2660    6.5880    6.1520 hx        1 K2Z      0.157700
     59 HAO        -4.2280    4.2430    5.7970 hc        1 K2Z      0.088200
     60 HAOA       -5.8290    4.9780    5.3590 hc        1 K2Z      0.088200
     61 HAA        -5.7080    4.3030    7.7600 hc        1 K2Z      0.077033
     62 HAAA       -4.2820    5.3820    8.0280 hc        1 K2Z      0.077033
     63 HAAB       -5.9090    6.0940    7.6440 hc        1 K2Z      0.077033
     64 HNBA       -5.5490    7.5640    4.5030 hn        1 K2Z      0.495800
     65 HA         -6.3270    9.8630    5.5780 hx        1 K2Z      0.144700
     66 HB         -5.1370   10.4370    3.4850 hc        1 K2Z      0.097700
     67 HBA        -3.7910   11.2590    4.3910 hc        1 K2Z      0.097700
     68 HG         -5.3250   13.0090    5.2050 hc        1 K2Z      0.052700
     69 HD2        -5.7470   12.4590    2.1900 hc        1 K2Z      0.063367
     70 HD2A       -5.8590   14.0500    3.0490 hc        1 K2Z      0.063367
     71 HD2B       -4.2650   13.1940    2.9430 hc        1 K2Z      0.063367
     72 HD1        -7.4420   11.7520    5.5190 hc        1 K2Z      0.063367
     73 HD1A       -7.5390   11.3940    3.7380 hc        1 K2Z      0.063367
     74 HD1B       -7.7070   13.0900    4.3330 hc        1 K2Z      0.063367
     75 HN         -4.0260   11.1070    7.0440 hn        1 K2Z      0.498800
     76 HAW        -5.2310    9.3740   10.7520 h1        1 K2Z      0.090700
     77 HAWA       -7.0100    9.4590   10.2040 h1        1 K2Z      0.090700
     78 HAM        -8.4280   11.3540   10.8890 ha        1 K2Z      0.140000
     79 HAK        -8.8340   13.1810   12.5340 ha        1 K2Z      0.172500
     80 HAJ        -6.9660   14.0150   13.9670 ha        1 K2Z      0.177000
     81 HAL        -4.6820   13.0230   13.7530 ha        1 K2Z      0.172500
     82 HAN        -4.2620   11.1950   12.1130 ha        1 K2Z      0.140000
     83 HAY2       -2.7130    4.5890    2.0870 hn        1 K2Z      0.480300
     84 HBA2       -5.6890    7.4850    6.1820 hn        1 K2Z      0.495800
     85 H2         -5.5680   11.7300    6.9090 hn        1 K2Z      0.498800
@<TRIPOS>BOND
     1    1    2 1   
     2    1    7 1   
     3    1   38 1   
     4    1   39 1   
     5    2    3 1   
     6    2   40 1   
     7    2   41 1   
     8    3    4 1   
     9    3    5 1   
    10    4   42 1   
    11    4   43 1   
    12    4   44 1   
    13    5    6 1   
    14    5   45 1   
    15    5   46 1   
    16    6    7 1   
    17    6   47 1   
    18    6   48 1   
    19    7    8 1   
    20    8    9 1   
    21    8   49 1   
    22    8   50 1   
    23    9   10 1   
    24    9   51 1   
    25    9   52 1   
    26   10   11 1   
    27   10   53 1   
    28   10   54 1   
    29   11   12 1   
    30   11   55 1   
    31   11   83 1   
    32   12   13 2   
    33   12   14 1   
    34   14   15 1   
    35   14   16 1   
    36   14   56 1   
    37   15   57 1   
    38   16   17 1   
    39   16   19 1   
    40   16   58 1   
    41   17   18 1   
    42   17   59 1   
    43   17   60 1   
    44   18   61 1   
    45   18   62 1   
    46   18   63 1   
    47   19   20 1   
    48   19   64 1   
    49   19   84 1   
    50   20   21 2   
    51   20   22 1   
    52   22   23 1   
    53   22   27 1   
    54   22   65 1   
    55   23   24 1   
    56   23   66 1   
    57   23   67 1   
    58   24   25 1   
    59   24   26 1   
    60   24   68 1   
    61   25   69 1   
    62   25   70 1   
    63   25   71 1   
    64   26   72 1   
    65   26   73 1   
    66   26   74 1   
    67   27   28 1   
    68   27   75 1   
    69   27   85 1   
    70   28   29 2   
    71   28   30 1   
    72   30   31 1   
    73   31   32 1   
    74   31   76 1   
    75   31   77 1   
    76   32   33 ar  
    77   32   37 ar  
    78   33   34 ar  
    79   33   78 1   
    80   34   35 ar  
    81   34   79 1   
    82   35   36 ar  
    83   35   80 1   
    84   36   37 ar  
    85   36   81 1   
    86   37   82 1   
@<TRIPOS>SUBSTRUCTURE
     1 K2Z         1 TEMP              0 ****  ****    0 ROOT
