@<TRIPOS>MOLECULE
K2Z
   82    83     1     0     0
SMALL
bcc


@<TRIPOS>ATOM
      1 CAU        -7.5070   -1.4580   -1.0500 c3        1 K2Z      0.167300
      2 CAS        -7.7940   -2.9140   -1.4560 c3        1 K2Z      0.167800
      3 NBK        -7.3230   -3.8800   -0.4750 n3        1 K2Z     -0.732600
      4 CAE        -7.5790   -5.2450   -0.8750 c3        1 K2Z      0.157100
      5 CAT        -5.9300   -3.6590   -0.1130 c3        1 K2Z      0.167800
      6 CAV        -5.6360   -2.2010    0.2870 c3        1 K2Z      0.167300
      7 NBL        -6.1130   -1.2310   -0.6880 n3        1 K2Z     -0.728600
      8 CAR        -5.8910    0.1480   -0.2730 c3        1 K2Z      0.172800
      9 CAP        -4.4190    0.5090   -0.0900 c3        1 K2Z     -0.108400
     10 CAQ        -4.3040    2.0250    0.0920 c3        1 K2Z      0.085000
     11 NAY        -2.9600    2.4980    0.2750 n         1 K2Z     -0.550900
     12 CBF        -2.4990    2.9610    1.4810 c         1 K2Z      0.625100
     13 OAH        -3.2260    3.1060    2.4880 o         1 K2Z     -0.628100
     14 CBM        -1.0160    3.3580    1.5620 c3        1 K2Z      0.060100
     15 OAI        -0.8050    4.2740    2.6090 oh        1 K2Z     -0.585800
     16 CBJ        -0.1600    2.0620    1.7240 c3        1 K2Z      0.084700
     17 CAO         0.1880    1.8430    3.2020 c3        1 K2Z     -0.091400
     18 CAA         0.9050    0.5420    3.4430 c3        1 K2Z     -0.097100
     19 NBA         1.0090    2.0740    0.8740 n         1 K2Z     -0.554900
     20 C           0.9060    1.9720   -0.4880 c         1 K2Z      0.631100
     21 O          -0.2000    1.8970   -1.0670 o         1 K2Z     -0.642100
     22 CA          2.2400    1.9440   -1.2870 c3        1 K2Z      0.053700
     23 CB          1.9150    2.2130   -2.7620 c3        1 K2Z     -0.078400
     24 CG          3.1470    2.4890   -3.6090 c3        1 K2Z     -0.070700
     25 CD2         2.7860    2.3780   -5.0780 c3        1 K2Z     -0.093100
     26 CD1         3.7250    3.8600   -3.3210 c3        1 K2Z     -0.093100
     27 N           2.9470    0.7030   -1.0890 n         1 K2Z     -0.541900
     28 CBD         3.6480    0.4680    0.0700 c         1 K2Z      0.744100
     29 OAF         3.8530    1.2530    1.0160 o         1 K2Z     -0.610000
     30 OBB         4.1860   -0.8000    0.1230 os        1 K2Z     -0.434900
     31 CAW         4.9630   -1.0740    1.3090 c3        1 K2Z      0.198700
     32 CBG         5.4050   -2.4960    1.2310 ca        1 K2Z     -0.100300
     33 CAM         5.8040   -3.0620    0.0160 ca        1 K2Z     -0.110500
     34 CAK         6.2500   -4.3830   -0.0250 ca        1 K2Z     -0.131000
     35 CAJ         6.3040   -5.1400    1.1450 ca        1 K2Z     -0.121000
     36 CAL         5.9060   -4.5770    2.3580 ca        1 K2Z     -0.131000
     37 CAN         5.4530   -3.2600    2.4020 ca        1 K2Z     -0.110500
     38 HAU        -7.7430   -0.8030   -1.9350 h1        1 K2Z      0.037450
     39 HAUA       -8.2070   -1.1720   -0.2110 h1        1 K2Z      0.037450
     40 HAS        -8.9110   -3.0320   -1.5450 h1        1 K2Z      0.035950
     41 HASA       -7.3440   -3.1020   -2.4750 h1        1 K2Z      0.035950
     42 HAE        -7.0290   -5.5490   -1.8080 h1        1 K2Z      0.032033
     43 HAEA       -7.2710   -5.9290   -0.0410 h1        1 K2Z      0.032033
     44 HAEB       -8.6790   -5.3670   -1.0550 h1        1 K2Z      0.032033
     45 HAT        -5.6990   -4.3120    0.7740 h1        1 K2Z      0.035950
     46 HATA       -5.2310   -3.9510   -0.9510 h1        1 K2Z      0.035950
     47 HAV        -6.0720   -2.0120    1.3110 h1        1 K2Z      0.037450
     48 HAVA       -4.5170   -2.0900    0.3610 h1        1 K2Z      0.037450
     49 HAR        -6.3230    0.8080   -1.0800 h1        1 K2Z      0.033200
     50 HARA       -6.4380    0.3880    0.6870 h1        1 K2Z      0.033200
     51 HAP        -4.0050   -0.0150    0.8110 hc        1 K2Z      0.054700
     52 HAPA       -3.8230    0.1790   -0.9800 hc        1 K2Z      0.054700
     53 HAQ        -4.7220    2.5310   -0.8270 h1        1 K2Z      0.061700
     54 HAQA       -4.9260    2.3390    0.9800 h1        1 K2Z      0.061700
     55 HNAY       -2.2940    2.2820   -0.4370 hn        1 K2Z      0.340500
     56 HBM        -0.7160    3.9220    0.6310 h1        1 K2Z      0.099700
     57 HOAI       -1.3760    4.0220    3.3520 ho        1 K2Z      0.427000
     58 HBJ        -0.7980    1.1880    1.3810 h1        1 K2Z      0.063700
     59 HAO         0.8070    2.7010    3.5760 hc        1 K2Z      0.062700
     60 HAOA       -0.7810    1.8550    3.7700 hc        1 K2Z      0.062700
     61 HAA         0.3390   -0.3120    2.9970 hc        1 K2Z      0.039367
     62 HAAA        1.9310    0.5550    2.9990 hc        1 K2Z      0.039367
     63 HAAB        1.0040    0.3630    4.5420 hc        1 K2Z      0.039367
     64 HNBA        1.9010    2.1870    1.3050 hn        1 K2Z      0.348500
     65 HA          2.8950    2.7820   -0.8960 h1        1 K2Z      0.092700
     66 HB          1.3440    1.3450   -3.1860 hc        1 K2Z      0.069200
     67 HBA         1.2280    3.1010   -2.7960 hc        1 K2Z      0.069200
     68 HG          3.9350    1.7170   -3.3830 hc        1 K2Z      0.052700
     69 HD2         1.9840    3.1100   -5.3410 hc        1 K2Z      0.037367
     70 HD2A        3.6810    2.5910   -5.7120 hc        1 K2Z      0.037367
     71 HD2B        2.4190    1.3510   -5.3150 hc        1 K2Z      0.037367
     72 HD1         4.0570    3.9360   -2.2580 hc        1 K2Z      0.037367
     73 HD1A        4.6080    4.0500   -3.9780 hc        1 K2Z      0.037367
     74 HD1B        2.9660    4.6560   -3.5130 hc        1 K2Z      0.037367
     75 HN          2.7620   -0.0560   -1.7020 hn        1 K2Z      0.338500
     76 HAW         5.8430   -0.3760    1.3230 h1        1 K2Z      0.065200
     77 HAWA        4.3220   -0.8810    2.2100 h1        1 K2Z      0.065200
     78 HAM         5.7550   -2.4620   -0.9040 ha        1 K2Z      0.138000
     79 HAK         6.5610   -4.8260   -0.9830 ha        1 K2Z      0.134000
     80 HAJ         6.6590   -6.1810    1.1120 ha        1 K2Z      0.134000
     81 HAL         5.9470   -5.1730    3.2810 ha        1 K2Z      0.134000
     82 HAN         5.1330   -2.8210    3.3600 ha        1 K2Z      0.138000
@<TRIPOS>BOND
     1    1    2 1   
     2    1    7 1   
     3    1   38 1   
     4    1   39 1   
     5    2    3 1   
     6    2   40 1   
     7    2   41 1   
     8    3    4 1   
     9    3    5 1   
    10    4   42 1   
    11    4   43 1   
    12    4   44 1   
    13    5    6 1   
    14    5   45 1   
    15    5   46 1   
    16    6    7 1   
    17    6   47 1   
    18    6   48 1   
    19    7    8 1   
    20    8    9 1   
    21    8   49 1   
    22    8   50 1   
    23    9   10 1   
    24    9   51 1   
    25    9   52 1   
    26   10   11 1   
    27   10   53 1   
    28   10   54 1   
    29   11   12 1   
    30   11   55 1   
    31   12   13 2   
    32   12   14 1   
    33   14   15 1   
    34   14   16 1   
    35   14   56 1   
    36   15   57 1   
    37   16   17 1   
    38   16   19 1   
    39   16   58 1   
    40   17   18 1   
    41   17   59 1   
    42   17   60 1   
    43   18   61 1   
    44   18   62 1   
    45   18   63 1   
    46   19   20 1   
    47   19   64 1   
    48   20   21 2   
    49   20   22 1   
    50   22   23 1   
    51   22   27 1   
    52   22   65 1   
    53   23   24 1   
    54   23   66 1   
    55   23   67 1   
    56   24   25 1   
    57   24   26 1   
    58   24   68 1   
    59   25   69 1   
    60   25   70 1   
    61   25   71 1   
    62   26   72 1   
    63   26   73 1   
    64   26   74 1   
    65   27   28 1   
    66   27   75 1   
    67   28   29 2   
    68   28   30 1   
    69   30   31 1   
    70   31   32 1   
    71   31   76 1   
    72   31   77 1   
    73   32   33 ar  
    74   32   37 ar  
    75   33   34 ar  
    76   33   78 1   
    77   34   35 ar  
    78   34   79 1   
    79   35   36 ar  
    80   35   80 1   
    81   36   37 ar  
    82   36   81 1   
    83   37   82 1   
@<TRIPOS>SUBSTRUCTURE
     1 K2Z         1 TEMP              0 ****  ****    0 ROOT
