@<TRIPOS>MOLECULE
K2Z
   85    86     1     0     0
SMALL
bcc


@<TRIPOS>ATOM
      1 CAU        -1.3210   -0.1110    0.0130 c3        1 K2Z      0.173800
      2 CAS        -0.4850   -0.7530   -1.1130 c3        1 K2Z      0.169300
      3 NBK         0.6960   -1.4290   -0.6010 n3        1 K2Z     -0.733600
      4 CAE         1.4520   -2.1050   -1.6310 c3        1 K2Z      0.153100
      5 CAT         1.5100   -0.5400    0.2120 c3        1 K2Z      0.169300
      6 CAV         0.7040    0.1070    1.3570 c3        1 K2Z      0.173800
      7 NBL        -0.5310    0.7340    0.9000 n3        1 K2Z     -0.751600
      8 CAR        -1.3080    1.3160    1.9700 c3        1 K2Z      0.201800
      9 CAP        -1.8370    2.7100    1.5520 c3        1 K2Z     -0.134400
     10 CAQ        -2.5650    3.3200    2.7390 c3        1 K2Z      0.118800
     11 NAY        -3.1210    4.6850    2.3980 ny        1 K2Z     -0.666800
     12 CBF        -3.8210    5.3230    3.5420 c         1 K2Z      0.540100
     13 OAH        -5.0390    5.2240    3.6180 o         1 K2Z     -0.427100
     14 CBM        -2.9620    6.1270    4.5290 c3        1 K2Z      0.065100
     15 OAI        -2.6110    7.2890    3.8090 oh        1 K2Z     -0.605800
     16 CBJ        -3.7170    6.4930    5.8320 c3        1 K2Z      0.101500
     17 CAO        -4.1520    5.2280    6.5870 c3        1 K2Z     -0.114400
     18 CAA        -4.5300    5.5140    8.0170 c3        1 K2Z     -0.125100
     19 NBA        -4.8880    7.4210    5.6140 ny        1 K2Z     -0.664800
     20 C          -4.5330    8.8770    5.5390 c         1 K2Z      0.532100
     21 O          -3.3600    9.2040    5.6200 o         1 K2Z     -0.379100
     22 CA         -5.6990    9.8670    5.3600 c3        1 K2Z      0.079500
     23 CB         -5.4900   10.5920    4.0180 c3        1 K2Z     -0.113400
     24 CG         -6.5510   11.6460    3.7170 c3        1 K2Z     -0.078700
     25 CD2        -6.3170   12.1710    2.3100 c3        1 K2Z     -0.110600
     26 CD1        -7.9580   11.1050    3.8450 c3        1 K2Z     -0.110600
     27 N          -5.7520   10.8170    6.5180 ny        1 K2Z     -0.670800
     28 CBD        -6.0970   10.1070    7.8240 c         1 K2Z      0.669100
     29 OAF        -5.8510    8.9020    7.9030 o         1 K2Z     -0.556000
     30 OBB        -6.6600   10.9280    8.6680 os        1 K2Z     -0.388900
     31 CAW        -6.9600   10.4690   10.0990 c3        1 K2Z      0.252700
     32 CBG        -5.9710   11.0900   10.9800 ca        1 K2Z     -0.213300
     33 CAM        -6.1220   12.4330   11.3670 ca        1 K2Z     -0.076000
     34 CAK        -5.2340   13.0010   12.2770 ca        1 K2Z     -0.128500
     35 CAJ        -4.1930   12.2380   12.8090 ca        1 K2Z     -0.044000
     36 CAL        -4.0350   10.9020   12.4250 ca        1 K2Z     -0.128500
     37 CAN        -4.9150   10.3290   11.5130 ca        1 K2Z     -0.076000
     38 HAU        -1.8440   -0.9310    0.5860 h1        1 K2Z      0.038450
     39 HAUA       -2.1070    0.5370   -0.4660 h1        1 K2Z      0.038450
     40 HAS        -0.2240    0.0430   -1.8700 h1        1 K2Z      0.051200
     41 HASA       -1.1340   -1.5200   -1.6230 h1        1 K2Z      0.051200
     42 HAE         0.7770   -2.8340   -2.1510 h1        1 K2Z      0.047367
     43 HAEA        1.8850   -1.4040   -2.3960 h1        1 K2Z      0.047367
     44 HAEB        2.2900   -2.6720   -1.1470 h1        1 K2Z      0.047367
     45 HAT         1.9880    0.2780   -0.4020 h1        1 K2Z      0.051200
     46 HATA        2.3330   -1.1500    0.6800 h1        1 K2Z      0.051200
     47 HAV         1.3470    0.9080    1.8190 h1        1 K2Z      0.038450
     48 HAVA        0.4980   -0.6770    2.1420 h1        1 K2Z      0.038450
     49 HAR        -0.6710    1.4480    2.8900 h1        1 K2Z      0.042700
     50 HARA       -2.1990    0.6830    2.2540 h1        1 K2Z      0.042700
     51 HAP        -0.9740    3.3530    1.2360 hc        1 K2Z      0.088200
     52 HAPA       -2.5270    2.5910    0.6750 hc        1 K2Z      0.088200
     53 HAQ        -3.4340    2.6680    3.0450 hx        1 K2Z      0.106700
     54 HAQA       -1.8610    3.4460    3.6090 hx        1 K2Z      0.106700
     55 HNAY       -2.3520    5.2960    2.0840 hn        1 K2Z      0.486300
     56 HBM        -2.0560    5.5210    4.8340 h1        1 K2Z      0.135700
     57 HOAI       -1.7760    7.6410    4.1650 ho        1 K2Z      0.483000
     58 HBJ        -2.9730    7.0590    6.4830 hx        1 K2Z      0.148700
     59 HAO        -4.9980    4.7190    6.0510 hc        1 K2Z      0.094200
     60 HAOA       -3.2750    4.5220    6.5820 hc        1 K2Z      0.094200
     61 HAA        -5.4440    6.1510    8.0980 hc        1 K2Z      0.074700
     62 HAAA       -4.7500    4.5460    8.5400 hc        1 K2Z      0.074700
     63 HAAB       -3.6930    6.0140    8.5650 hc        1 K2Z      0.074700
     64 HNBA       -5.3920    7.1430    4.7600 hn        1 K2Z      0.492300
     65 HA         -6.6990    9.3290    5.3380 hx        1 K2Z      0.143700
     66 HB         -4.4730   11.0690    3.9950 hc        1 K2Z      0.097700
     67 HBA        -5.5220    9.8070    3.2140 hc        1 K2Z      0.097700
     68 HG         -6.4220   12.5150    4.4240 hc        1 K2Z      0.053700
     69 HD2        -7.0250   13.0110    2.1000 hc        1 K2Z      0.062867
     70 HD2A       -5.2740   12.5540    2.1980 hc        1 K2Z      0.062867
     71 HD2B       -6.4930   11.3690    1.5530 hc        1 K2Z      0.062867
     72 HD1        -8.2110   10.8660    4.9060 hc        1 K2Z      0.062867
     73 HD1A       -8.0960   10.1890    3.2220 hc        1 K2Z      0.062867
     74 HD1B       -8.6910   11.8740    3.4850 hc        1 K2Z      0.062867
     75 HN         -6.4760   11.5340    6.3190 hn        1 K2Z      0.499800
     76 HAW        -6.9520    9.3520   10.0980 h1        1 K2Z      0.110200
     77 HAWA       -7.9940   10.9030   10.1910 h1        1 K2Z      0.110200
     78 HAM        -6.9550   13.0320   10.9640 ha        1 K2Z      0.139000
     79 HAK        -5.3640   14.0520   12.5900 ha        1 K2Z      0.170000
     80 HAJ        -3.5000   12.6850   13.5430 ha        1 K2Z      0.175000
     81 HAL        -3.2220   10.3000   12.8610 ha        1 K2Z      0.170000
     82 HAN        -4.8040    9.2700   11.2350 ha        1 K2Z      0.139000
     83 HAY2       -3.7820    4.5680    1.6100 hn        1 K2Z      0.486300
     84 HBA2       -5.5290    7.3040    6.4280 hn        1 K2Z      0.492300
     85 H2         -4.8510   11.3050    6.6310 hn        1 K2Z      0.499800
@<TRIPOS>BOND
     1    1    2 1   
     2    1    7 1   
     3    1   38 1   
     4    1   39 1   
     5    2    3 1   
     6    2   40 1   
     7    2   41 1   
     8    3    4 1   
     9    3    5 1   
    10    4   42 1   
    11    4   43 1   
    12    4   44 1   
    13    5    6 1   
    14    5   45 1   
    15    5   46 1   
    16    6    7 1   
    17    6   47 1   
    18    6   48 1   
    19    7    8 1   
    20    8    9 1   
    21    8   49 1   
    22    8   50 1   
    23    9   10 1   
    24    9   51 1   
    25    9   52 1   
    26   10   11 1   
    27   10   53 1   
    28   10   54 1   
    29   11   12 1   
    30   11   55 1   
    31   11   83 1   
    32   12   13 2   
    33   12   14 1   
    34   14   15 1   
    35   14   16 1   
    36   14   56 1   
    37   15   57 1   
    38   16   17 1   
    39   16   19 1   
    40   16   58 1   
    41   17   18 1   
    42   17   59 1   
    43   17   60 1   
    44   18   61 1   
    45   18   62 1   
    46   18   63 1   
    47   19   20 1   
    48   19   64 1   
    49   19   84 1   
    50   20   21 2   
    51   20   22 1   
    52   22   23 1   
    53   22   27 1   
    54   22   65 1   
    55   23   24 1   
    56   23   66 1   
    57   23   67 1   
    58   24   25 1   
    59   24   26 1   
    60   24   68 1   
    61   25   69 1   
    62   25   70 1   
    63   25   71 1   
    64   26   72 1   
    65   26   73 1   
    66   26   74 1   
    67   27   28 1   
    68   27   75 1   
    69   27   85 1   
    70   28   29 2   
    71   28   30 1   
    72   30   31 1   
    73   31   32 1   
    74   31   76 1   
    75   31   77 1   
    76   32   33 ar  
    77   32   37 ar  
    78   33   34 ar  
    79   33   78 1   
    80   34   35 ar  
    81   34   79 1   
    82   35   36 ar  
    83   35   80 1   
    84   36   37 ar  
    85   36   81 1   
    86   37   82 1   
@<TRIPOS>SUBSTRUCTURE
     1 K2Z         1 TEMP              0 ****  ****    0 ROOT
