@<TRIPOS>MOLECULE
K30
   61    56     1     0     0
SMALL
bcc


@<TRIPOS>ATOM
      1 C28        -6.4920   -0.0410    2.7190 c3        1 K30     -0.116000
      2 C22        -0.7880   -2.0830   -0.2410 c3        1 K30     -0.113000
      3 C18         3.5870   -2.9210    1.6340 c1        1 K30     -0.126000
      4 C17         3.6920   -3.0040    0.2530 c2        1 K30     -0.135000
      5 C19         2.7330   -1.9890    2.2120 c1        1 K30     -0.139000
      6 C16         2.9420   -2.1530   -0.5540 c1        1 K30     -0.122000
      7 C20         1.9820   -1.1370    1.4030 c2        1 K30     -0.113000
      8 C7          4.3350    4.7170   -3.1720 c1        1 K30     -0.136000
      9 C6          4.9910    4.3470   -2.0060 c1        1 K30     -0.141000
     10 C9          2.6560    3.0450   -2.7570 c1        1 K30     -0.135000
     11 C27        -2.8290   -0.7980    2.3300 c3        1 K30     -0.188000
     12 C26        -4.2290   -0.7640    2.9390 c3        1 K30     -0.065000
     13 C2          2.3130    0.3470   -1.5480 c1        1 K30     -0.163000
     14 C24        -5.1860   -0.2490    0.7390 c3        1 K30     -0.092000
     15 C           1.4340    1.8880   -0.1830 c3        1 K30      0.001000
     16 C14         0.6430   -1.5600   -1.7590 c3        1 K30     -0.030000
     17 C15         2.0860   -1.2200    0.0240 c2        1 K30     -0.074000
     18 C8          3.1680    4.0670   -3.5490 c2        1 K30      0.079000
     19 C5          4.4790    3.3270   -1.2160 c1        1 K30      0.093000
     20 C4          3.3100    2.6750   -1.5930 c1        1 K30     -0.032000
     21 C12        -2.8480   -1.1390    0.8890 c3        1 K30     -0.023000
     22 C3          2.1840    1.6710   -1.2250 c2        1 K30     -0.086000
     23 C23        -3.7860   -0.2810    0.1200 c3        1 K30      0.063000
     24 C10        -0.7620    0.2880    0.5110 c1        1 K30      0.375000
     25 C1          1.3650   -0.4890   -0.9370 c2        1 K30      0.124000
     26 N25        -5.1600    0.0850    2.1700 n3        1 K30     -0.255000
     27 N           0.5580    0.5080   -0.1530 n2        1 K30     -0.311000
     28 N11        -1.4650   -0.9690    0.3310 n3        1 K30     -0.286000
     29 O21         1.2650   -1.6800   -3.0310 oh        1 K30     -0.327000
     30 O          -1.2960    1.1990    1.1120 o         1 K30     -0.368000
     31 F13         2.4780    4.4950   -4.6210 f         1 K30     -0.100000
     32 F           5.1290    2.9500   -0.1030 f         1 K30     -0.097000
     33 F29        -3.2920    0.9870    0.0830 f         1 K30     -0.158000
     34 H28        -6.8050   -0.9630    2.6090 h1        1 K30      0.072333
     35 H28A       -6.4750    0.1870    3.6730 h1        1 K30      0.072333
     36 H28B       -7.1010    0.5700    2.2470 h1        1 K30      0.072333
     37 H22        -1.0670   -2.9020    0.2150 h1        1 K30      0.086000
     38 H22A        0.1770   -1.9660   -0.1390 h1        1 K30      0.086000
     39 H22B       -1.0110   -2.1470   -1.1920 h1        1 K30      0.086000
     40 H18         4.1170   -3.5210    2.2030 DU        1 K30      0.143250
     41 H17         4.2930   -3.6590   -0.1540 ha        1 K30      0.133000
     42 H19         2.6590   -1.9310    3.1840 DU        1 K30      0.143250
     43 H16         3.0160   -2.2120   -1.5300 DU        1 K30      0.143250
     44 H20         1.3790   -0.4800    1.8100 ha        1 K30      0.144000
     45 H7          4.6950    5.4340   -3.7270 ha        1 K30      0.157000
     46 H6          5.8160    4.8060   -1.7400 ha        1 K30      0.157000
     47 H9          1.8390    2.5900   -3.0210 DU        1 K30      0.143250
     48 H27        -2.4170    0.0760    2.4410 hc        1 K30      0.116500
     49 H27A       -2.2950   -1.4600    2.8030 hc        1 K30      0.116500
     50 H26        -4.5830   -1.6740    2.9670 h1        1 K30      0.070500
     51 H26A       -4.1670   -0.4170    3.8580 h1        1 K30      0.070500
     52 H24        -5.6010   -1.1260    0.6270 h1        1 K30      0.081500
     53 H24A       -5.7260    0.4190    0.2680 h1        1 K30      0.081500
     54 H           1.8400    2.0730    0.6910 h1        1 K30      0.121500
     55 HA          0.8980    2.7050   -0.3360 h1        1 K30      0.121500
     56 H14         0.6900   -2.4180   -1.2910 h1        1 K30      0.109000
     57 H14A       -0.2880   -1.3060   -1.8770 h1        1 K30      0.109000
     58 H12        -3.1200   -2.0790    0.7870 h1        1 K30      0.101000
     59 H23        -3.8510   -0.6250   -0.7950 h1        1 K30      0.094000
     60 HO21        0.7090   -2.0850   -3.5960 ho        1 K30      0.200000
     61 H2          3.1820   -0.0090   -1.8060 ha        1 K30      0.164000
@<TRIPOS>BOND
     1    1   26 1   
     2    1   34 1   
     3    1   35 1   
     4    1   36 1   
     5    2   28 1   
     6    2   37 1   
     7    2   38 1   
     8    2   39 1   
     9    3    4 1   
    10    3    5 1   
    11    4    6 1   
    12    4   41 1   
    13    5    7 1   
    14    6   17 1   
    15    7   17 1   
    16    7   44 1   
    17    8   18 1   
    18    8   45 1   
    19    9   19 1   
    20    9   46 1   
    21   10   18 1   
    22   10   20 1   
    23   11   12 1   
    24   11   21 1   
    25   11   48 1   
    26   11   49 1   
    27   12   26 1   
    28   12   50 1   
    29   12   51 1   
    30   13   22 1   
    31   13   61 1   
    32   14   23 1   
    33   14   26 1   
    34   14   52 1   
    35   14   53 1   
    36   15   22 1   
    37   15   27 1   
    38   15   54 1   
    39   15   55 1   
    40   16   25 1   
    41   16   29 1   
    42   16   56 1   
    43   16   57 1   
    44   17   25 1   
    45   18   31 1   
    46   19   32 1   
    47   20   22 1   
    48   21   23 1   
    49   21   28 1   
    50   21   58 1   
    51   23   33 1   
    52   23   59 1   
    53   24   28 1   
    54   24   30 1   
    55   25   27 1   
    56   29   60 1   
@<TRIPOS>SUBSTRUCTURE
     1 K30         1 TEMP              0 ****  ****    0 ROOT
