@<TRIPOS>MOLECULE
K30
   62    65     1     0     0
SMALL
bcc


@<TRIPOS>ATOM
      1 C28         1.5260   -1.1310    1.3420 c3        1 K30     -0.120000
      2 C22         5.5380    1.5200   -2.9920 c3        1 K30     -0.100000
      3 C18         7.1520   -4.0240    1.6900 ca        1 K30     -0.104000
      4 C17         6.4570   -4.6930    0.6850 ca        1 K30     -0.126000
      5 C19         8.0270   -2.9890    1.3510 ca        1 K30     -0.126000
      6 C16         6.6280   -4.3360   -0.6550 ca        1 K30     -0.119500
      7 C20         8.2050   -2.6360    0.0170 ca        1 K30     -0.119500
      8 C7         10.2110   -6.1440   -5.8370 ca        1 K30     -0.120000
      9 C6          9.9330   -4.8290   -6.1780 ca        1 K30     -0.121000
     10 C9          9.8670   -5.5980   -3.4810 ca        1 K30     -0.137000
     11 C27         4.9270   -0.8380   -0.2790 c3        1 K30     -0.196000
     12 C26         3.8790   -1.2280    0.7710 c3        1 K30     -0.065000
     13 C2          9.3240   -3.2930   -2.7220 c3        1 K30     -0.166000
     14 C24         2.2020   -1.9260   -0.8330 c3        1 K30     -0.100000
     15 C           9.0700   -0.9100   -2.8910 c3        1 K30     -0.167000
     16 C14         6.9270   -3.7410   -3.4610 c3        1 K30     -0.017000
     17 C15         7.5070   -3.3060   -1.0040 ca        1 K30     -0.125000
     18 C8         10.1750   -6.5340   -4.4830 ca        1 K30      0.101000
     19 C5          9.6170   -3.8900   -5.1780 ca        1 K30      0.071000
     20 C4          9.5850   -4.2710   -3.8180 ca        1 K30     -0.079000
     21 C12         4.3860   -0.9810   -1.6870 c3        1 K30      0.021000
     22 C3         10.0480   -2.0180   -2.9400 c1        1 K30      0.118000
     23 C23         3.3970   -2.1710   -1.7910 c3        1 K30      0.060000
     24 C10         6.6210   -0.6810   -2.6340 c2        1 K30      0.388000
     25 C1          7.7910   -2.9480   -2.4480 c3        1 K30      0.089000
     26 N25         2.5170   -1.0590    0.2910 n3        1 K30     -0.268000
     27 N           7.7250   -1.4650   -2.6560 n3        1 K30     -0.251000
     28 N11         6.6730    0.6830   -2.7120 n7        1 K30     -0.313000
     29 O           5.4190   -1.3390   -2.6500 os        1 K30     -0.218000
     30 F29         2.9480   -2.3130   -3.0910 f         1 K30     -0.153000
     31 H28         0.5150   -0.9430    0.8940 h1        1 K30      0.087000
     32 H28A        1.5090   -2.1260    1.8660 h1        1 K30      0.087000
     33 H28B        1.7430   -0.3290    2.0950 h1        1 K30      0.087000
     34 H22         5.9050    2.4580   -3.4910 h1        1 K30      0.120333
     35 H22A        5.0190    1.7970   -2.0330 h1        1 K30      0.120333
     36 H22B        4.8170    1.0010   -3.6790 h1        1 K30      0.120333
     37 H18         7.0210   -4.3130    2.7440 ha        1 K30      0.154000
     38 H17         5.7710   -5.5160    0.9430 ha        1 K30      0.152000
     39 H19         8.5850   -2.4600    2.1390 ha        1 K30      0.152000
     40 H16         6.0560   -4.8840   -1.4220 ha        1 K30      0.142500
     41 H20         8.9180   -1.8350   -0.2310 ha        1 K30      0.142500
     42 H7         10.4640   -6.8850   -6.6120 ha        1 K30      0.175000
     43 H6          9.9620   -4.5060   -7.2310 ha        1 K30      0.171000
     44 H9          9.8600   -5.9220   -2.4280 ha        1 K30      0.164000
     45 H27         5.2430    0.2250   -0.1150 hc        1 K30      0.105000
     46 H27A        5.8280   -1.4960   -0.1440 hc        1 K30      0.105000
     47 H26         4.0170   -0.5670    1.6730 h1        1 K30      0.091000
     48 H26A        4.0790   -2.2910    1.0960 h1        1 K30      0.091000
     49 H24         1.3710   -1.4290   -1.4100 h1        1 K30      0.106000
     50 H24A        1.8330   -2.9410   -0.5040 h1        1 K30      0.106000
     51 H           9.1150   -0.3710   -3.8870 h1        1 K30      0.166000
     52 HA          9.3620   -0.1910   -2.0700 h1        1 K30      0.166000
     53 H14         7.1640   -3.4010   -4.5040 h1        1 K30      0.114000
     54 H14A        7.2100   -4.8280   -3.3470 h1        1 K30      0.114000
     55 H12         7.5650    1.1340   -2.6920 hn        1 K30      0.263000
     56 H23         3.9470   -3.1170   -1.5070 h1        1 K30      0.134000
     57 HO21        5.1300   -3.0880   -3.8280 ho        1 K30      0.225000
     58 H2          9.7540   -3.7210   -1.7600 hc        1 K30      0.192000
     59 F13        10.4400   -7.8150   -4.1420 f         1 K30     -0.081000
     60 H111        3.8830   -0.0440   -2.0490 h1        1 K30      0.129000
     61 O21         5.5490   -3.6820   -3.1910 oh        1 K30     -0.320000
     62 F           9.3380   -2.6110   -5.5400 f         1 K30     -0.115000
@<TRIPOS>BOND
     1    1   26 1   
     2    1   31 1   
     3    1   32 1   
     4    1   33 1   
     5    2   28 1   
     6    2   34 1   
     7    2   35 1   
     8    2   36 1   
     9    3    4 1   
    10    3    5 1   
    11    3   37 1   
    12    4    6 1   
    13    4   38 1   
    14    5    7 1   
    15    5   39 1   
    16    6   17 1   
    17    6   40 1   
    18    7   17 1   
    19    7   41 1   
    20    8    9 1   
    21    8   18 1   
    22    8   42 1   
    23    9   19 1   
    24    9   43 1   
    25   10   18 1   
    26   10   20 1   
    27   10   44 1   
    28   11   12 1   
    29   11   21 1   
    30   11   45 1   
    31   11   46 1   
    32   12   26 1   
    33   12   47 1   
    34   12   48 1   
    35   13   20 1   
    36   13   22 1   
    37   13   25 1   
    38   13   58 1   
    39   14   23 1   
    40   14   26 1   
    41   14   49 1   
    42   14   50 1   
    43   15   22 1   
    44   15   27 1   
    45   15   51 1   
    46   15   52 1   
    47   16   25 1   
    48   16   53 1   
    49   16   54 1   
    50   16   61 1   
    51   17   25 1   
    52   18   59 1   
    53   19   20 1   
    54   19   62 1   
    55   21   23 1   
    56   21   29 1   
    57   21   60 1   
    58   23   30 1   
    59   23   56 1   
    60   24   27 1   
    61   24   28 1   
    62   24   29 1   
    63   25   27 1   
    64   28   55 1   
    65   57   61 1   
@<TRIPOS>SUBSTRUCTURE
     1 K30         1 TEMP              0 ****  ****    0 ROOT
