@<TRIPOS>MOLECULE
K30
   61    64     1     0     0
SMALL
bcc


@<TRIPOS>ATOM
      1 C28         7.5750   -0.5910    0.9750 c3        1 K30      0.159100
      2 C22         1.5440   -2.3570    0.0340 c3        1 K30      0.059300
      3 C18         0.0540    4.8700    0.7910 ca        1 K30     -0.119000
      4 C17        -0.9710    4.0570    1.2730 ca        1 K30     -0.137500
      5 C19         0.7780    4.4740   -0.3320 ca        1 K30     -0.137500
      6 C16        -1.2750    2.8580    0.6290 ca        1 K30     -0.108000
      7 C20         0.4760    3.2760   -0.9770 ca        1 K30     -0.108000
      8 C7         -5.9680   -2.3630    1.1320 ca        1 K30     -0.138000
      9 C6         -4.8100   -2.4620    1.8870 ca        1 K30     -0.141000
     10 C9         -4.7850   -0.9540   -0.4700 ca        1 K30     -0.136000
     11 C27         3.9150   -1.3290    1.5790 c3        1 K30     -0.081400
     12 C26         5.3290   -0.8090    1.8280 c3        1 K30      0.169800
     13 C2         -2.3700    0.7950   -0.8860 c2        1 K30     -0.136200
     14 C24         5.7170   -0.5390   -0.5550 c3        1 K30      0.143800
     15 C          -1.0210   -0.8960    0.0280 c3        1 K30      0.129200
     16 C14        -0.8030    1.3210   -2.7580 c3        1 K30      0.129400
     17 C15        -0.5620    2.4610   -0.5090 ca        1 K30     -0.114300
     18 C8         -5.9570   -1.6040   -0.0530 ca        1 K30      0.115900
     19 C5         -3.6300   -1.8120    1.4760 ca        1 K30      0.118900
     20 C4         -3.6080   -1.0480    0.2850 ca        1 K30     -0.039800
     21 C12         3.3500   -0.6800    0.3100 c3        1 K30      0.074700
     22 C3         -2.4270   -0.3560   -0.1810 ce        1 K30     -0.098400
     23 C23         4.2860   -1.0250   -0.8880 c3        1 K30      0.142600
     24 C10         1.2410   -0.0160   -0.6940 c         1 K30      0.777100
     25 C1         -0.9210    1.1680   -1.2150 c3        1 K30      0.173900
     26 N25         6.2290   -1.0430    0.7070 n3        1 K30     -0.731600
     27 N          -0.1520   -0.0110   -0.7390 n         1 K30     -0.464800
     28 N11         1.9380   -0.9750    0.1050 n         1 K30     -0.449800
     29 O           1.8880    0.8360   -1.3550 o         1 K30     -0.654100
     30 F          -2.5250   -1.9320    2.2500 f         1 K30     -0.136900
     31 F29         4.2710   -2.3720   -1.2050 f         1 K30     -0.239300
     32 H28         7.6510    0.5230    1.1150 h1        1 K30      0.033367
     33 H28A        7.9460   -1.0930    1.9070 h1        1 K30      0.033367
     34 H28B        8.2340   -0.8880    0.1180 h1        1 K30      0.033367
     35 H22         2.4390   -3.0300    0.1330 h1        1 K30      0.047033
     36 H22A        0.8380   -2.5790    0.8800 h1        1 K30      0.047033
     37 H22B        1.0420   -2.6040   -0.9390 h1        1 K30      0.047033
     38 H18         0.2930    5.8160    1.2990 ha        1 K30      0.132000
     39 H17        -1.5410    4.3580    2.1640 ha        1 K30      0.134000
     40 H19         1.5980    5.1040   -0.7100 ha        1 K30      0.134000
     41 H16        -2.0830    2.2250    1.0280 ha        1 K30      0.148000
     42 H20         1.0830    2.9550   -1.8400 ha        1 K30      0.148000
     43 H7         -6.8920   -2.8690    1.4490 ha        1 K30      0.157000
     44 H6         -4.8000   -3.0490    2.8190 ha        1 K30      0.157000
     45 H9         -4.7920   -0.3670   -1.4020 ha        1 K30      0.161000
     46 H27         3.9360   -2.4450    1.4690 hc        1 K30      0.061700
     47 H27A        3.2800   -1.0750    2.4650 hc        1 K30      0.061700
     48 H26         5.2690    0.2890    2.0910 h1        1 K30      0.034200
     49 H26A        5.7550   -1.3500    2.7200 h1        1 K30      0.034200
     50 H24         6.4050   -0.9030   -1.3690 h1        1 K30      0.046200
     51 H24A        5.6980    0.5900   -0.5860 h1        1 K30      0.046200
     52 H          -0.7500   -0.9010    1.1210 h1        1 K30      0.068200
     53 HA         -0.9530   -1.9450   -0.3730 h1        1 K30      0.068200
     54 H14         0.2720    1.4620   -3.0480 h1        1 K30      0.069200
     55 H14A       -1.2160    0.4080   -3.2660 h1        1 K30      0.069200
     56 H12         3.4240    0.4450    0.4330 h1        1 K30      0.084700
     57 H23         3.9310   -0.4510   -1.7960 h1        1 K30      0.079700
     58 HO21       -1.2530    3.1990   -2.8490 ho        1 K30      0.407000
     59 H2         -3.1770    1.4390   -1.2380 ha        1 K30      0.170000
     60 O21        -1.6010    2.3820   -3.2320 oh        1 K30     -0.597800
     61 F13        -7.0840   -1.5010   -0.7980 f         1 K30     -0.133900
@<TRIPOS>BOND
     1    1   26 1   
     2    1   32 1   
     3    1   33 1   
     4    1   34 1   
     5    2   28 1   
     6    2   35 1   
     7    2   36 1   
     8    2   37 1   
     9    3    4 ar  
    10    3    5 ar  
    11    3   38 1   
    12    4    6 ar  
    13    4   39 1   
    14    5    7 ar  
    15    5   40 1   
    16    6   17 ar  
    17    6   41 1   
    18    7   17 ar  
    19    7   42 1   
    20    8    9 ar  
    21    8   18 ar  
    22    8   43 1   
    23    9   19 ar  
    24    9   44 1   
    25   10   18 ar  
    26   10   20 ar  
    27   10   45 1   
    28   11   12 1   
    29   11   21 1   
    30   11   46 1   
    31   11   47 1   
    32   12   26 1   
    33   12   48 1   
    34   12   49 1   
    35   13   22 2   
    36   13   25 1   
    37   13   59 1   
    38   14   23 1   
    39   14   26 1   
    40   14   50 1   
    41   14   51 1   
    42   15   22 1   
    43   15   27 1   
    44   15   52 1   
    45   15   53 1   
    46   16   25 1   
    47   16   54 1   
    48   16   55 1   
    49   16   60 1   
    50   17   25 1   
    51   18   61 1   
    52   19   20 ar  
    53   19   30 1   
    54   20   22 1   
    55   21   23 1   
    56   21   28 1   
    57   21   56 1   
    58   23   31 1   
    59   23   57 1   
    60   24   27 1   
    61   24   28 1   
    62   24   29 2   
    63   25   27 1   
    64   58   60 1   
@<TRIPOS>SUBSTRUCTURE
     1 K30         1 TEMP              0 ****  ****    0 ROOT
