@<TRIPOS>MOLECULE
K32
   16    17     1     0     0
SMALL
bcc


@<TRIPOS>ATOM
      1 BR1         3.6230   -3.3080   -1.0540 br        1 K32     -0.033100
      2 C5          2.6950   -2.1060    0.0260 ca        1 K32     -0.016900
      3 C2          1.5570   -1.4160   -0.4390 ca        1 K32      0.009100
      4 BR2         0.9750   -1.7240   -2.1880 br        1 K32     -0.023100
      5 C7          3.1140   -1.8660    1.3270 ca        1 K32      0.045600
      6 N14         4.1820   -2.3770    2.0740 n         1 K32     -0.453100
      7 C13         4.1560   -1.7890    3.3710 c         1 K32      0.803500
      8 O10         4.9540   -2.0120    4.2930 o         1 K32     -0.604500
      9 N6          3.0460   -0.8970    3.4160 n         1 K32     -0.453100
     10 C8          2.3950   -0.9280    2.1770 ca        1 K32      0.045600
     11 C4          1.2760   -0.2580    1.7010 ca        1 K32     -0.016900
     12 BR3         0.3620    0.9400    2.7970 br        1 K32     -0.033100
     13 C3          0.8660   -0.5150    0.3770 ca        1 K32      0.009100
     14 BR4        -0.6380    0.3770   -0.2830 br        1 K32     -0.023100
     15 H14         4.8510   -3.0360    1.7690 hn        1 K32      0.372500
     16 H6          2.7920   -0.3540    4.2000 hn        1 K32      0.372500
@<TRIPOS>BOND
     1    1    2 1   
     2    2    3 ar  
     3    2    5 ar  
     4    3    4 1   
     5    3   13 ar  
     6    5    6 1   
     7    5   10 ar  
     8    6    7 1   
     9    6   15 1   
    10    7    8 2   
    11    7    9 1   
    12    9   10 1   
    13    9   16 1   
    14   10   11 ar  
    15   11   12 1   
    16   11   13 ar  
    17   13   14 1   
@<TRIPOS>SUBSTRUCTURE
     1 K32         1 TEMP              0 ****  ****    0 ROOT
