@<TRIPOS>MOLECULE
K32
   16    17     1     0     0
SMALL
bcc


@<TRIPOS>ATOM
      1 BR1         0.0320    0.0020    0.1170 br        1 K32     -0.033100
      2 C5          1.8930    0.0000    0.0120 ca        1 K32     -0.016900
      3 C2          2.7010    0.0000    1.1670 ca        1 K32      0.009100
      4 BR2         1.8710    0.0020    2.8410 br        1 K32     -0.023100
      5 C7          2.5250   -0.0010   -1.2240 ca        1 K32      0.045600
      6 N14         2.0220   -0.0010   -2.5300 n         1 K32     -0.453100
      7 C13         3.1170   -0.0020   -3.4420 c         1 K32      0.803500
      8 O10         3.0400   -0.0030   -4.6790 o         1 K32     -0.604500
      9 N6          4.3160   -0.0030   -2.6720 n         1 K32     -0.453100
     10 C8          3.9770   -0.0020   -1.3140 ca        1 K32      0.045600
     11 C4          4.7570   -0.0020   -0.1650 ca        1 K32     -0.016900
     12 BR3         6.6160   -0.0040   -0.2910 br        1 K32     -0.033100
     13 C3          4.0970   -0.0010    1.0800 ca        1 K32      0.009100
     14 BR4         5.1270   -0.0010    2.6400 br        1 K32     -0.023100
     15 H14         1.0710    0.0000   -2.7950 hn        1 K32      0.372500
     16 H6          5.2260   -0.0040   -3.0520 hn        1 K32      0.372500
@<TRIPOS>BOND
     1    1    2 1   
     2    2    3 ar  
     3    2    5 ar  
     4    3    4 1   
     5    3   13 ar  
     6    5    6 1   
     7    5   10 ar  
     8    6    7 1   
     9    6   15 1   
    10    7    8 2   
    11    7    9 1   
    12    9   10 1   
    13    9   16 1   
    14   10   11 ar  
    15   11   12 1   
    16   11   13 ar  
    17   13   14 1   
@<TRIPOS>SUBSTRUCTURE
     1 K32         1 TEMP              0 ****  ****    0 ROOT
