@<TRIPOS>MOLECULE
K36
   63    59     1     0     0
SMALL
bcc


@<TRIPOS>ATOM
      1 C7         -4.3500   -0.6810   -2.1480 c3        1 K36      0.038000
      2 O8         -2.9500   -0.9450   -2.1580 os        1 K36     -0.281000
      3 C9         -2.3440   -0.8990   -0.8690 c1        1 K36      0.384000
      4 O10        -2.9440   -0.4090    0.0670 o         1 K36     -0.413000
      5 C1         -4.8830   -0.6870   -3.5860 c2        1 K36     -0.081000
      6 C2         -5.3560   -1.8700   -4.1470 c1        1 K36     -0.128000
      7 C3         -5.9000   -1.8640   -5.4280 c1        1 K36     -0.134500
      8 C4         -5.9710   -0.6750   -6.1480 c1        1 K36     -0.134500
      9 C5         -5.4980    0.5080   -5.5870 c1        1 K36     -0.132000
     10 C6         -4.9540    0.5020   -4.3060 c2        1 K36     -0.099000
     11 N11        -0.9910   -1.3550   -0.6960 n2        1 K36     -0.304000
     12 C12        -0.4200   -1.4040    0.5990 c3        1 K36     -0.015000
     13 C17         1.0220   -0.9130    0.5390 c1        1 K36      0.268000
     14 O18         1.8300   -1.4850   -0.1720 o         1 K36     -0.370000
     15 C13        -0.4480   -2.8430    1.1150 c3        1 K36     -0.164000
     16 C14        -1.0640   -2.8710    2.5450 c3        1 K36     -0.106000
     17 C15        -2.5630   -3.2110    2.4520 c3        1 K36     -0.215500
     18 C16        -0.3460   -3.9400    3.3940 c3        1 K36     -0.215500
     19 N19         1.4030    0.3100    1.2340 n2        1 K36     -0.320000
     20 C20         2.6040    0.9980    0.8640 c3        1 K36      0.012000
     21 C21         3.8010    0.1580    1.2370 c3        1 K36     -0.632000
     22 O22         3.3660   -1.0720    1.7560 oh        1 K36     -0.336000
     23 C24         2.6720    2.3350    1.5970 c3        1 K36     -0.140000
     24 C25         3.4730    3.3420    0.7550 c3        1 K36     -0.142000
     25 C26         4.5700    3.6230    1.3460 c3        1 K36     -0.182000
     26 C27         4.2670    4.9230    2.3520 c3        1 K36     -0.033000
     27 N28         3.5160    5.6960    1.7270 n         1 K36     -0.393000
     28 C29         2.7140    4.8040    0.7670 c2        1 K36      0.301000
     29 O30         1.8790    5.1850   -0.0350 o         1 K36     -0.370000
     30 S1          4.8050   -0.1270   -0.2120 s4        1 K36      2.052800
     31 O1          6.1940    0.4480   -0.0400 o         1 K36     -0.662900
     32 O2          5.1140   -1.5970   -0.3850 o         1 K36     -0.662900
     33 O3          4.1250    0.4400   -1.4420 os        1 K36     -1.055000
     34 H1         -4.8110   -1.3740   -1.6250 h1        1 K36      0.101000
     35 H2         -4.5150    0.2000   -1.7410 h1        1 K36      0.101000
     36 H3         -5.3060   -2.7090   -3.6390 ha        1 K36      0.130000
     37 H18        -6.2370   -2.6990   -5.8230 ha        1 K36      0.125000
     38 H28        -6.3560   -0.6710   -7.0530 ha        1 K36      0.125000
     39 H29        -5.5490    1.3480   -6.0970 ha        1 K36      0.132000
     40 H30        -4.6200    1.3370   -3.9100 ha        1 K36      0.156000
     41 H4         -0.5040   -1.6410   -1.4240 hn        1 K36      0.252000
     42 H5         -0.9360   -0.8300    1.2050 h1        1 K36      0.134000
     43 H6         -0.9950   -3.3980    0.5120 hc        1 K36      0.105500
     44 H7          0.4660   -3.1970    1.1460 hc        1 K36      0.105500
     45 H8         -0.9530   -1.9900    2.9660 hc        1 K36      0.086000
     46 H9         -2.9290   -3.3310    3.3580 hc        1 K36      0.077000
     47 H10        -3.0380   -2.4790    2.0020 hc        1 K36      0.077000
     48 H11        -2.6800   -4.0430    1.9390 hc        1 K36      0.077000
     49 H12         0.4230   -3.8790    4.0120 hc        1 K36      0.077000
     50 H13         0.3650   -3.7340    2.7530 hc        1 K36      0.077000
     51 H14        -0.7520   -3.4050    4.1110 hc        1 K36      0.077000
     52 H15         0.8390    0.6760    1.8600 hn        1 K36      0.220000
     53 H16         2.6050    1.1560   -0.1060 h1        1 K36      0.147000
     54 H17         4.3320    0.6290    1.9150 h2        1 K36      0.119000
     55 H19         4.0050   -1.4190    2.2740 ho        1 K36      0.213000
     56 H20         1.7620    2.6780    1.7390 hc        1 K36      0.090000
     57 H21         3.1150    2.2100    2.4660 hc        1 K36      0.090000
     58 H22         3.5290    2.8680   -0.1040 hc        1 K36      0.182000
     59 H23         5.2570    3.8650    0.6820 hc        1 K36      0.118000
     60 H24         4.8710    2.8540    1.8750 hc        1 K36      0.118000
     61 H25         5.1100    5.3800    2.5740 h1        1 K36      0.069500
     62 H26         3.8250    4.6160    3.1740 h1        1 K36      0.069500
     63 H27         3.3030    6.5570    1.9700 hn        1 K36      0.219000
@<TRIPOS>BOND
     1    1    2 1   
     2    1    5 1   
     3    1   34 1   
     4    1   35 1   
     5    2    3 1   
     6    3    4 1   
     7    5    6 1   
     8    5   10 1   
     9    6   36 1   
    10    7    8 1   
    11    7   37 1   
    12    8   38 1   
    13    9   10 1   
    14    9   39 1   
    15   10   40 1   
    16   11   12 1   
    17   11   41 1   
    18   12   13 1   
    19   12   15 1   
    20   12   42 1   
    21   13   14 1   
    22   15   16 1   
    23   15   43 1   
    24   15   44 1   
    25   16   17 1   
    26   16   18 1   
    27   16   45 1   
    28   17   46 1   
    29   17   47 1   
    30   17   48 1   
    31   18   49 1   
    32   18   50 1   
    33   18   51 1   
    34   19   20 1   
    35   19   52 1   
    36   20   21 1   
    37   20   23 1   
    38   20   53 1   
    39   21   22 1   
    40   21   30 1   
    41   21   54 1   
    42   22   55 1   
    43   23   24 1   
    44   23   56 1   
    45   23   57 1   
    46   24   25 1   
    47   24   28 1   
    48   24   58 1   
    49   25   26 1   
    50   25   59 1   
    51   25   60 1   
    52   26   27 1   
    53   26   61 1   
    54   26   62 1   
    55   27   28 1   
    56   27   63 1   
    57   28   29 1   
    58   30   31 1   
    59   30   32 1   
@<TRIPOS>SUBSTRUCTURE
     1 K36         1 TEMP              0 ****  ****    0 ROOT
