@<TRIPOS>MOLECULE
K36
   63    64     1     0     0
SMALL
bcc


@<TRIPOS>ATOM
      1 C7          4.9840    0.8790   -0.6700 c3        1 K36      0.194700
      2 O8          4.0030   -0.0810   -0.2480 os        1 K36     -0.451900
      3 C9          2.8360   -0.0890   -1.0020 c         1 K36      0.725100
      4 O10         2.7280    0.7570   -1.9040 o         1 K36     -0.587000
      5 C1          6.1500    0.7870    0.2560 ca        1 K36     -0.084300
      6 C2          6.0180    0.3040    1.5610 ca        1 K36     -0.114500
      7 C3          7.1260    0.2630    2.4070 ca        1 K36     -0.134500
      8 C4          8.3680    0.7070    1.9560 ca        1 K36     -0.135000
      9 C5          8.5040    1.1890    0.6550 ca        1 K36     -0.134500
     10 C6          7.4010    1.2280   -0.1960 ca        1 K36     -0.114500
     11 N11         2.0020   -1.1440   -0.6740 n         1 K36     -0.483900
     12 C12         0.5790   -1.0350   -0.9790 c3        1 K36      0.011700
     13 C17        -0.2410   -0.7890    0.3200 c         1 K36      0.634100
     14 O18         0.2740   -1.0070    1.4430 o         1 K36     -0.665100
     15 C13         0.0800   -2.3150   -1.6700 c3        1 K36     -0.070400
     16 C14        -1.1370   -2.1230   -2.5650 c3        1 K36     -0.091700
     17 C15        -0.9690   -0.9850   -3.5490 c3        1 K36     -0.088100
     18 C16        -1.3940   -3.4220   -3.3080 c3        1 K36     -0.088100
     19 N19        -1.4980   -0.2900    0.1610 n         1 K36     -0.528900
     20 C20        -2.3870    0.0060    1.2610 c3        1 K36      0.121700
     21 C21        -3.3650   -1.1510    1.5820 c3        1 K36     -0.059100
     22 O22        -4.0090   -0.8350    2.8080 oh        1 K36     -0.589800
     23 C24        -3.2120    1.2790    0.9900 c3        1 K36     -0.091400
     24 C25        -2.3660    2.5100    0.7360 c3        1 K36     -0.127700
     25 C26        -3.0430    3.7920    1.2500 c3        1 K36     -0.093400
     26 C27        -3.2060    4.7180    0.0260 c3        1 K36      0.082000
     27 N28        -2.5580    4.0640   -1.0850 n         1 K36     -0.578900
     28 C29        -2.1470    2.7660   -0.7610 c         1 K36      0.697500
     29 O30        -1.6360    2.0040   -1.5930 o         1 K36     -0.620500
     30 S1         -4.5690   -1.6010    0.2660 s6        1 K36      1.408800
     31 O1         -5.6890   -0.8120    0.6200 o         1 K36     -0.737867
     32 O2         -3.9470   -1.2100   -0.9410 o         1 K36     -0.737867
     33 O3         -4.7400   -2.9860    0.4020 o         1 K36     -0.737867
     34 H1          5.2780    0.6520   -1.7290 h1        1 K36      0.061200
     35 H2          4.5260    1.9060   -0.6300 h1        1 K36      0.061200
     36 H3          5.0340   -0.0500    1.9110 ha        1 K36      0.143500
     37 H18         7.0160   -0.1210    3.4310 ha        1 K36      0.127000
     38 H28         9.2400    0.6750    2.6250 ha        1 K36      0.124000
     39 H29         9.4830    1.5380    0.2970 ha        1 K36      0.127000
     40 H30         7.5100    1.6040   -1.2240 ha        1 K36      0.143500
     41 H4          2.1980   -1.5860    0.2050 hn        1 K36      0.325500
     42 H5          0.4350   -0.1500   -1.6740 h1        1 K36      0.116700
     43 H6          0.9100   -2.7360   -2.3020 hc        1 K36      0.048700
     44 H7         -0.1640   -3.0800   -0.8860 hc        1 K36      0.048700
     45 H8         -2.0540   -1.9150   -1.9340 hc        1 K36      0.116700
     46 H9         -1.7290   -1.0710   -4.3630 hc        1 K36      0.031700
     47 H10        -1.1230    0.0020   -3.0440 hc        1 K36      0.031700
     48 H11         0.0480   -1.0020   -4.0110 hc        1 K36      0.031700
     49 H12        -1.4900   -4.2700   -2.5880 hc        1 K36      0.031700
     50 H13        -2.3440   -3.3450   -3.8900 hc        1 K36      0.031700
     51 H14        -0.5600   -3.6470   -4.0160 hc        1 K36      0.031700
     52 H15        -1.8960   -0.2170   -0.7570 hn        1 K36      0.361500
     53 H16        -1.7540    0.1780    2.1840 h1        1 K36      0.068700
     54 H17        -2.7550   -2.0650    1.8150 h2        1 K36      0.089700
     55 H19        -4.8730   -0.4590    2.5740 ho        1 K36      0.404000
     56 H20        -3.9080    1.0950    0.1270 hc        1 K36      0.074200
     57 H21        -3.8440    1.4420    1.9050 hc        1 K36      0.074200
     58 H22        -1.3570    2.3880    1.2140 hc        1 K36      0.086700
     59 H23        -4.0410    3.5750    1.7020 hc        1 K36      0.054200
     60 H24        -2.4090    4.2840    2.0270 hc        1 K36      0.054200
     61 H25        -4.2950    4.9050   -0.1850 h1        1 K36      0.031700
     62 H26        -2.7140    5.7120    0.2100 h1        1 K36      0.031700
     63 H27        -2.7800    4.3180   -2.0140 hn        1 K36      0.313500
@<TRIPOS>BOND
     1    1    2 1   
     2    1    5 1   
     3    1   34 1   
     4    1   35 1   
     5    2    3 1   
     6    3    4 2   
     7    3   11 1   
     8    5    6 ar  
     9    5   10 ar  
    10    6    7 ar  
    11    6   36 1   
    12    7    8 ar  
    13    7   37 1   
    14    8    9 ar  
    15    8   38 1   
    16    9   10 ar  
    17    9   39 1   
    18   10   40 1   
    19   11   12 1   
    20   11   41 1   
    21   12   13 1   
    22   12   15 1   
    23   12   42 1   
    24   13   14 2   
    25   13   19 1   
    26   15   16 1   
    27   15   43 1   
    28   15   44 1   
    29   16   17 1   
    30   16   18 1   
    31   16   45 1   
    32   17   46 1   
    33   17   47 1   
    34   17   48 1   
    35   18   49 1   
    36   18   50 1   
    37   18   51 1   
    38   19   20 1   
    39   19   52 1   
    40   20   21 1   
    41   20   23 1   
    42   20   53 1   
    43   21   22 1   
    44   21   30 1   
    45   21   54 1   
    46   22   55 1   
    47   23   24 1   
    48   23   56 1   
    49   23   57 1   
    50   24   25 1   
    51   24   28 1   
    52   24   58 1   
    53   25   26 1   
    54   25   59 1   
    55   25   60 1   
    56   26   27 1   
    57   26   61 1   
    58   26   62 1   
    59   27   28 1   
    60   27   63 1   
    61   28   29 2   
    62   30   31 1   
    63   30   32 1   
    64   30   33 1   
@<TRIPOS>SUBSTRUCTURE
     1 K36         1 TEMP              0 ****  ****    0 ROOT
