@<TRIPOS>MOLECULE
K37
   19    20     1     0     0
SMALL
bcc


@<TRIPOS>ATOM
      1 C1         -0.0500    0.0020   -0.0250 ca        1 K37      0.020100
      2 C2          1.3620   -0.0010   -0.0610 ca        1 K37     -0.011900
      3 C3          2.1270   -0.0030    1.1080 ca        1 K37      0.050100
      4 C4         -0.7480    0.0020    1.1850 ca        1 K37     -0.007900
      5 N5         -0.3580   -0.0000    3.7110 na        1 K37     -0.254300
      6 C6          0.0040   -0.0000    2.3640 ca        1 K37     -0.044200
      7 C7          1.4570   -0.0030    2.3400 ca        1 K37      0.109400
      8 N8          1.9440   -0.0040    3.6570 nc        1 K37     -0.570100
      9 C9          0.8450   -0.0030    4.4520 cd        1 K37      0.414700
     10 S           0.8210   -0.0040    6.1460 ss        1 K37     -0.102300
     11 C11         2.5150   -0.0070    6.5950 c3        1 K37     -0.054000
     12 Br10       -2.6110    0.0050    1.2620 br        1 K37     -0.046100
     13 Br11       -1.0160    0.0050   -1.6250 br        1 K37     -0.030100
     14 Br12        2.2320   -0.0010   -1.7160 br        1 K37     -0.033100
     15 Br13        3.9890   -0.0060    1.0600 br        1 K37     -0.022100
     16 HN5        -1.2760    0.0010    4.0740 hn        1 K37      0.325700
     17 H111        3.0530    0.8950    6.2260 h1        1 K37      0.085367
     18 H112        2.5120   -0.0080    7.7110 h1        1 K37      0.085367
     19 H113        3.0500   -0.9100    6.2240 h1        1 K37      0.085367
@<TRIPOS>BOND
     1    1    2 ar  
     2    1    4 ar  
     3    1   13 1   
     4    2    3 ar  
     5    2   14 1   
     6    3    7 ar  
     7    3   15 1   
     8    4    6 ar  
     9    4   12 1   
    10    5    6 1   
    11    5    9 1   
    12    5   16 1   
    13    6    7 ar  
    14    7    8 1   
    15    8    9 2   
    16    9   10 1   
    17   10   11 1   
    18   11   17 1   
    19   11   18 1   
    20   11   19 1   
@<TRIPOS>SUBSTRUCTURE
     1 K37         1 TEMP              0 ****  ****    0 ROOT
