@<TRIPOS>MOLECULE
K37
   19    20     1     0     0
SMALL
bcc


@<TRIPOS>ATOM
      1 C1         -1.1860   -0.5100    0.0000 ca        1 K37      0.020100
      2 C2         -0.8500    0.8620    0.0000 ca        1 K37     -0.011900
      3 C3          0.4790    1.2920   -0.0000 ca        1 K37      0.050100
      4 C4         -0.2030   -1.5020   -0.0000 ca        1 K37     -0.007900
      5 N5          2.3370   -1.7900   -0.0010 na        1 K37     -0.254300
      6 C6          1.1320   -1.0860   -0.0000 ca        1 K37     -0.044200
      7 C7          1.4910    0.3220   -0.0000 ca        1 K37      0.109400
      8 N8          2.8900    0.4450   -0.0010 nc        1 K37     -0.570100
      9 C9          3.3680   -0.8240   -0.0010 cd        1 K37      0.414700
     10 S           4.9970   -1.2930   -0.0010 ss        1 K37     -0.102300
     11 C11         5.8750    0.2230   -0.0010 c3        1 K37     -0.054000
     12 BR10       -0.6180   -3.3190    0.0000 br        1 K37     -0.046100
     13 BR11       -2.9850   -1.0210    0.0010 br        1 K37     -0.030100
     14 BR12       -2.2180    2.1370    0.0000 br        1 K37     -0.033100
     15 BR13        0.9230    3.1020   -0.0000 br        1 K37     -0.022100
     16 HN5         2.4450   -2.7710   -0.0010 hn        1 K37      0.325700
     17 H111        5.6600    0.8380    0.9010 h1        1 K37      0.085367
     18 H112        6.9510   -0.0730   -0.0010 h1        1 K37      0.085367
     19 H113        5.6590    0.8380   -0.9040 h1        1 K37      0.085367
@<TRIPOS>BOND
     1    1    2 ar  
     2    1    4 ar  
     3    1   13 1   
     4    2    3 ar  
     5    2   14 1   
     6    3    7 ar  
     7    3   15 1   
     8    4    6 ar  
     9    4   12 1   
    10    5    6 1   
    11    5    9 1   
    12    5   16 1   
    13    6    7 ar  
    14    7    8 1   
    15    8    9 2   
    16    9   10 1   
    17   10   11 1   
    18   11   17 1   
    19   11   18 1   
    20   11   19 1   
@<TRIPOS>SUBSTRUCTURE
     1 K37         1 TEMP              0 ****  ****    0 ROOT
