@<TRIPOS>MOLECULE
K37
   19    20     1     0     0
SMALL
bcc


@<TRIPOS>ATOM
      1 C1         -0.0470    0.0010   -0.0260 ca        1 K37      0.020100
      2 C2          1.3650    0.0010   -0.0600 ca        1 K37     -0.011900
      3 C3          2.1290    0.0000    1.1090 ca        1 K37      0.050100
      4 C4         -0.7460   -0.0010    1.1830 ca        1 K37     -0.007900
      5 N5         -0.3590   -0.0030    3.7090 na        1 K37     -0.254300
      6 C6          0.0050   -0.0020    2.3620 ca        1 K37     -0.044200
      7 C7          1.4580   -0.0010    2.3400 ca        1 K37      0.109400
      8 N8          1.9430   -0.0030    3.6580 nc        1 K37     -0.570100
      9 C9          0.8430   -0.0040    4.4520 cd        1 K37      0.414700
     10 S           0.8170   -0.0060    6.1460 ss        1 K37     -0.102300
     11 C11         2.5110   -0.0060    6.5970 c3        1 K37     -0.054000
     12 BR10       -2.6090   -0.0010    1.2580 br        1 K37     -0.046100
     13 BR11       -1.0110    0.0020   -1.6270 br        1 K37     -0.030100
     14 BR12        2.2370    0.0030   -1.7150 br        1 K37     -0.033100
     15 BR13        3.9910    0.0010    1.0630 br        1 K37     -0.022100
     16 HN5        -1.2770   -0.0040    4.0710 hn        1 K37      0.325700
     17 H111        3.0470    0.8970    6.2290 h1        1 K37      0.085367
     18 H112        2.5070   -0.0070    7.7130 h1        1 K37      0.085367
     19 H113        3.0480   -0.9080    6.2270 h1        1 K37      0.085367
@<TRIPOS>BOND
     1    1    2 ar  
     2    1    4 ar  
     3    1   13 1   
     4    2    3 ar  
     5    2   14 1   
     6    3    7 ar  
     7    3   15 1   
     8    4    6 ar  
     9    4   12 1   
    10    5    6 1   
    11    5    9 1   
    12    5   16 1   
    13    6    7 ar  
    14    7    8 1   
    15    8    9 2   
    16    9   10 1   
    17   10   11 1   
    18   11   17 1   
    19   11   18 1   
    20   11   19 1   
@<TRIPOS>SUBSTRUCTURE
     1 K37         1 TEMP              0 ****  ****    0 ROOT
