@<TRIPOS>MOLECULE
K37
   19    14     1     0     0
SMALL
bcc


@<TRIPOS>ATOM
      1 C1         -0.8130   -0.0090   -3.0460 c1        1 K37     -0.127500
      2 C2          0.5730   -0.0090   -3.0460 c1        1 K37     -0.127500
      3 C3          1.2660   -0.0090   -1.8460 c1        1 K37     -0.127500
      4 C4         -1.5060   -0.0090   -1.8460 c1        1 K37     -0.127500
      5 N5         -1.2200   -0.0090    0.6640 n2        1 K37     -0.211000
      6 C6         -0.8020   -0.0090   -0.6260 c1        1 K37      0.001000
      7 C7          0.5620   -0.0090   -0.6260 c1        1 K37     -0.030000
      8 N8          0.9800   -0.0090    0.6640 n1        1 K37     -0.143000
      9 C9         -0.1200   -0.0090    1.4620 c1        1 K37     -0.136000
     10 S          -0.6270   -0.1130    3.1580 s         1 K37      0.304000
     11 C11         0.7920    0.0510    4.2090 c3        1 K37     -0.354000
     12 BR10       -3.3880   -0.0480   -2.1790 br        1 K37      0.107250
     13 BR11       -1.5280   -0.0060   -4.8190 br        1 K37      0.107250
     14 BR12        1.6000    0.0300   -4.6580 br        1 K37      0.107250
     15 BR13        3.1630   -0.0620   -1.6180 br        1 K37      0.107250
     16 HN5        -2.0870   -0.0090    0.9460 DU        1 K37      0.276000
     17 H111        1.4130   -0.6810    4.0340 h1        1 K37      0.124667
     18 H112        1.2330    0.9020    4.0300 h1        1 K37      0.124667
     19 H113        0.5090    0.0210    5.1430 h1        1 K37      0.124667
@<TRIPOS>BOND
     1    1    4 1   
     2    1   13 1   
     3    2    3 1   
     4    2   14 1   
     5    3   15 1   
     6    4   12 1   
     7    5    6 1   
     8    5    9 1   
     9    6    7 1   
    10    8    9 1   
    11   10   11 1   
    12   11   17 1   
    13   11   18 1   
    14   11   19 1   
@<TRIPOS>SUBSTRUCTURE
     1 K37         1 TEMP              0 ****  ****    0 ROOT
