@<TRIPOS>MOLECULE
K44
   24    26     1     0     0
SMALL
bcc


@<TRIPOS>ATOM
      1 C1         -1.2810   -0.3640   -0.1690 ca        1 K44     -0.014900
      2 C2         -0.8010    0.9590   -0.1130 ca        1 K44      0.020100
      3 C3          0.5670    1.2360   -0.0160 ca        1 K44     -0.010900
      4 C4         -0.4140   -1.4620   -0.1350 ca        1 K44      0.047100
      5 N5          2.0360   -2.1470   -0.0210 nc        1 K44     -0.540100
      6 C6          0.9610   -1.2250   -0.0500 ca        1 K44      0.104400
      7 C7          1.4480    0.1540    0.0170 ca        1 K44     -0.008200
      8 N8          2.8230    0.0510    0.1730 na        1 K44     -0.192300
      9 C9          3.1320   -1.3620    0.0680 cd        1 K44      0.573700
     10 N10         4.5350   -1.5850   -0.0490 nh        1 K44     -0.634600
     11 C11         5.0990   -2.5740    0.8360 c3        1 K44      0.157100
     12 C12         4.0180    0.8380    0.0010 c3        1 K44      0.036300
     13 C14         5.1610   -0.2420   -0.0100 c3        1 K44      0.142800
     14 BR10       -1.0570   -3.2100   -0.2020 br        1 K44     -0.022100
     15 BR11       -3.1230   -0.6650   -0.2910 br        1 K44     -0.034100
     16 BR12       -2.0100    2.3850   -0.1690 br        1 K44     -0.032100
     17 BR13        1.2090    2.9850    0.0680 br        1 K44     -0.050100
     18 H111        5.0920   -2.2640    1.9160 h1        1 K44      0.056367
     19 H112        4.5190   -3.5290    0.7270 h1        1 K44      0.056367
     20 H113        6.1600   -2.7460    0.5150 h1        1 K44      0.056367
     21 H121        4.1410    1.5510    0.8580 h1        1 K44      0.074200
     22 H122        4.0070    1.4130   -0.9630 h1        1 K44      0.074200
     23 H141        5.8170   -0.1110    0.8900 h1        1 K44      0.070200
     24 H142        5.7790   -0.1400   -0.9400 h1        1 K44      0.070200
@<TRIPOS>BOND
     1    1    2 ar  
     2    1    4 ar  
     3    1   15 1   
     4    2    3 ar  
     5    2   16 1   
     6    3    7 ar  
     7    3   17 1   
     8    4    6 ar  
     9    4   14 1   
    10    5    6 1   
    11    5    9 2   
    12    6    7 ar  
    13    7    8 1   
    14    8    9 1   
    15    8   12 1   
    16    9   10 1   
    17   10   11 1   
    18   10   13 1   
    19   11   18 1   
    20   11   19 1   
    21   11   20 1   
    22   12   13 1   
    23   12   21 1   
    24   12   22 1   
    25   13   23 1   
    26   13   24 1   
@<TRIPOS>SUBSTRUCTURE
     1 K44         1 TEMP              0 ****  ****    0 ROOT
