@<TRIPOS>MOLECULE
K4E
   55    52     1     0     0
SMALL
bcc


@<TRIPOS>ATOM
      1 N1          3.9380   -1.5560   -1.1720 n3        1 K4E     -0.268000
      2 C1          5.3180   -1.8750   -1.1340 c2        1 K4E      0.062000
      3 C2          6.2730   -0.8960   -1.4400 c2        1 K4E     -0.181000
      4 C3          7.6190   -1.2280   -1.4760 c1        1 K4E     -0.032000
      5 C4          8.0200   -2.5360   -1.2060 c1        1 K4E     -0.127250
      6 C5          7.0760   -3.4990   -0.9040 c1        1 K4E     -0.127250
      7 C6          5.7140   -3.1620   -0.8690 c1        1 K4E     -0.010000
      8 O1          4.7590   -4.1430   -0.5720 o         1 K4E     -0.227000
      9 C7          4.9410   -4.7450    0.6550 c3        1 K4E     -0.077000
     10 CL1         8.8100   -0.0200   -1.9380 cl        1 K4E     -0.020000
     11 C8          3.5090   -0.2350   -0.8920 c3        1 K4E     -0.073000
     12 C9          1.9890   -0.1160   -1.1750 c2        1 K4E      0.295000
     13 O2          1.5260   -0.5860   -2.1870 o         1 K4E     -0.362000
     14 N2          1.1260    0.4850   -0.2070 n         1 K4E     -0.379000
     15 C10        -0.3020    0.5300   -0.4400 c3        1 K4E      0.020000
     16 C11        -1.0010   -0.2210    0.6720 c3        1 K4E     -0.168500
     17 C12        -2.5220   -0.0750    0.6080 c3        1 K4E     -0.176500
     18 C13        -0.7440    1.9860   -0.5300 c3        1 K4E     -0.168500
     19 C14        -2.2570    2.1310   -0.5950 c3        1 K4E     -0.176500
     20 C15        -2.9620    1.3750    0.5220 c3        1 K4E      0.040000
     21 N3         -4.3820    1.4170    0.2870 n3        1 K4E     -0.233000
     22 C16        -5.0610    0.8290   -0.7970 c1        1 K4E      0.365000
     23 O3         -4.5460    0.1940   -1.7120 o         1 K4E     -0.344000
     24 N4         -6.4430    1.0610   -0.6230 n2        1 K4E     -0.294000
     25 C17        -6.6180    1.8070    0.5940 c2        1 K4E      0.002000
     26 C18        -5.3640    2.0280    1.1480 c2        1 K4E     -0.003000
     27 C19        -5.2440    2.7500    2.3340 c1        1 K4E     -0.123000
     28 C20        -6.3860    3.2510    2.9660 c1        1 K4E     -0.127250
     29 C21        -7.6380    3.0300    2.4110 c1        1 K4E     -0.127250
     30 C22        -7.7570    2.3070    1.2240 c1        1 K4E     -0.129000
     31 H1          3.3230   -2.2150   -1.2940 hn        1 K4E      0.231000
     32 H2          5.9900    0.0230   -1.6300 ha        1 K4E      0.146000
     33 H3          8.9800   -2.7750   -1.2310 ha        1 K4E      0.143000
     34 H4          7.3600   -4.4270   -0.7130 ha        1 K4E      0.143000
     35 H5          4.1940   -5.3600    0.8320 h1        1 K4E      0.082333
     36 H6          5.7760   -5.2420    0.6510 h1        1 K4E      0.082333
     37 H7          4.9730   -4.0590    1.3530 h1        1 K4E      0.082333
     38 H8          3.6840   -0.0280    0.0440 h1        1 K4E      0.102000
     39 H9          3.9980    0.3960   -1.4630 h1        1 K4E      0.102000
     40 H10         1.4720    0.8950    0.4980 hn        1 K4E      0.222000
     41 H11        -0.5020    0.0830   -1.3020 h1        1 K4E      0.140000
     42 H12        -0.6800    0.1280    1.5460 hc        1 K4E      0.086500
     43 H13        -0.7680   -1.1840    0.6060 hc        1 K4E      0.086500
     44 H14        -2.8550   -0.5570   -0.1870 hc        1 K4E      0.105250
     45 H15        -2.9150   -0.4780    1.4110 hc        1 K4E      0.105250
     46 H16        -0.4160    2.4640    0.2490 hc        1 K4E      0.086500
     47 H17        -0.3490    2.3900   -1.3440 hc        1 K4E      0.086500
     48 H18        -2.4870    3.0780   -0.5300 hc        1 K4E      0.105250
     49 H19        -2.5660    1.7910   -1.4450 hc        1 K4E      0.105250
     50 H20        -2.7650    1.8240    1.3910 h1        1 K4E      0.100000
     51 H21        -7.1080    0.7860   -1.1840 hn        1 K4E      0.256000
     52 H22        -4.3600    2.9050    2.7240 ha        1 K4E      0.141000
     53 H23        -6.3040    3.7450    3.7780 ha        1 K4E      0.143000
     54 H24        -8.4350    3.3790    2.8510 ha        1 K4E      0.143000
     55 H25        -8.6300    2.1520    0.8370 ha        1 K4E      0.143000
@<TRIPOS>BOND
     1    1    2 1   
     2    1   11 1   
     3    1   31 1   
     4    2    3 1   
     5    2    7 1   
     6    3    4 1   
     7    3   32 1   
     8    4   10 1   
     9    5    6 1   
    10    5   33 1   
    11    6   34 1   
    12    8    9 1   
    13    9   35 1   
    14    9   36 1   
    15    9   37 1   
    16   11   12 1   
    17   11   38 1   
    18   11   39 1   
    19   12   13 1   
    20   12   14 1   
    21   14   15 1   
    22   14   40 1   
    23   15   16 1   
    24   15   18 1   
    25   15   41 1   
    26   16   17 1   
    27   16   42 1   
    28   16   43 1   
    29   17   20 1   
    30   17   44 1   
    31   17   45 1   
    32   18   19 1   
    33   18   46 1   
    34   18   47 1   
    35   19   20 1   
    36   19   48 1   
    37   19   49 1   
    38   20   21 1   
    39   20   50 1   
    40   21   22 1   
    41   21   26 1   
    42   22   23 1   
    43   24   25 1   
    44   24   51 1   
    45   25   26 1   
    46   25   30 1   
    47   26   27 1   
    48   27   52 1   
    49   28   29 1   
    50   28   53 1   
    51   29   54 1   
    52   30   55 1   
@<TRIPOS>SUBSTRUCTURE
     1 K4E         1 TEMP              0 ****  ****    0 ROOT
