@<TRIPOS>MOLECULE
K4E
   55    58     1     0     0
SMALL
bcc


@<TRIPOS>ATOM
      1 N1         -4.3000    0.0310   -1.8330 nh        1 K4E     -0.683600
      2 C1         -4.9260   -0.0600   -0.5660 ca        1 K4E      0.106600
      3 C2         -5.1720   -1.3100    0.0330 ca        1 K4E     -0.140000
      4 C3         -5.8690   -1.3950    1.2400 ca        1 K4E      0.011400
      5 C4         -6.3510   -0.2540    1.8790 ca        1 K4E     -0.118000
      6 C5         -6.1370    0.9930    1.2980 ca        1 K4E     -0.165000
      7 C6         -5.4350    1.0990    0.0960 ca        1 K4E      0.085100
      8 O1         -5.2340    2.3050   -0.5530 os        1 K4E     -0.331900
      9 C7         -5.2710    3.4670    0.2690 c3        1 K4E      0.117700
     10 CL1        -6.1310   -2.9260    1.9380 cl        1 K4E     -0.099400
     11 C8         -3.0680   -0.6920   -2.0230 c3        1 K4E      0.108800
     12 C9         -1.7970    0.0660   -1.5940 c         1 K4E      0.621100
     13 O2         -1.7390    1.3100   -1.6700 o         1 K4E     -0.606100
     14 N2         -0.7280   -0.6900   -1.1710 n         1 K4E     -0.568900
     15 C10         0.5280   -0.1120   -0.7470 c3        1 K4E      0.095700
     16 C11         0.8770   -0.4820    0.7060 c3        1 K4E     -0.089900
     17 C12         2.1570    0.1960    1.1390 c3        1 K4E     -0.097400
     18 C13         1.6960   -0.5340   -1.6570 c3        1 K4E     -0.089900
     19 C14         2.9770    0.1430   -1.2240 c3        1 K4E     -0.097400
     20 C15         3.3220   -0.2300    0.2290 c3        1 K4E      0.116700
     21 N3          4.5880    0.3070    0.6890 n         1 K4E     -0.330000
     22 C16         4.8700    1.7210    0.6850 c         1 K4E      0.774500
     23 O3          4.0430    2.6440    0.7640 o         1 K4E     -0.620500
     24 N4          6.2900    1.9000    0.6890 n         1 K4E     -0.440100
     25 C17         6.8800    0.6360    0.4930 ca        1 K4E     -0.005400
     26 C18         5.8240   -0.3580    0.4860 ca        1 K4E     -0.010400
     27 C19         6.1350   -1.7060    0.3560 ca        1 K4E     -0.123000
     28 C20         7.4820   -2.0620    0.2290 ca        1 K4E     -0.131000
     29 C21         8.4940   -1.1050    0.2320 ca        1 K4E     -0.125000
     30 C22         8.2110    0.2580    0.3630 ca        1 K4E     -0.129000
     31 H1         -4.2030    0.9920   -2.1240 hn        1 K4E      0.421800
     32 H2         -4.8280   -2.2360   -0.4550 ha        1 K4E      0.148000
     33 H3         -6.8990   -0.3310    2.8300 ha        1 K4E      0.149000
     34 H4         -6.5220    1.8950    1.7960 ha        1 K4E      0.144000
     35 H5         -6.3270    3.7050    0.5470 h1        1 K4E      0.046367
     36 H6         -4.6440    3.3360    1.1830 h1        1 K4E      0.046367
     37 H7         -4.8480    4.2660   -0.3920 h1        1 K4E      0.046367
     38 H8         -3.1260   -1.6920   -1.5130 h1        1 K4E      0.074200
     39 H9         -2.9640   -0.8650   -3.1350 h1        1 K4E      0.074200
     40 H10        -0.8220   -1.6730   -1.0950 hn        1 K4E      0.306500
     41 H11         0.4240    1.0150   -0.8090 h1        1 K4E      0.099700
     42 H12         0.0480   -0.1590    1.3880 hc        1 K4E      0.046950
     43 H13         0.9830   -1.5950    0.8020 hc        1 K4E      0.046950
     44 H14         2.0400    1.3120    1.0980 hc        1 K4E      0.064950
     45 H15         2.3810   -0.0840    2.2010 hc        1 K4E      0.064950
     46 H16         1.8240   -1.6470   -1.6230 hc        1 K4E      0.046950
     47 H17         1.4730   -0.2480   -2.7170 hc        1 K4E      0.046950
     48 H18         3.8070   -0.1710   -1.9080 hc        1 K4E      0.064950
     49 H19         2.8680    1.2580   -1.3030 hc        1 K4E      0.064950
     50 H20         3.4230   -1.3570    0.2900 h1        1 K4E      0.060700
     51 H21         6.7070    2.7490    0.4070 hn        1 K4E      0.342500
     52 H22         5.3530   -2.4780    0.3580 ha        1 K4E      0.141000
     53 H23         7.7420   -3.1270    0.1270 ha        1 K4E      0.136000
     54 H24         9.5430   -1.4230    0.1300 ha        1 K4E      0.136000
     55 H25         9.0190    1.0020    0.3700 ha        1 K4E      0.143000
@<TRIPOS>BOND
     1    1    2 1   
     2    1   11 1   
     3    1   31 1   
     4    2    3 ar  
     5    2    7 ar  
     6    3    4 ar  
     7    3   32 1   
     8    4    5 ar  
     9    4   10 1   
    10    5    6 ar  
    11    5   33 1   
    12    6    7 ar  
    13    6   34 1   
    14    7    8 1   
    15    8    9 1   
    16    9   35 1   
    17    9   36 1   
    18    9   37 1   
    19   11   12 1   
    20   11   38 1   
    21   11   39 1   
    22   12   13 2   
    23   12   14 1   
    24   14   15 1   
    25   14   40 1   
    26   15   16 1   
    27   15   18 1   
    28   15   41 1   
    29   16   17 1   
    30   16   42 1   
    31   16   43 1   
    32   17   20 1   
    33   17   44 1   
    34   17   45 1   
    35   18   19 1   
    36   18   46 1   
    37   18   47 1   
    38   19   20 1   
    39   19   48 1   
    40   19   49 1   
    41   20   21 1   
    42   20   50 1   
    43   21   22 1   
    44   21   26 1   
    45   22   23 2   
    46   22   24 1   
    47   24   25 1   
    48   24   51 1   
    49   25   26 ar  
    50   25   30 ar  
    51   26   27 ar  
    52   27   28 ar  
    53   27   52 1   
    54   28   29 ar  
    55   28   53 1   
    56   29   30 ar  
    57   29   54 1   
    58   30   55 1   
@<TRIPOS>SUBSTRUCTURE
     1 K4E         1 TEMP              0 ****  ****    0 ROOT
