@<TRIPOS>MOLECULE
K4E
   56    59     1     0     0
SMALL
bcc


@<TRIPOS>ATOM
      1 N1         -0.2650    1.6620   -0.6390 nu        1 K4E     -0.729600
      2 C1          0.4580    0.7360    0.1750 ca        1 K4E     -0.006400
      3 C2          0.3140    0.8300    1.5720 ca        1 K4E     -0.116000
      4 C3          1.0120   -0.0350    2.4160 ca        1 K4E     -0.013600
      5 C4          1.8790   -1.0000    1.8900 ca        1 K4E     -0.062000
      6 C5          2.0470   -1.1020    0.5140 ca        1 K4E     -0.173000
      7 C6          1.3480   -0.2440   -0.3450 ca        1 K4E      0.122100
      8 O1          1.4470   -0.2910   -1.7190 os        1 K4E     -0.351900
      9 C7          2.4740   -1.1240   -2.2610 c3        1 K4E      0.111700
     10 Cl1         0.8080    0.0960    4.0930 cl        1 K4E     -0.053400
     11 C8         -1.1460    1.0690   -1.6140 c3        1 K4E      0.101800
     12 C9         -2.5420    0.7520   -1.0850 c         1 K4E      0.532100
     13 O2         -3.4630    0.3290   -1.7660 o         1 K4E     -0.416100
     14 N2         -2.7910    0.9650    0.3860 ny        1 K4E     -0.668800
     15 C10        -4.1590    0.5540    0.8680 c3        1 K4E      0.115500
     16 C11        -4.1550    0.3190    2.3820 c3        1 K4E     -0.092400
     17 C12        -5.5100   -0.2000    2.8120 c3        1 K4E     -0.105900
     18 C13        -5.2230    1.5990    0.5160 c3        1 K4E     -0.092400
     19 C14        -6.5840    1.0930    0.9440 c3        1 K4E     -0.105900
     20 C15        -6.6270    0.8010    2.4560 c3        1 K4E      0.127700
     21 N3         -7.9110    0.3200    2.9100 n         1 K4E     -0.345000
     22 C16        -8.5490   -0.8230    2.3010 c         1 K4E      0.783500
     23 O3         -7.9610   -1.7560    1.7240 o         1 K4E     -0.639500
     24 N4         -9.9490   -0.7070    2.4800 ns        1 K4E     -0.445100
     25 C17       -10.2090    0.4860    3.1850 ca        1 K4E      0.008600
     26 C18        -8.9450    1.1660    3.3940 ca        1 K4E     -0.023400
     27 C19        -8.9080    2.3940    4.0410 ca        1 K4E     -0.120000
     28 C20       -10.1210    2.9440    4.4740 ca        1 K4E     -0.126000
     29 C21       -11.3330    2.2880    4.2740 ca        1 K4E     -0.111000
     30 C22       -11.3990    1.0480    3.6270 ca        1 K4E     -0.122000
     31 H1          0.3680    2.3100   -1.0770 hn        1 K4E      0.427800
     32 H2         -0.3150    1.6230    2.0100 ha        1 K4E      0.146000
     33 H3          2.4340   -1.6750    2.5640 ha        1 K4E      0.173000
     34 H4          2.7400   -1.8560    0.1090 ha        1 K4E      0.166000
     35 H5          2.2480   -2.1980   -2.0540 h1        1 K4E      0.062700
     36 H6          3.4720   -0.8370   -1.8510 h1        1 K4E      0.062700
     37 H7          2.4190   -0.9110   -3.3600 h1        1 K4E      0.062700
     38 H8         -0.7640    0.0910   -2.0450 h1        1 K4E      0.122700
     39 H9         -1.3040    1.7880   -2.4730 h1        1 K4E      0.122700
     40 H10        -2.0780    0.4350    0.9090 hn        1 K4E      0.465300
     41 H11        -4.4100   -0.4170    0.3390 hx        1 K4E      0.126700
     42 H12        -3.3760   -0.4380    2.6630 hc        1 K4E      0.063700
     43 H13        -3.9230    1.2750    2.9210 hc        1 K4E      0.063700
     44 H14        -5.7240   -1.1890    2.3210 hc        1 K4E      0.086950
     45 H15        -5.4940   -0.3690    3.9220 hc        1 K4E      0.086950
     46 H16        -4.9980    2.5700    1.0310 hc        1 K4E      0.063700
     47 H17        -5.2340    1.7790   -0.5920 hc        1 K4E      0.063700
     48 H18        -6.8410    0.1560    0.3780 hc        1 K4E      0.086950
     49 H19        -7.3510    1.8690    0.6840 hc        1 K4E      0.086950
     50 H20        -6.4280    1.7680    3.0100 h1        1 K4E      0.066700
     51 H21       -10.5750   -1.4660    2.3910 hn        1 K4E      0.361500
     52 H22        -7.9630    2.9230    4.2180 ha        1 K4E      0.137000
     53 H23       -10.1080    3.9170    4.9890 ha        1 K4E      0.145000
     54 H24       -12.2670    2.7500    4.6340 ha        1 K4E      0.148000
     55 H25       -12.3630    0.5420    3.4790 ha        1 K4E      0.153000
     56 H221       -2.6460    1.9620    0.5880 hn        1 K4E      0.465300
@<TRIPOS>BOND
     1    1    2 1   
     2    1   11 1   
     3    1   31 1   
     4    2    3 ar  
     5    2    7 ar  
     6    3    4 ar  
     7    3   32 1   
     8    4    5 ar  
     9    4   10 1   
    10    5    6 ar  
    11    5   33 1   
    12    6    7 ar  
    13    6   34 1   
    14    7    8 1   
    15    8    9 1   
    16    9   35 1   
    17    9   36 1   
    18    9   37 1   
    19   11   12 1   
    20   11   38 1   
    21   11   39 1   
    22   12   13 2   
    23   12   14 1   
    24   14   15 1   
    25   14   40 1   
    26   14   56 1   
    27   15   16 1   
    28   15   18 1   
    29   15   41 1   
    30   16   17 1   
    31   16   42 1   
    32   16   43 1   
    33   17   20 1   
    34   17   44 1   
    35   17   45 1   
    36   18   19 1   
    37   18   46 1   
    38   18   47 1   
    39   19   20 1   
    40   19   48 1   
    41   19   49 1   
    42   20   21 1   
    43   20   50 1   
    44   21   22 1   
    45   21   26 1   
    46   22   23 2   
    47   22   24 1   
    48   24   25 1   
    49   24   51 1   
    50   25   26 ar  
    51   25   30 ar  
    52   26   27 ar  
    53   27   28 ar  
    54   27   52 1   
    55   28   29 ar  
    56   28   53 1   
    57   29   30 ar  
    58   29   54 1   
    59   30   55 1   
@<TRIPOS>SUBSTRUCTURE
     1 K4E         1 TEMP              0 ****  ****    0 ROOT
