@<TRIPOS>MOLECULE
K4E
   57    60     1     0     0
SMALL
bcc


@<TRIPOS>ATOM
      1 N1         -0.7920    0.3570   -1.1440 n4        1 K4E     -0.595400
      2 C1          0.2570    1.0180   -0.3640 ca        1 K4E     -0.131400
      3 C2          0.1610    2.3980   -0.0900 ca        1 K4E     -0.081000
      4 C3          1.1940    3.0280    0.5970 ca        1 K4E      0.006400
      5 C4          2.3240    2.2960    1.0150 ca        1 K4E     -0.012000
      6 C5          2.4170    0.9360    0.7550 ca        1 K4E     -0.165000
      7 C6          1.3850    0.2760    0.0700 ca        1 K4E      0.174100
      8 O1          1.3640   -1.0670   -0.2120 os        1 K4E     -0.383900
      9 C7          2.5840   -1.7950    0.0100 c3        1 K4E      0.113700
     10 CL1         1.0940    4.6760    0.9260 cl        1 K4E      0.019600
     11 C8         -1.6950   -0.4350   -0.2550 c3        1 K4E      0.025800
     12 C9         -2.7640   -1.1810   -1.0360 c         1 K4E      0.510100
     13 O2         -2.8150   -1.2610   -2.2560 o         1 K4E     -0.381100
     14 N2         -3.8300   -1.8650   -0.2500 n4        1 K4E     -0.669800
     15 C10        -4.7130   -0.8750    0.5010 c3        1 K4E      0.120500
     16 C11        -6.2030   -1.1540    0.2820 c3        1 K4E     -0.095900
     17 C12        -6.9760    0.0160    0.8530 c3        1 K4E     -0.113900
     18 C13        -4.4380   -0.8940    2.0060 c3        1 K4E     -0.095900
     19 C14        -5.1630    0.2780    2.6320 c3        1 K4E     -0.113900
     20 C15        -6.6820    0.2640    2.3480 c3        1 K4E      0.134700
     21 N3         -7.2690    1.4920    2.8280 n         1 K4E     -0.349000
     22 C16        -7.0070    2.7490    2.1670 c         1 K4E      0.788500
     23 O3         -5.9930    2.9900    1.4750 o         1 K4E     -0.688500
     24 N4         -8.0660    3.6310    2.4460 n         1 K4E     -0.435100
     25 C17        -9.0170    2.9530    3.2390 ca        1 K4E      0.006600
     26 C18        -8.5540    1.5950    3.4300 ca        1 K4E     -0.033400
     27 C19        -9.3090    0.6880    4.1620 ca        1 K4E     -0.116000
     28 C20       -10.5230    1.1330    4.6980 ca        1 K4E     -0.117000
     29 C21       -10.9680    2.4420    4.5150 ca        1 K4E     -0.101000
     30 C22       -10.2240    3.3750    3.7840 ca        1 K4E     -0.112000
     31 H1         -0.3380   -0.2780   -1.8230 hn        1 K4E      0.480300
     32 H2         -0.7120    2.9870   -0.4230 ha        1 K4E      0.174000
     33 H3          3.1430    2.8100    1.5540 ha        1 K4E      0.200000
     34 H4          3.3080    0.3740    1.0860 ha        1 K4E      0.190000
     35 H5          3.4250   -1.3240   -0.5540 h1        1 K4E      0.079700
     36 H6          2.3460   -2.8110   -0.3980 h1        1 K4E      0.079700
     37 H7          2.8010   -1.8420    1.1040 h1        1 K4E      0.079700
     38 H8         -2.1700    0.2690    0.4960 hx        1 K4E      0.165200
     39 H9         -1.0490   -1.1800    0.3100 hx        1 K4E      0.165200
     40 H10        -4.4220   -2.4090   -0.9030 hn        1 K4E      0.480800
     41 H11        -4.4790    0.1510    0.0820 hx        1 K4E      0.108700
     42 H12        -6.4440   -1.2500   -0.8100 hc        1 K4E      0.071950
     43 H13        -6.5020   -2.1070    0.7930 hc        1 K4E      0.071950
     44 H14        -8.0740   -0.1910    0.7260 hc        1 K4E      0.093950
     45 H15        -6.7400    0.9450    0.2640 hc        1 K4E      0.093950
     46 H16        -3.3400   -0.7990    2.2190 hc        1 K4E      0.071950
     47 H17        -4.7980   -1.8570    2.4560 hc        1 K4E      0.071950
     48 H18        -5.0020    0.2440    3.7440 hc        1 K4E      0.093950
     49 H19        -4.7190    1.2410    2.2560 hc        1 K4E      0.093950
     50 H20        -7.1430   -0.5820    2.9420 h1        1 K4E      0.081700
     51 H21        -8.0460    4.6020    2.2680 hn        1 K4E      0.370500
     52 H22        -8.9730   -0.3440    4.3280 ha        1 K4E      0.139000
     53 H23       -11.1370    0.4280    5.2820 ha        1 K4E      0.155000
     54 H24       -11.9280    2.7560    4.9570 ha        1 K4E      0.159000
     55 H25       -10.5860    4.4050    3.6520 ha        1 K4E      0.161000
     56 H121       -1.3310    1.0660   -1.6630 hn        1 K4E      0.480300
     57 H221       -3.4040   -2.5180    0.4200 hn        1 K4E      0.480800
@<TRIPOS>BOND
     1    1    2 1   
     2    1   11 1   
     3    1   31 1   
     4    1   56 1   
     5    2    3 ar  
     6    2    7 ar  
     7    3    4 ar  
     8    3   32 1   
     9    4    5 ar  
    10    4   10 1   
    11    5    6 ar  
    12    5   33 1   
    13    6    7 ar  
    14    6   34 1   
    15    7    8 1   
    16    8    9 1   
    17    9   35 1   
    18    9   36 1   
    19    9   37 1   
    20   11   12 1   
    21   11   38 1   
    22   11   39 1   
    23   12   13 2   
    24   12   14 1   
    25   14   15 1   
    26   14   40 1   
    27   14   57 1   
    28   15   16 1   
    29   15   18 1   
    30   15   41 1   
    31   16   17 1   
    32   16   42 1   
    33   16   43 1   
    34   17   20 1   
    35   17   44 1   
    36   17   45 1   
    37   18   19 1   
    38   18   46 1   
    39   18   47 1   
    40   19   20 1   
    41   19   48 1   
    42   19   49 1   
    43   20   21 1   
    44   20   50 1   
    45   21   22 1   
    46   21   26 1   
    47   22   23 2   
    48   22   24 1   
    49   24   25 1   
    50   24   51 1   
    51   25   26 ar  
    52   25   30 ar  
    53   26   27 ar  
    54   27   28 ar  
    55   27   52 1   
    56   28   29 ar  
    57   28   53 1   
    58   29   30 ar  
    59   29   54 1   
    60   30   55 1   
@<TRIPOS>SUBSTRUCTURE
     1 K4E         1 TEMP              0 ****  ****    0 ROOT
