@<TRIPOS>MOLECULE
K4F
   56    60     1     0     0
SMALL
bcc


@<TRIPOS>ATOM
      1 C1          0.0380   -0.1290    0.0150 ca        1 K4F     -0.113000
      2 C2          1.4070   -0.3420   -0.1320 ca        1 K4F     -0.128000
      3 C3          2.2040   -0.5690    0.9910 ca        1 K4F     -0.117000
      4 C4          1.6270   -0.5850    2.2590 ca        1 K4F     -0.128000
      5 C5          0.2560   -0.3780    2.4100 ca        1 K4F     -0.113000
      6 C6         -0.5480   -0.1510    1.2880 ca        1 K4F     -0.107300
      7 C7         -2.0300    0.0810    1.3930 c3        1 K4F      0.130000
      8 C8         -2.8530   -1.2520    1.5500 c3        1 K4F      0.146800
      9 C9         -2.0110   -2.4990    1.7100 c3        1 K4F     -0.102600
     10 C10        -3.8570   -1.4020    0.4220 c3        1 K4F     -0.102600
     11 O1         -3.6060   -1.0760    2.7910 os        1 K4F     -0.392900
     12 C11        -3.3700    0.1760    3.3260 c         1 K4F      0.832600
     13 O2         -3.9570    0.4570    4.3710 o         1 K4F     -0.589500
     14 N1         -2.4480    0.8900    2.5400 n         1 K4F     -0.393000
     15 C12        -2.1890    2.2650    2.6390 ca        1 K4F      0.114600
     16 C13        -1.4090    2.9200    1.6570 ca        1 K4F     -0.182000
     17 C14        -1.1490    4.2800    1.7590 ca        1 K4F     -0.060500
     18 C15        -2.6830    3.0250    3.7260 ca        1 K4F     -0.182000
     19 C16        -2.4170    4.3870    3.8090 ca        1 K4F     -0.060500
     20 C17        -1.6600    5.0280    2.8260 ca        1 K4F     -0.178600
     21 C18        -1.3330    6.4820    2.8820 c         1 K4F      0.682700
     22 O3         -0.2200    6.9020    2.5110 o         1 K4F     -0.593100
     23 N2         -2.3500    7.3170    3.3330 ns        1 K4F     -0.457100
     24 C19        -2.2770    8.7000    3.5460 ca        1 K4F      0.035300
     25 C20        -1.2200    9.4820    3.0870 ca        1 K4F     -0.168000
     26 C21        -1.1850   10.8720    3.3110 ca        1 K4F     -0.093000
     27 C22        -2.1960   11.5100    3.9840 ca        1 K4F     -0.148000
     28 C23        -3.3660    9.3540    4.2650 ca        1 K4F      0.361600
     29 C24        -3.2980   10.7650    4.4680 ca        1 K4F     -0.121300
     30 C25        -4.3650   11.3980    5.1730 ca        1 K4F     -0.083000
     31 C26        -5.4150   10.6480    5.6330 ca        1 K4F     -0.246300
     32 C27        -5.3990    9.2390    5.3840 ca        1 K4F      0.411200
     33 N3         -4.4350    8.6140    4.7370 nb        1 K4F     -0.679000
     34 H1         -0.5830    0.0580   -0.8750 ha        1 K4F      0.138000
     35 H2          1.8590   -0.3260   -1.1350 ha        1 K4F      0.138000
     36 H3          3.2860   -0.7310    0.8740 ha        1 K4F      0.137000
     37 H4          2.2530   -0.7570    3.1480 ha        1 K4F      0.138000
     38 H5         -0.1870   -0.3910    3.4180 ha        1 K4F      0.138000
     39 H6         -2.3730    0.6030    0.4480 h1        1 K4F      0.073700
     40 H7         -1.4010   -2.6610    0.7900 hc        1 K4F      0.056700
     41 H8         -2.6760   -3.3810    1.8740 hc        1 K4F      0.056700
     42 H9         -1.3290   -2.4020    2.5890 hc        1 K4F      0.056700
     43 H10        -4.5120   -2.2860    0.6170 hc        1 K4F      0.056700
     44 H11        -3.3170   -1.5520   -0.5420 hc        1 K4F      0.056700
     45 H12        -4.5040   -0.4950    0.3480 hc        1 K4F      0.056700
     46 H13        -0.9780    2.3580    0.8130 ha        1 K4F      0.160500
     47 H14        -0.5240    4.7810    1.0010 ha        1 K4F      0.150500
     48 H15        -3.2810    2.5460    4.5210 ha        1 K4F      0.160500
     49 H16        -2.8030    4.9440    4.6790 ha        1 K4F      0.150500
     50 H17        -3.2040    6.8720    3.5970 hn        1 K4F      0.340500
     51 H18        -0.3770    9.0270    2.5390 ha        1 K4F      0.178000
     52 H19        -0.3220   11.4400    2.9290 ha        1 K4F      0.137000
     53 H20        -2.1690   12.5950    4.1580 ha        1 K4F      0.135000
     54 H21        -4.3200   12.4860    5.3330 ha        1 K4F      0.140000
     55 H22        -6.2570   11.0910    6.1800 ha        1 K4F      0.145000
     56 H23        -6.2330    8.6100    5.7450 h4        1 K4F      0.022100
@<TRIPOS>BOND
     1    1    2 ar  
     2    1    6 ar  
     3    1   34 1   
     4    2    3 ar  
     5    2   35 1   
     6    3    4 ar  
     7    3   36 1   
     8    4    5 ar  
     9    4   37 1   
    10    5    6 ar  
    11    5   38 1   
    12    6    7 1   
    13    7    8 1   
    14    7   14 1   
    15    7   39 1   
    16    8    9 1   
    17    8   10 1   
    18    8   11 1   
    19    9   40 1   
    20    9   41 1   
    21    9   42 1   
    22   10   43 1   
    23   10   44 1   
    24   10   45 1   
    25   11   12 1   
    26   12   13 2   
    27   12   14 1   
    28   14   15 1   
    29   15   16 ar  
    30   15   18 ar  
    31   16   17 ar  
    32   16   46 1   
    33   17   20 ar  
    34   17   47 1   
    35   18   19 ar  
    36   18   48 1   
    37   19   20 ar  
    38   19   49 1   
    39   20   21 1   
    40   21   22 2   
    41   21   23 1   
    42   23   24 1   
    43   23   50 1   
    44   24   25 ar  
    45   24   28 ar  
    46   25   26 ar  
    47   25   51 1   
    48   26   27 ar  
    49   26   52 1   
    50   27   29 ar  
    51   27   53 1   
    52   28   29 ar  
    53   28   33 ar  
    54   29   30 ar  
    55   30   31 ar  
    56   30   54 1   
    57   31   32 ar  
    58   31   55 1   
    59   32   33 ar  
    60   32   56 1   
@<TRIPOS>SUBSTRUCTURE
     1 K4F         1 TEMP              0 ****  ****    0 ROOT
