@<TRIPOS>MOLECULE
K4F
   57    61     1     0     0
SMALL
bcc


@<TRIPOS>ATOM
      1 C1          0.3800    0.0340    0.4440 ca        1 K4F     -0.116000
      2 C2          1.5660   -0.5640    0.8650 ca        1 K4F     -0.124500
      3 C3          1.6850   -1.0410    2.1710 ca        1 K4F     -0.107000
      4 C4          0.6130   -0.9210    3.0540 ca        1 K4F     -0.124500
      5 C5         -0.5780   -0.3290    2.6360 ca        1 K4F     -0.116000
      6 C6         -0.7020    0.1500    1.3270 ca        1 K4F     -0.127300
      7 C7         -1.9650    0.7870    0.8230 c3        1 K4F      0.126000
      8 C8         -3.1020   -0.2520    0.4940 c3        1 K4F      0.152800
      9 C9         -2.7660   -1.6900    0.8210 c3        1 K4F     -0.106600
     10 C10        -3.5720   -0.1010   -0.9410 c3        1 K4F     -0.106600
     11 O1         -4.2200    0.1370    1.3630 os        1 K4F     -0.370900
     12 C11        -3.9180    1.2740    2.0670 c         1 K4F      0.834600
     13 O2         -4.7650    1.7350    2.8290 o         1 K4F     -0.574500
     14 N1         -2.6050    1.7200    1.7620 n         1 K4F     -0.389000
     15 C12        -2.0370    2.9090    2.1800 ca        1 K4F      0.196600
     16 C13        -0.7430    3.2960    1.7300 ca        1 K4F     -0.199000
     17 C14        -0.1800    4.4880    2.1410 ca        1 K4F     -0.019500
     18 C15        -2.7250    3.7910    3.0640 ca        1 K4F     -0.199000
     19 C16        -2.1480    4.9780    3.4700 ca        1 K4F     -0.019500
     20 C17        -0.8670    5.3490    3.0240 ca        1 K4F     -0.261600
     21 C18        -0.1940    6.5750    3.3980 c         1 K4F      0.588700
     22 O3          0.8190    7.0740    2.9150 o         1 K4F     -0.469100
     23 N2         -0.7530    7.3570    4.5830 n4        1 K4F     -0.539200
     24 C19        -1.7810    8.3240    4.1910 ca        1 K4F     -0.107700
     25 C20        -1.5840    9.1430    3.0880 ca        1 K4F     -0.056000
     26 C21        -2.5590   10.0940    2.7270 ca        1 K4F     -0.133000
     27 C22        -3.7130   10.2300    3.4640 ca        1 K4F     -0.043000
     28 C23        -2.9760    8.4400    4.9900 ca        1 K4F      0.408600
     29 C24        -3.9410    9.4170    4.6000 ca        1 K4F     -0.143300
     30 C25        -5.1220    9.5410    5.3940 ca        1 K4F     -0.055000
     31 C26        -5.2890    8.7340    6.4900 ca        1 K4F     -0.232300
     32 C27        -4.2660    7.7820    6.8020 ca        1 K4F      0.470200
     33 N3         -3.1590    7.6300    6.0950 nb        1 K4F     -0.731000
     34 H1          0.2950    0.4070   -0.5880 ha        1 K4F      0.137500
     35 H2          2.4090   -0.6610    0.1640 ha        1 K4F      0.146500
     36 H3          2.6230   -1.5150    2.5010 ha        1 K4F      0.148000
     37 H4          0.7030   -1.2980    4.0850 ha        1 K4F      0.146500
     38 H5         -1.4190   -0.2480    3.3410 ha        1 K4F      0.137500
     39 H6         -1.7260    1.3630   -0.1230 h1        1 K4F      0.081700
     40 H7         -3.6410   -2.3410    0.5790 hc        1 K4F      0.064033
     41 H8         -1.8860   -2.0150    0.2160 hc        1 K4F      0.064033
     42 H9         -2.5290   -1.8060    1.9060 hc        1 K4F      0.064033
     43 H10        -2.7620   -0.4280   -1.6350 hc        1 K4F      0.064033
     44 H11        -4.4750   -0.7380   -1.1080 hc        1 K4F      0.064033
     45 H12        -3.8440    0.9590   -1.1610 hc        1 K4F      0.064033
     46 H13        -0.1680    2.6360    1.0580 ha        1 K4F      0.182500
     47 H14         0.8230    4.7740    1.7780 ha        1 K4F      0.155500
     48 H15        -3.7340    3.5320    3.4340 ha        1 K4F      0.182500
     49 H16        -2.7340    5.6310    4.1370 ha        1 K4F      0.155500
     50 H17        -1.1360    6.6920    5.2690 hn        1 K4F      0.470300
     51 H18        -0.6660    9.0680    2.4770 ha        1 K4F      0.171000
     52 H19        -2.3770   10.7280    1.8440 ha        1 K4F      0.171000
     53 H20        -4.4760   10.9770    3.1820 ha        1 K4F      0.166000
     54 H21        -5.8790   10.2900    5.1080 ha        1 K4F      0.165000
     55 H22        -6.1810    8.7960    7.1310 ha        1 K4F      0.174000
     56 H23        -4.3790    7.1190    7.6830 h4        1 K4F      0.048100
     57 H221        0.0170    7.8800    5.0230 hn        1 K4F      0.470300
@<TRIPOS>BOND
     1    1    2 ar  
     2    1    6 ar  
     3    1   34 1   
     4    2    3 ar  
     5    2   35 1   
     6    3    4 ar  
     7    3   36 1   
     8    4    5 ar  
     9    4   37 1   
    10    5    6 ar  
    11    5   38 1   
    12    6    7 1   
    13    7    8 1   
    14    7   14 1   
    15    7   39 1   
    16    8    9 1   
    17    8   10 1   
    18    8   11 1   
    19    9   40 1   
    20    9   41 1   
    21    9   42 1   
    22   10   43 1   
    23   10   44 1   
    24   10   45 1   
    25   11   12 1   
    26   12   13 2   
    27   12   14 1   
    28   14   15 1   
    29   15   16 ar  
    30   15   18 ar  
    31   16   17 ar  
    32   16   46 1   
    33   17   20 ar  
    34   17   47 1   
    35   18   19 ar  
    36   18   48 1   
    37   19   20 ar  
    38   19   49 1   
    39   20   21 1   
    40   21   22 2   
    41   21   23 1   
    42   23   24 1   
    43   23   50 1   
    44   23   57 1   
    45   24   25 ar  
    46   24   28 ar  
    47   25   26 ar  
    48   25   51 1   
    49   26   27 ar  
    50   26   52 1   
    51   27   29 ar  
    52   27   53 1   
    53   28   29 ar  
    54   28   33 ar  
    55   29   30 ar  
    56   30   31 ar  
    57   30   54 1   
    58   31   32 ar  
    59   31   55 1   
    60   32   33 ar  
    61   32   56 1   
@<TRIPOS>SUBSTRUCTURE
     1 K4F         1 TEMP              0 ****  ****    0 ROOT
