@<TRIPOS>MOLECULE
K4F
   56    60     1     0     0
SMALL
bcc


@<TRIPOS>ATOM
      1 C1          5.0330    1.9630   -0.8680 ca        1 K4F     -0.113000
      2 C2          5.4850    3.1910   -0.3880 ca        1 K4F     -0.128000
      3 C3          5.5400    3.4280    0.9860 ca        1 K4F     -0.117000
      4 C4          5.1440    2.4320    1.8780 ca        1 K4F     -0.128000
      5 C5          4.6980    1.1990    1.4020 ca        1 K4F     -0.113000
      6 C6          4.6410    0.9560    0.0250 ca        1 K4F     -0.107300
      7 C7          4.1650   -0.3510   -0.5430 c3        1 K4F      0.130000
      8 C8          5.2710   -1.4720   -0.5230 c3        1 K4F      0.146800
      9 C9          6.5510   -1.0830    0.1840 c3        1 K4F     -0.102600
     10 C10         5.5450   -1.9840   -1.9250 c3        1 K4F     -0.102600
     11 O1          4.6730   -2.5680    0.2370 os        1 K4F     -0.392900
     12 C11         3.3780   -2.2520    0.6020 c         1 K4F      0.832600
     13 O2          2.7540   -3.1010    1.2400 o         1 K4F     -0.589500
     14 N1          3.0370   -0.9590    0.1690 n         1 K4F     -0.393000
     15 C12         1.7390   -0.4300    0.1330 ca        1 K4F      0.114600
     16 C13         1.4820    0.7960   -0.5260 ca        1 K4F     -0.182000
     17 C14         0.1970    1.3220   -0.5560 ca        1 K4F     -0.060500
     18 C15         0.6610   -1.0940    0.7660 ca        1 K4F     -0.182000
     19 C16        -0.6200   -0.5570    0.7210 ca        1 K4F     -0.060500
     20 C17        -0.8660    0.6460    0.0530 ca        1 K4F     -0.178600
     21 C18        -2.2190    1.2710   -0.0060 c         1 K4F      0.682700
     22 O3         -2.3550    2.5080    0.0610 o         1 K4F     -0.593100
     23 N2         -3.2860    0.3960   -0.1730 n         1 K4F     -0.457100
     24 C19        -4.6500    0.7170   -0.1890 ca        1 K4F      0.035300
     25 C20        -5.1190    2.0250   -0.2810 ca        1 K4F     -0.168000
     26 C21        -6.4980    2.3110   -0.3050 ca        1 K4F     -0.093000
     27 C22        -7.4330    1.3080   -0.2430 ca        1 K4F     -0.148000
     28 C23        -5.6240   -0.3680   -0.1220 ca        1 K4F      0.361600
     29 C24        -7.0130   -0.0400   -0.1530 ca        1 K4F     -0.121300
     30 C25        -7.9600   -1.1060   -0.0860 ca        1 K4F     -0.083000
     31 C26        -7.5210   -2.4010    0.0050 ca        1 K4F     -0.246300
     32 C27        -6.1100   -2.6350    0.0300 ca        1 K4F      0.411200
     33 N3         -5.2000   -1.6810   -0.0300 nb        1 K4F     -0.679000
     34 H1          4.9840    1.7870   -1.9530 ha        1 K4F      0.138000
     35 H2          5.7930    3.9750   -1.0950 ha        1 K4F      0.138000
     36 H3          5.8910    4.3990    1.3640 ha        1 K4F      0.137000
     37 H4          5.1800    2.6160    2.9620 ha        1 K4F      0.138000
     38 H5          4.3860    0.4220    2.1170 ha        1 K4F      0.138000
     39 H6          3.8530   -0.1780   -1.6180 h1        1 K4F      0.073700
     40 H7          6.3410   -0.7780    1.2380 hc        1 K4F      0.056700
     41 H8          7.2500   -1.9540    0.1990 hc        1 K4F      0.056700
     42 H9          7.0330   -0.2320   -0.3540 hc        1 K4F      0.056700
     43 H10         6.0160   -1.1760   -2.5330 hc        1 K4F      0.056700
     44 H11         6.2390   -2.8580   -1.8770 hc        1 K4F      0.056700
     45 H12         4.5990   -2.3130   -2.4160 hc        1 K4F      0.056700
     46 H13         2.2990    1.3610   -1.0030 ha        1 K4F      0.160500
     47 H14         0.0080    2.2870   -1.0540 ha        1 K4F      0.150500
     48 H15         0.8250   -2.0440    1.3040 ha        1 K4F      0.160500
     49 H16        -1.4320   -1.0920    1.2390 ha        1 K4F      0.150500
     50 H17        -3.0600   -0.5750   -0.2220 hn        1 K4F      0.340500
     51 H18        -4.4170    2.8750   -0.3340 ha        1 K4F      0.178000
     52 H19        -6.8110    3.3640   -0.3750 ha        1 K4F      0.137000
     53 H20        -8.5090    1.5310   -0.2620 ha        1 K4F      0.135000
     54 H21        -9.0330   -0.8610   -0.1110 ha        1 K4F      0.140000
     55 H22        -8.2120   -3.2510    0.0590 ha        1 K4F      0.145000
     56 H23        -5.7280   -3.6700    0.1040 h4        1 K4F      0.022100
@<TRIPOS>BOND
     1    1    2 ar  
     2    1    6 ar  
     3    1   34 1   
     4    2    3 ar  
     5    2   35 1   
     6    3    4 ar  
     7    3   36 1   
     8    4    5 ar  
     9    4   37 1   
    10    5    6 ar  
    11    5   38 1   
    12    6    7 1   
    13    7    8 1   
    14    7   14 1   
    15    7   39 1   
    16    8    9 1   
    17    8   10 1   
    18    8   11 1   
    19    9   40 1   
    20    9   41 1   
    21    9   42 1   
    22   10   43 1   
    23   10   44 1   
    24   10   45 1   
    25   11   12 1   
    26   12   13 2   
    27   12   14 1   
    28   14   15 1   
    29   15   16 ar  
    30   15   18 ar  
    31   16   17 ar  
    32   16   46 1   
    33   17   20 ar  
    34   17   47 1   
    35   18   19 ar  
    36   18   48 1   
    37   19   20 ar  
    38   19   49 1   
    39   20   21 1   
    40   21   22 2   
    41   21   23 1   
    42   23   24 1   
    43   23   50 1   
    44   24   25 ar  
    45   24   28 ar  
    46   25   26 ar  
    47   25   51 1   
    48   26   27 ar  
    49   26   52 1   
    50   27   29 ar  
    51   27   53 1   
    52   28   29 ar  
    53   28   33 ar  
    54   29   30 ar  
    55   30   31 ar  
    56   30   54 1   
    57   31   32 ar  
    58   31   55 1   
    59   32   33 ar  
    60   32   56 1   
@<TRIPOS>SUBSTRUCTURE
     1 K4F         1 TEMP              0 ****  ****    0 ROOT
