@<TRIPOS>MOLECULE
K4F
   56    60     1     0     0
SMALL
bcc


@<TRIPOS>ATOM
      1 C1          0.0400   -0.1290    0.0150 ca        1 K4F     -0.113000
      2 C2          1.4090   -0.3430   -0.1300 ca        1 K4F     -0.128000
      3 C3          2.2050   -0.5710    0.9930 ca        1 K4F     -0.117000
      4 C4          1.6260   -0.5870    2.2610 ca        1 K4F     -0.128000
      5 C5          0.2540   -0.3800    2.4110 ca        1 K4F     -0.113000
      6 C6         -0.5480   -0.1510    1.2880 ca        1 K4F     -0.107300
      7 C7         -2.0290    0.0820    1.3910 c3        1 K4F      0.130000
      8 C8         -2.8530   -1.2520    1.5470 c3        1 K4F      0.146800
      9 C9         -2.0120   -2.4990    1.7080 c3        1 K4F     -0.102600
     10 C10        -3.8570   -1.4000    0.4190 c3        1 K4F     -0.102600
     11 O1         -3.6080   -1.0750    2.7870 os        1 K4F     -0.392900
     12 C11        -3.3710    0.1770    3.3230 c         1 K4F      0.832600
     13 O2         -3.9590    0.4570    4.3680 o         1 K4F     -0.589500
     14 N1         -2.4480    0.8910    2.5390 n         1 K4F     -0.393000
     15 C12        -2.1900    2.2650    2.6380 ca        1 K4F      0.114600
     16 C13        -1.4090    2.9210    1.6560 ca        1 K4F     -0.182000
     17 C14        -1.1490    4.2810    1.7580 ca        1 K4F     -0.060500
     18 C15        -2.6840    3.0250    3.7240 ca        1 K4F     -0.182000
     19 C16        -2.4200    4.3870    3.8070 ca        1 K4F     -0.060500
     20 C17        -1.6620    5.0280    2.8240 ca        1 K4F     -0.178600
     21 C18        -1.3350    6.4830    2.8800 c         1 K4F      0.682700
     22 O3         -0.2220    6.9020    2.5100 o         1 K4F     -0.593100
     23 N2         -2.3520    7.3170    3.3300 n         1 K4F     -0.457100
     24 C19        -2.2790    8.7000    3.5430 ca        1 K4F      0.035300
     25 C20        -1.2240    9.4830    3.0810 ca        1 K4F     -0.168000
     26 C21        -1.1890   10.8730    3.3040 ca        1 K4F     -0.094000
     27 C22        -2.1970   11.5100    3.9820 ca        1 K4F     -0.148000
     28 C23        -3.3650    9.3540    4.2680 ca        1 K4F      0.361600
     29 C24        -3.2960   10.7650    4.4720 ca        1 K4F     -0.121300
     30 C25        -4.3600   11.3970    5.1810 ca        1 K4F     -0.083000
     31 C26        -5.4080   10.6460    5.6460 ca        1 K4F     -0.246300
     32 C27        -5.3930    9.2380    5.3960 ca        1 K4F      0.411200
     33 N3         -4.4310    8.6120    4.7440 nb        1 K4F     -0.679000
     34 H1         -0.5800    0.0590   -0.8750 ha        1 K4F      0.138000
     35 H2          1.8620   -0.3260   -1.1320 ha        1 K4F      0.138000
     36 H3          3.2860   -0.7340    0.8780 ha        1 K4F      0.137000
     37 H4          2.2510   -0.7600    3.1500 ha        1 K4F      0.138000
     38 H5         -0.1890   -0.3920    3.4180 ha        1 K4F      0.138000
     39 H6         -2.3720    0.6040    0.4460 h1        1 K4F      0.073700
     40 H7         -1.4020   -2.6600    0.7870 hc        1 K4F      0.056700
     41 H8         -2.6780   -3.3810    1.8700 hc        1 K4F      0.056700
     42 H9         -1.3300   -2.4030    2.5870 hc        1 K4F      0.056700
     43 H10        -4.5120   -2.2840    0.6130 hc        1 K4F      0.056700
     44 H11        -4.5030   -0.4930    0.3440 hc        1 K4F      0.056700
     45 H12        -3.3160   -1.5500   -0.5450 hc        1 K4F      0.056700
     46 H13        -0.9770    2.3580    0.8120 ha        1 K4F      0.160500
     47 H14        -0.5230    4.7810    1.0000 ha        1 K4F      0.150500
     48 H15        -3.2840    2.5470    4.5180 ha        1 K4F      0.160500
     49 H16        -2.8060    4.9450    4.6760 ha        1 K4F      0.150500
     50 H17        -3.2060    6.8730    3.5960 hn        1 K4F      0.340500
     51 H18        -0.3840    9.0290    2.5290 ha        1 K4F      0.177000
     52 H19        -0.3280   11.4410    2.9190 ha        1 K4F      0.137000
     53 H20        -2.1700   12.5950    4.1570 ha        1 K4F      0.135000
     54 H21        -4.3150   12.4850    5.3420 ha        1 K4F      0.140000
     55 H22        -6.2480   11.0890    6.1970 ha        1 K4F      0.145000
     56 H23        -6.2250    8.6070    5.7610 h4        1 K4F      0.022100
@<TRIPOS>BOND
     1    1    2 ar  
     2    1    6 ar  
     3    1   34 1   
     4    2    3 ar  
     5    2   35 1   
     6    3    4 ar  
     7    3   36 1   
     8    4    5 ar  
     9    4   37 1   
    10    5    6 ar  
    11    5   38 1   
    12    6    7 1   
    13    7    8 1   
    14    7   14 1   
    15    7   39 1   
    16    8    9 1   
    17    8   10 1   
    18    8   11 1   
    19    9   40 1   
    20    9   41 1   
    21    9   42 1   
    22   10   43 1   
    23   10   44 1   
    24   10   45 1   
    25   11   12 1   
    26   12   13 2   
    27   12   14 1   
    28   14   15 1   
    29   15   16 ar  
    30   15   18 ar  
    31   16   17 ar  
    32   16   46 1   
    33   17   20 ar  
    34   17   47 1   
    35   18   19 ar  
    36   18   48 1   
    37   19   20 ar  
    38   19   49 1   
    39   20   21 1   
    40   21   22 2   
    41   21   23 1   
    42   23   24 1   
    43   23   50 1   
    44   24   25 ar  
    45   24   28 ar  
    46   25   26 ar  
    47   25   51 1   
    48   26   27 ar  
    49   26   52 1   
    50   27   29 ar  
    51   27   53 1   
    52   28   29 ar  
    53   28   33 ar  
    54   29   30 ar  
    55   30   31 ar  
    56   30   54 1   
    57   31   32 ar  
    58   31   55 1   
    59   32   33 ar  
    60   32   56 1   
@<TRIPOS>SUBSTRUCTURE
     1 K4F         1 TEMP              0 ****  ****    0 ROOT
