@<TRIPOS>MOLECULE
K4F
   56    48     1     0     0
SMALL
bcc


@<TRIPOS>ATOM
      1 C1         -2.5780   -3.3530   -1.6330 c1        1 K4F     -0.126000
      2 C2         -3.2100   -2.8940   -2.7790 c1        1 K4F     -0.117250
      3 C3         -2.4620   -2.5700   -3.9000 c1        1 K4F     -0.117250
      4 C4         -1.0850   -2.7040   -3.8760 c1        1 K4F     -0.117250
      5 C5         -0.4510   -3.1630   -2.7290 c1        1 K4F     -0.117250
      6 C6         -1.1980   -3.4870   -1.6080 c1        1 K4F     -0.098000
      7 C7         -0.4880   -3.8680   -0.2960 c3        1 K4F      0.044000
      8 C8         -0.1890   -5.3050   -0.2930 c3        1 K4F      0.075000
      9 C9         -0.7260   -5.9430   -1.5600 c3        1 K4F     -0.221000
     10 C10        -0.8260   -5.9620    0.9230 c3        1 K4F     -0.221000
     11 O1          1.2090   -5.4590   -0.2380 os        1 K4F     -0.231000
     12 C11         1.7970   -4.1450   -0.1090 c1        1 K4F      0.399000
     13 O2          2.9710   -3.9050    0.0930 o         1 K4F     -0.311000
     14 N1          0.7340   -3.1700   -0.1930 n2        1 K4F     -0.294000
     15 C12         0.8890   -1.7330   -0.0980 c1        1 K4F      0.120000
     16 C13         1.8610   -1.0910   -0.8580 c1        1 K4F     -0.117250
     17 C14         2.1300    0.2580   -0.6490 c1        1 K4F     -0.117250
     18 C15         0.1850   -1.0240    0.8700 c1        1 K4F     -0.187000
     19 C16         0.4540    0.3250    1.0770 c1        1 K4F     -0.074000
     20 C17         1.4260    0.9650    0.3170 c1        1 K4F     -0.157000
     21 C18         1.7450    2.4450    0.5680 c1        1 K4F      0.356000
     22 O3          2.5630    3.0160   -0.1260 o         1 K4F     -0.350000
     23 N2          1.0230    3.1700    1.5590 n2        1 K4F     -0.312000
     24 C19         1.2610    4.5670    1.7370 c2        1 K4F      0.108000
     25 C20         2.5380    5.0010    2.0650 c2        1 K4F     -0.167000
     26 C21         2.7690    6.3500    2.3330 c1        1 K4F     -0.093000
     27 C22         1.7200    7.2610    2.2710 c1        1 K4F     -0.115500
     28 C23         0.1970    5.4900    1.6740 c1        1 K4F     -0.033000
     29 C24         0.4250    6.8230    1.9390 c1        1 K4F     -0.056000
     30 C25        -0.6270    7.7230    1.9080 c1        1 K4F     -0.115500
     31 C26        -1.8930    7.2880    1.6150 c1        1 K4F     -0.117250
     32 C27        -2.1210    5.9410    1.3480 c1        1 K4F     -0.117250
     33 N3         -1.0840    5.0530    1.3780 n1        1 K4F     -0.154000
     34 H1         -3.1050   -3.5810   -0.8420 ha        1 K4F      0.132000
     35 H2         -4.1850   -2.7990   -2.7960 ha        1 K4F      0.149500
     36 H3         -2.9080   -2.2460   -4.7090 ha        1 K4F      0.149500
     37 H4         -0.5570   -2.4750   -4.6680 ha        1 K4F      0.149500
     38 H5          0.5220   -3.2570   -2.7120 ha        1 K4F      0.149500
     39 H6         -1.0590   -3.6480    0.4650 h1        1 K4F      0.113000
     40 H7         -1.6910   -5.7950   -1.6150 hc        1 K4F      0.096000
     41 H8         -0.2880   -5.5390   -2.3390 hc        1 K4F      0.096000
     42 H9         -0.5430   -6.9080   -1.5440 hc        1 K4F      0.096000
     43 H10        -0.5020   -6.8850    1.0030 hc        1 K4F      0.096000
     44 H11        -0.5850   -5.4590    1.7300 hc        1 K4F      0.096000
     45 H12        -1.8010   -5.9650    0.8190 hc        1 K4F      0.096000
     46 H13         2.3570   -1.5880   -1.5380 ha        1 K4F      0.149500
     47 H14         2.8130    0.7090   -1.1830 ha        1 K4F      0.149500
     48 H15        -0.4960   -1.4720    1.4020 ha        1 K4F      0.145000
     49 H16        -0.0400    0.8220    1.7560 ha        1 K4F      0.142000
     50 H17         0.4140    2.7420    2.0840 hn        1 K4F      0.254000
     51 H18         3.2710    4.3640    2.1080 ha        1 K4F      0.178000
     52 H19         3.6640    6.6540    2.5630 ha        1 K4F      0.138000
     53 H20         1.8820    8.2040    2.4590 ha        1 K4F      0.137500
     54 H21        -0.4670    8.6660    2.0950 ha        1 K4F      0.137500
     55 H22        -2.6330    7.9200    1.5930 ha        1 K4F      0.149500
     56 H23        -3.0190    5.6330    1.1400 ha        1 K4F      0.149500
@<TRIPOS>BOND
     1    1    6 1   
     2    1   34 1   
     3    2    3 1   
     4    2   35 1   
     5    3   36 1   
     6    4    5 1   
     7    4   37 1   
     8    5   38 1   
     9    6    7 1   
    10    7    8 1   
    11    7   14 1   
    12    7   39 1   
    13    8    9 1   
    14    8   10 1   
    15    8   11 1   
    16    9   40 1   
    17    9   41 1   
    18    9   42 1   
    19   10   43 1   
    20   10   44 1   
    21   10   45 1   
    22   11   12 1   
    23   12   13 1   
    24   14   15 1   
    25   15   18 1   
    26   16   17 1   
    27   16   46 1   
    28   17   47 1   
    29   18   48 1   
    30   19   20 1   
    31   19   49 1   
    32   20   21 1   
    33   21   22 1   
    34   23   24 1   
    35   23   50 1   
    36   24   25 1   
    37   24   28 1   
    38   25   26 1   
    39   25   51 1   
    40   26   52 1   
    41   27   29 1   
    42   27   53 1   
    43   28   33 1   
    44   29   30 1   
    45   30   54 1   
    46   31   32 1   
    47   31   55 1   
    48   32   56 1   
@<TRIPOS>SUBSTRUCTURE
     1 K4F         1 TEMP              0 ****  ****    0 ROOT
