@<TRIPOS>MOLECULE
K51
   44    46     1     0     0
SMALL
bcc


@<TRIPOS>ATOM
      1 N4          0.4340   -0.8940   -2.9490 n1        1 K51     -0.315800
      2 C13         0.7000   -0.5840   -1.8590 cg        1 K51      0.209800
      3 C10         1.0240   -0.2080   -0.5270 ca        1 K51      0.021000
      4 C11         2.3660   -0.1080   -0.1320 ca        1 K51     -0.091500
      5 C12         2.6790    0.2550    1.1760 ca        1 K51     -0.105500
      6 C7          1.6550    0.5210    2.0990 ca        1 K51     -0.038800
      7 C8          0.3160    0.4260    1.6980 ca        1 K51     -0.105500
      8 C9          0.0000    0.0650    0.3910 ca        1 K51     -0.091500
      9 C5          2.0160    0.9210    3.4420 cc        1 K51     -0.034300
     10 C6          3.0210    1.8290    3.8610 cd        1 K51      0.050600
     11 N3          3.0830    1.9480    5.2380 nd        1 K51     -0.204600
     12 C1          2.1330    1.1250    5.7360 cc        1 K51     -0.064300
     13 C2          1.7260    0.8060    7.0700 cc        1 K51      0.003000
     14 C3          0.7200   -0.1030    7.2530 cd        1 K51     -0.249300
     15 C4          0.1180   -0.7070    6.0830 cd        1 K51      0.409200
     16 N1          0.4610   -0.4240    4.8060 nc        1 K51     -0.421800
     17 N2          1.4180    0.4490    4.6380 na        1 K51      0.164200
     18 N5         -0.9380   -1.7150    6.2880 n4        1 K51     -0.733700
     19 C14        -2.3240   -1.1100    6.2920 c3        1 K51      0.095500
     20 C15        -2.5110   -0.2610    7.5730 c3        1 K51      0.106400
     21 O1         -2.1360   -1.0150    8.7060 oh        1 K51     -0.614800
     22 C16        -3.4210   -2.1910    6.1890 c3        1 K51     -0.085700
     23 C17        -4.7230   -1.5260    5.7790 c3        1 K51     -0.114600
     24 C18        -3.0930   -3.2920    5.2020 c3        1 K51     -0.114600
     25 H11         3.1720   -0.3160   -0.8540 ha        1 K51      0.159500
     26 H12         3.7330    0.3330    1.4850 ha        1 K51      0.144000
     27 H8         -0.4950    0.6550    2.4050 ha        1 K51      0.144000
     28 H9         -1.0530    0.0000    0.0750 ha        1 K51      0.159500
     29 H6          3.6910    2.4030    3.2120 h4        1 K51      0.217000
     30 H2          2.2400    1.3050    7.9100 ha        1 K51      0.203000
     31 H3          0.3620   -0.3740    8.2600 ha        1 K51      0.187000
     32 HN5        -0.8860   -2.4380    5.5560 hn        1 K51      0.473800
     33 H14        -2.3900   -0.4300    5.3910 hx        1 K51      0.118700
     34 H151       -1.8170    0.6250    7.5500 h1        1 K51      0.089700
     35 H152       -3.5710    0.0990    7.6220 h1        1 K51      0.089700
     36 HO1        -2.9370   -1.3180    9.1540 ho        1 K51      0.438000
     37 H16        -3.5510   -2.6480    7.2120 hc        1 K51      0.071700
     38 H171       -5.5370   -2.2930    5.7450 hc        1 K51      0.059700
     39 H172       -5.0280   -0.7340    6.5040 hc        1 K51      0.059700
     40 H173       -4.6320   -1.0680    4.7640 hc        1 K51      0.059700
     41 H181       -2.3330   -4.0030    5.6090 hc        1 K51      0.059700
     42 H182       -2.7350   -2.8740    4.2300 hc        1 K51      0.059700
     43 H183       -4.0160   -3.8910    4.9920 hc        1 K51      0.059700
     44 H52        -0.7770   -2.1510    7.2100 hn        1 K51      0.473800
@<TRIPOS>BOND
     1    1    2 3   
     2    2    3 1   
     3    3    4 ar  
     4    3    8 ar  
     5    4    5 ar  
     6    4   25 1   
     7    5    6 ar  
     8    5   26 1   
     9    6    7 ar  
    10    6    9 1   
    11    7    8 ar  
    12    7   27 1   
    13    8   28 1   
    14    9   10 2   
    15    9   17 1   
    16   10   11 1   
    17   10   29 1   
    18   11   12 2   
    19   12   13 1   
    20   12   17 1   
    21   13   14 2   
    22   13   30 1   
    23   14   15 1   
    24   14   31 1   
    25   15   16 2   
    26   15   18 1   
    27   16   17 1   
    28   18   19 1   
    29   18   32 1   
    30   18   44 1   
    31   19   20 1   
    32   19   22 1   
    33   19   33 1   
    34   20   21 1   
    35   20   34 1   
    36   20   35 1   
    37   21   36 1   
    38   22   23 1   
    39   22   24 1   
    40   22   37 1   
    41   23   38 1   
    42   23   39 1   
    43   23   40 1   
    44   24   41 1   
    45   24   42 1   
    46   24   43 1   
@<TRIPOS>SUBSTRUCTURE
     1 K51         1 TEMP              0 ****  ****    0 ROOT
