@<TRIPOS>MOLECULE
K51
   43    45     1     0     0
SMALL
bcc


@<TRIPOS>ATOM
      1 N4         -1.0410    0.4350   -2.4730 n1        1 K51     -0.366800
      2 C13        -0.5090    0.4000   -1.4390 cg        1 K51      0.235800
      3 C10         0.1400    0.3570   -0.1750 ca        1 K51     -0.022000
      4 C11         1.4130   -0.2190   -0.0580 ca        1 K51     -0.092500
      5 C12         2.0430   -0.2630    1.1800 ca        1 K51     -0.120000
      6 C7          1.4140    0.2670    2.3210 ca        1 K51      0.017200
      7 C8          0.1440    0.8470    2.1960 ca        1 K51     -0.120000
      8 C9         -0.4900    0.8900    0.9570 ca        1 K51     -0.092500
      9 C5          2.1200    0.2210    3.5810 cc        1 K51     -0.095300
     10 C6          3.5280    0.3350    3.7980 cd        1 K51      0.012600
     11 N3          3.8530    0.2420    5.1270 nd        1 K51     -0.254600
     12 C1          2.6670    0.0610    5.7860 cc        1 K51     -0.105300
     13 C2          2.3650   -0.1170    7.1750 cc        1 K51     -0.017000
     14 C3          1.0660   -0.2930    7.5410 cd        1 K51     -0.273300
     15 C4          0.0140   -0.2930    6.5160 cd        1 K51      0.625200
     16 N1          0.2890   -0.1390    5.1930 nc        1 K51     -0.562800
     17 N2          1.5600    0.0490    4.8590 na        1 K51      0.219200
     18 N5         -1.3070   -0.3640    6.9620 nu        1 K51     -0.828900
     19 C14        -2.4210   -0.6880    6.0910 c3        1 K51      0.214500
     20 C15        -3.6920    0.0190    6.6270 c3        1 K51      0.122400
     21 O1         -4.0330   -0.5680    7.8720 oh        1 K51     -0.608800
     22 C16        -2.6960   -2.2050    5.9420 c3        1 K51     -0.091700
     23 C17        -3.8200   -2.4400    4.9520 c3        1 K51     -0.092600
     24 C18        -1.4630   -2.9580    5.4920 c3        1 K51     -0.092600
     25 H11         1.9120   -0.6380   -0.9460 ha        1 K51      0.145000
     26 H12         3.0400   -0.7200    1.2720 ha        1 K51      0.149000
     27 H8         -0.3610    1.2800    3.0730 ha        1 K51      0.149000
     28 H9         -1.4880    1.3470    0.8670 ha        1 K51      0.145000
     29 H6          4.2870    0.4900    3.0290 h4        1 K51      0.186000
     30 H2          3.1960   -0.1080    7.8960 ha        1 K51      0.170000
     31 H3          0.7850   -0.4290    8.5950 ha        1 K51      0.155000
     32 HN5        -1.4050   -0.7410    7.8830 hn        1 K51      0.427800
     33 H14        -2.2290   -0.2600    5.0640 h1        1 K51      0.086700
     34 H151       -4.5270   -0.1230    5.8900 h1        1 K51      0.036700
     35 H152       -3.5030    1.1180    6.7570 h1        1 K51      0.036700
     36 HO1        -4.7870   -0.0740    8.2120 ho        1 K51      0.406000
     37 H16        -3.0180   -2.5970    6.9480 hc        1 K51      0.066700
     38 H171       -3.6440   -1.8730    4.0070 hc        1 K51      0.038533
     39 H172       -4.8010   -2.1260    5.3840 hc        1 K51      0.038533
     40 H173       -3.8870   -3.5270    4.7020 hc        1 K51      0.038533
     41 H181       -1.0910   -2.5580    4.5180 hc        1 K51      0.038533
     42 H182       -0.6430   -2.8820    6.2450 hc        1 K51      0.038533
     43 H183       -1.7070   -4.0410    5.3580 hc        1 K51      0.038533
@<TRIPOS>BOND
     1    1    2 3   
     2    2    3 1   
     3    3    4 ar  
     4    3    8 ar  
     5    4    5 ar  
     6    4   25 1   
     7    5    6 ar  
     8    5   26 1   
     9    6    7 ar  
    10    6    9 1   
    11    7    8 ar  
    12    7   27 1   
    13    8   28 1   
    14    9   10 2   
    15    9   17 1   
    16   10   11 1   
    17   10   29 1   
    18   11   12 2   
    19   12   13 1   
    20   12   17 1   
    21   13   14 2   
    22   13   30 1   
    23   14   15 1   
    24   14   31 1   
    25   15   16 2   
    26   15   18 1   
    27   16   17 1   
    28   18   19 1   
    29   18   32 1   
    30   19   20 1   
    31   19   22 1   
    32   19   33 1   
    33   20   21 1   
    34   20   34 1   
    35   20   35 1   
    36   21   36 1   
    37   22   23 1   
    38   22   24 1   
    39   22   37 1   
    40   23   38 1   
    41   23   39 1   
    42   23   40 1   
    43   24   41 1   
    44   24   42 1   
    45   24   43 1   
@<TRIPOS>SUBSTRUCTURE
     1 K51         1 TEMP              0 ****  ****    0 ROOT
