@<TRIPOS>MOLECULE
K51
   43    45     1     0     0
SMALL
bcc


@<TRIPOS>ATOM
      1 N4         -1.0620    0.4640   -2.4670 n1        1 K51     -0.366800
      2 C13        -0.5270    0.4260   -1.4350 cg        1 K51      0.235800
      3 C10         0.1250    0.3790   -0.1730 ca        1 K51     -0.022000
      4 C11         1.4010   -0.1940   -0.0620 ca        1 K51     -0.092500
      5 C12         2.0340   -0.2420    1.1750 ca        1 K51     -0.120000
      6 C7          1.4070    0.2820    2.3190 ca        1 K51      0.017200
      7 C8          0.1350    0.8590    2.2000 ca        1 K51     -0.120000
      8 C9         -0.5030    0.9060    0.9630 ca        1 K51     -0.092500
      9 C5          2.1160    0.2320    3.5770 cc        1 K51     -0.095300
     10 C6          3.5240    0.3490    3.7910 cd        1 K51      0.012600
     11 N3          3.8530    0.2510    5.1190 nd        1 K51     -0.254600
     12 C1          2.6700    0.0650    5.7800 cc        1 K51     -0.105300
     13 C2          2.3710   -0.1200    7.1690 cc        1 K51     -0.017000
     14 C3          1.0740   -0.3010    7.5380 cd        1 K51     -0.273300
     15 C4          0.0190   -0.3010    6.5160 cd        1 K51      0.625200
     16 N1          0.2910   -0.1390    5.1920 nc        1 K51     -0.562800
     17 N2          1.5600    0.0530    4.8560 na        1 K51      0.219200
     18 N5         -1.3000   -0.3770    6.9650 nh        1 K51     -0.828900
     19 C14        -2.4160   -0.7020    6.0960 c3        1 K51      0.214500
     20 C15        -3.6870   -0.0010    6.6370 c3        1 K51      0.122400
     21 O1         -4.0230   -0.5940    7.8800 oh        1 K51     -0.608800
     22 C16        -2.6860   -2.2180    5.9410 c3        1 K51     -0.091700
     23 C17        -3.8120   -2.4530    4.9530 c3        1 K51     -0.092600
     24 C18        -1.4520   -2.9660    5.4860 c3        1 K51     -0.092600
     25 H11         1.8980   -0.6080   -0.9530 ha        1 K51      0.145000
     26 H12         3.0330   -0.6970    1.2620 ha        1 K51      0.149000
     27 H8         -0.3690    1.2870    3.0800 ha        1 K51      0.149000
     28 H9         -1.5020    1.3600    0.8780 ha        1 K51      0.145000
     29 H6          4.2810    0.5100    3.0210 h4        1 K51      0.186000
     30 H2          3.2040   -0.1120    7.8880 ha        1 K51      0.170000
     31 H3          0.7960   -0.4430    8.5920 ha        1 K51      0.155000
     32 HN5        -1.3940   -0.7580    7.8840 hn        1 K51      0.427800
     33 H14        -2.2270   -0.2690    5.0690 h1        1 K51      0.086700
     34 H151       -3.5020    1.0990    6.7710 h1        1 K51      0.036700
     35 H152       -4.5230   -0.1420    5.9020 h1        1 K51      0.036700
     36 HO1        -4.7780   -0.1030    8.2250 ho        1 K51      0.406000
     37 H16        -3.0050   -2.6160    6.9460 hc        1 K51      0.066700
     38 H171       -3.8750   -3.5400    4.6990 hc        1 K51      0.038533
     39 H172       -3.6380   -1.8830    4.0090 hc        1 K51      0.038533
     40 H173       -4.7920   -2.1440    5.3870 hc        1 K51      0.038533
     41 H181       -1.6920   -4.0490    5.3480 hc        1 K51      0.038533
     42 H182       -1.0820   -2.5610    4.5130 hc        1 K51      0.038533
     43 H183       -0.6300   -2.8910    6.2380 hc        1 K51      0.038533
@<TRIPOS>BOND
     1    1    2 3   
     2    2    3 1   
     3    3    4 ar  
     4    3    8 ar  
     5    4    5 ar  
     6    4   25 1   
     7    5    6 ar  
     8    5   26 1   
     9    6    7 ar  
    10    6    9 1   
    11    7    8 ar  
    12    7   27 1   
    13    8   28 1   
    14    9   10 2   
    15    9   17 1   
    16   10   11 1   
    17   10   29 1   
    18   11   12 2   
    19   12   13 1   
    20   12   17 1   
    21   13   14 2   
    22   13   30 1   
    23   14   15 1   
    24   14   31 1   
    25   15   16 2   
    26   15   18 1   
    27   16   17 1   
    28   18   19 1   
    29   18   32 1   
    30   19   20 1   
    31   19   22 1   
    32   19   33 1   
    33   20   21 1   
    34   20   34 1   
    35   20   35 1   
    36   21   36 1   
    37   22   23 1   
    38   22   24 1   
    39   22   37 1   
    40   23   38 1   
    41   23   39 1   
    42   23   40 1   
    43   24   41 1   
    44   24   42 1   
    45   24   43 1   
@<TRIPOS>SUBSTRUCTURE
     1 K51         1 TEMP              0 ****  ****    0 ROOT
