@<TRIPOS>MOLECULE
K51
   43    45     1     0     0
SMALL
bcc


@<TRIPOS>ATOM
      1 N4         -5.9940   -3.0230    0.6390 n1        1 K51     -0.366800
      2 C13        -5.1930   -2.1820    0.5660 cg        1 K51      0.235800
      3 C10        -4.2150   -1.1550    0.4760 ca        1 K51     -0.022000
      4 C11        -4.4610   -0.0160   -0.3050 ca        1 K51     -0.092500
      5 C12        -3.5000    0.9850   -0.3940 ca        1 K51     -0.120000
      6 C7         -2.2800    0.8670    0.2950 ca        1 K51      0.017200
      7 C8         -2.0430   -0.2710    1.0790 ca        1 K51     -0.120000
      8 C9         -3.0030   -1.2760    1.1680 ca        1 K51     -0.092500
      9 C5         -1.3240    1.9460    0.1920 cc        1 K51     -0.095300
     10 C6         -1.5940    3.3440    0.0710 cd        1 K51      0.012600
     11 N3         -0.4430    4.0850   -0.0080 nd        1 K51     -0.254600
     12 C1          0.5830    3.1820    0.0540 cc        1 K51     -0.105300
     13 C2          2.0060    3.3490    0.0040 cc        1 K51     -0.017000
     14 C3          2.7940    2.2420    0.0750 cd        1 K51     -0.273300
     15 C4          2.1770    0.9150    0.2040 cd        1 K51      0.625200
     16 N1          0.8280    0.7420    0.2400 nc        1 K51     -0.562800
     17 N2          0.0780    1.8360    0.1860 na        1 K51      0.219200
     18 N5          3.0360   -0.1690    0.3870 nh        1 K51     -0.828900
     19 C14         2.6180   -1.5490    0.2160 c3        1 K51      0.214500
     20 C15         3.4610   -2.4430    1.1600 c3        1 K51      0.122400
     21 O1          4.8050   -2.4210    0.7060 oh        1 K51     -0.608800
     22 C16         2.7310   -2.0760   -1.2350 c3        1 K51     -0.091700
     23 C17         2.1950   -3.4920   -1.3230 c3        1 K51     -0.092600
     24 C18         1.9860   -1.1940   -2.2140 c3        1 K51     -0.092600
     25 H11        -5.4130    0.0830   -0.8500 ha        1 K51      0.145000
     26 H12        -3.6920    1.8750   -1.0120 ha        1 K51      0.149000
     27 H8         -1.1010   -0.3770    1.6390 ha        1 K51      0.149000
     28 H9         -2.8100   -2.1660    1.7860 ha        1 K51      0.145000
     29 H6         -2.5810    3.8090    0.0520 h4        1 K51      0.186000
     30 H2          2.4090    4.3680   -0.0940 ha        1 K51      0.170000
     31 H3          3.8900    2.3200    0.0450 ha        1 K51      0.155000
     32 HN5         3.9730   -0.0020    0.0810 hn        1 K51      0.427800
     33 H14         1.5450   -1.6580    0.5500 h1        1 K51      0.086700
     34 H151        3.4030   -2.0640    2.2150 h1        1 K51      0.036700
     35 H152        3.0590   -3.4900    1.1270 h1        1 K51      0.036700
     36 HO1         5.3190   -2.9330    1.3410 ho        1 K51      0.406000
     37 H16         3.8230   -2.0900   -1.5130 hc        1 K51      0.066700
     38 H171        1.1890   -3.5670   -0.8460 hc        1 K51      0.038533
     39 H172        2.1000   -3.7970   -2.3940 hc        1 K51      0.038533
     40 H173        2.8870   -4.2100   -0.8220 hc        1 K51      0.038533
     41 H181        2.4170   -0.1650   -2.2420 hc        1 K51      0.038533
     42 H182        2.0570   -1.6230   -3.2430 hc        1 K51      0.038533
     43 H183        0.9070   -1.1210   -1.9350 hc        1 K51      0.038533
@<TRIPOS>BOND
     1    1    2 3   
     2    2    3 1   
     3    3    4 ar  
     4    3    8 ar  
     5    4    5 ar  
     6    4   25 1   
     7    5    6 ar  
     8    5   26 1   
     9    6    7 ar  
    10    6    9 1   
    11    7    8 ar  
    12    7   27 1   
    13    8   28 1   
    14    9   10 2   
    15    9   17 1   
    16   10   11 1   
    17   10   29 1   
    18   11   12 2   
    19   12   13 1   
    20   12   17 1   
    21   13   14 2   
    22   13   30 1   
    23   14   15 1   
    24   14   31 1   
    25   15   16 2   
    26   15   18 1   
    27   16   17 1   
    28   18   19 1   
    29   18   32 1   
    30   19   20 1   
    31   19   22 1   
    32   19   33 1   
    33   20   21 1   
    34   20   34 1   
    35   20   35 1   
    36   21   36 1   
    37   22   23 1   
    38   22   24 1   
    39   22   37 1   
    40   23   38 1   
    41   23   39 1   
    42   23   40 1   
    43   24   41 1   
    44   24   42 1   
    45   24   43 1   
@<TRIPOS>SUBSTRUCTURE
     1 K51         1 TEMP              0 ****  ****    0 ROOT
