@<TRIPOS>MOLECULE
K53
   79    73     1     0     0
SMALL
bcc


@<TRIPOS>ATOM
      1 C2         -7.5590    1.6850    2.8240 c1        1 K53      0.029500
      2 C3         -7.2420    1.9270    1.4940 c1        1 K53      0.029500
      3 C4         -6.0260    1.4540    0.9630 c1        1 K53     -0.079500
      4 C5         -5.1390    0.7400    1.7730 c1        1 K53     -0.822000
      5 C6         -5.4590    0.4970    3.1120 c1        1 K53     -0.011000
      6 C7         -6.6670    0.9680    3.6400 c1        1 K53     -0.079500
      7 S8         -3.6850   -0.0730    1.0270 s4        1 K53      2.067800
      8 O9         -4.0290   -1.3590    0.4820 o         1 K53     -0.538900
      9 O10        -3.2470    0.6220   -0.1520 o         1 K53     -0.538900
     10 N11        -2.4410   -0.2030    2.1600 n2        1 K53     -0.819000
     11 C12        -2.7570   -0.4640    3.5560 c3        1 K53     -0.004000
     12 C13        -2.4850   -1.9440    3.8760 c3        1 K53     -0.120000
     13 C14        -2.0120   -2.0730    5.3300 c3        1 K53     -0.218000
     14 C15        -3.7810   -2.7580    3.6820 c3        1 K53     -0.218000
     15 C16        -1.0350    0.0880    1.7580 c3        1 K53     -0.041000
     16 C17        -0.6800   -0.7260    0.5130 c3        1 K53      0.003000
     17 C18        -9.4160    2.5750    1.8150 c3        1 K53      0.098000
     18 O18        -1.4770   -0.3180   -0.5510 oh        1 K53     -0.322000
     19 C19         0.7930   -0.5060    0.1600 c3        1 K53     -0.012000
     20 O19        -8.9240    2.0580    3.0250 os        1 K53     -0.211500
     21 N20         0.8920    0.4320   -0.9060 n         1 K53     -0.355000
     22 C21         1.7760    0.1690   -2.0190 c2        1 K53      0.297000
     23 O22         1.9680   -0.9710   -2.3820 o         1 K53     -0.354000
     24 N24         4.0850    0.6190   -4.2230 n         1 K53     -0.250000
     25 C25         2.6950    0.8440   -4.1650 c3        1 K53     -0.065000
     26 C26         4.6110    0.8570   -2.9560 c2        1 K53      0.382000
     27 O27         5.7350    0.5880   -2.5900 o         1 K53     -0.300000
     28 O28         3.6460    1.5680   -2.2110 os        1 K53     -0.254000
     29 C29         2.3810    1.2850   -2.7540 c3        1 K53     -0.010000
     30 O29        -8.3940    2.4910    0.8610 os        1 K53     -0.211500
     31 C32         1.5280    0.0220    1.3660 c3        1 K53     -0.139000
     32 C33         3.8980    0.7590    1.0200 c1        1 K53     -0.124000
     33 C34         5.2600    0.5710    1.2480 c1        1 K53     -0.123667
     34 C35         5.7250   -0.6570    1.6840 c1        1 K53     -0.123667
     35 C36         4.8330   -1.7050    1.8940 c1        1 K53     -0.123667
     36 C37         3.4790   -1.5180    1.6670 c1        1 K53     -0.123667
     37 C38         3.0110   -0.2830    1.2290 c1        1 K53     -0.084000
     38 C40         6.4520   -0.3160   -7.6180 c1        1 K53     -0.123667
     39 C41         6.0660    0.9980   -7.3810 c1        1 K53     -0.207000
     40 C42         5.2640    1.3020   -6.2810 c1        1 K53      0.070000
     41 C43         4.8500    0.2900   -5.4210 c1        1 K53      0.007000
     42 C44         5.2370   -1.0250   -5.6590 c1        1 K53     -0.063000
     43 C45         6.0380   -1.3290   -6.7590 c1        1 K53     -0.123667
     44 O46         4.9730    2.6400   -5.9760 oh        1 K53     -0.261000
     45 H4         -5.8050    1.6230    0.0320 ha        1 K53      0.168500
     46 H6         -4.8440    0.0020    3.6750 ha        1 K53      0.161000
     47 H7         -6.8900    0.7980    4.5750 ha        1 K53      0.168500
     48 H12        -2.2000    0.1010    4.1270 h1        1 K53      0.085000
     49 H12A       -3.6930   -0.2640    3.7180 h1        1 K53      0.085000
     50 H13        -1.7920   -2.2850    3.2770 hc        1 K53      0.082000
     51 H14        -1.2040   -1.5280    5.4610 hc        1 K53      0.082500
     52 H14A       -1.8080   -3.0130    5.5260 hc        1 K53      0.082500
     53 H14B       -2.7200   -1.7590    5.9330 hc        1 K53      0.082500
     54 H15        -3.7610   -3.5510    4.2640 hc        1 K53      0.082500
     55 H15A       -4.5570   -2.1990    3.9150 hc        1 K53      0.082500
     56 H15B       -3.8520   -3.0430    2.7440 hc        1 K53      0.082500
     57 H16        -0.9430    1.0430    1.5610 h1        1 K53      0.095000
     58 H16A       -0.4310   -0.1540    2.4880 h1        1 K53      0.095000
     59 H17        -0.8330   -1.6700    0.6880 h1        1 K53      0.121000
     60 H18        -9.6800    3.5150    1.9380 h2        1 K53      0.118500
     61 H18A      -10.1920    2.0460    1.5180 h2        1 K53      0.118500
     62 HO18       -1.6250   -1.0050   -1.0880 ho        1 K53      0.231000
     63 H19         1.1920   -1.3580   -0.1180 h1        1 K53      0.147000
     64 HN20        0.3650    1.1720   -0.9100 hn        1 K53      0.234000
     65 H25         2.2660   -0.0250   -4.2870 h1        1 K53      0.132000
     66 H25A        2.5120    1.6100   -4.7430 h1        1 K53      0.132000
     67 H29         1.6930    1.9690   -2.6480 h1        1 K53      0.147000
     68 H32         1.4000    0.9860    1.4290 hc        1 K53      0.093500
     69 H32A        1.1810   -0.4050    2.1720 hc        1 K53      0.093500
     70 H33         3.5730    1.6200    0.7150 ha        1 K53      0.132000
     71 H34         5.8850    1.3050    1.1010 ha        1 K53      0.135667
     72 H35         6.6760   -0.7880    1.8430 ha        1 K53      0.135667
     73 H36         5.1590   -2.5660    2.2000 ha        1 K53      0.135667
     74 H37         2.8550   -2.2510    1.8140 ha        1 K53      0.135667
     75 H40         7.0150   -0.5290   -8.3910 ha        1 K53      0.135667
     76 H41         6.3580    1.7110   -7.9870 ha        1 K53      0.139000
     77 H44         4.9480   -1.7320   -5.0590 ha        1 K53      0.155000
     78 H45         6.3100   -2.2530   -6.9250 ha        1 K53      0.135667
     79 HO46        4.7000    3.0600   -6.7140 ho        1 K53      0.228000
@<TRIPOS>BOND
     1    1    6 1   
     2    1   20 1   
     3    2    3 1   
     4    2   30 1   
     5    3   45 1   
     6    4    5 1   
     7    4    7 1   
     8    5   46 1   
     9    6   47 1   
    10    7    8 1   
    11    7    9 1   
    12   10   11 1   
    13   10   15 1   
    14   11   12 1   
    15   11   48 1   
    16   11   49 1   
    17   12   13 1   
    18   12   14 1   
    19   12   50 1   
    20   13   51 1   
    21   13   52 1   
    22   13   53 1   
    23   14   54 1   
    24   14   55 1   
    25   14   56 1   
    26   15   16 1   
    27   15   57 1   
    28   15   58 1   
    29   16   18 1   
    30   16   19 1   
    31   16   59 1   
    32   17   20 1   
    33   17   30 1   
    34   17   60 1   
    35   17   61 1   
    36   18   62 1   
    37   19   21 1   
    38   19   31 1   
    39   19   63 1   
    40   21   22 1   
    41   21   64 1   
    42   22   23 1   
    43   22   29 1   
    44   24   25 1   
    45   24   26 1   
    46   24   41 1   
    47   25   29 1   
    48   25   65 1   
    49   25   66 1   
    50   26   27 1   
    51   26   28 1   
    52   28   29 1   
    53   29   67 1   
    54   31   37 1   
    55   31   68 1   
    56   31   69 1   
    57   32   37 1   
    58   32   70 1   
    59   33   34 1   
    60   33   71 1   
    61   34   72 1   
    62   35   36 1   
    63   35   73 1   
    64   36   74 1   
    65   38   43 1   
    66   38   75 1   
    67   39   40 1   
    68   39   76 1   
    69   40   44 1   
    70   41   42 1   
    71   42   77 1   
    72   43   78 1   
    73   44   79 1   
@<TRIPOS>SUBSTRUCTURE
     1 K53         1 TEMP              0 ****  ****    0 ROOT
