@<TRIPOS>MOLECULE
K53
   81    79     1     0     0
SMALL
bcc


@<TRIPOS>ATOM
      1 C2         -2.5550    1.4160    3.2400 c2        1 K53      0.225000
      2 C3         -1.3880    1.4630    2.5120 c2        1 K53     -0.105000
      3 C4         -0.0070    1.3260    2.8120 c2        1 K53      0.190000
      4 C5          0.4840    1.0410    4.0410 c2        1 K53     -1.053000
      5 C6         -3.0940    1.0620    5.7480 c1        1 K53     -0.071000
      6 C7         -2.8280    1.2210    4.5910 c1        1 K53     -0.166000
      7 S8          2.0460    0.8170    4.4310 s6        1 K53      2.897000
      8 O9          2.0690    0.0440    5.6660 o         1 K53     -0.999500
      9 O10         2.7920    0.1550    3.4290 o         1 K53     -0.999500
     10 N11         2.6550    2.2920    4.7130 n3        1 K53     -0.825000
     11 C12         2.0560    3.2050    5.6440 c3        1 K53     -0.068000
     12 C13         2.7620   -1.8190    6.7680 c2        1 K53      0.367000
     13 C14         3.2820   -1.0990    7.9090 c3        1 K53     -0.316500
     14 C15         1.4780   -2.4860    6.7900 c3        1 K53     -0.316500
     15 C16         3.7500    2.8060    3.9300 c3        1 K53     -0.053000
     16 C17         3.3290    3.5150    2.6200 c3        1 K53     -0.001000
     17 C18        -3.1340    1.8120    1.0560 c3        1 K53      0.100000
     18 O18         2.6750    2.5990    1.7640 oh        1 K53     -0.341000
     19 C19         4.5780    4.1830    1.9850 c3        1 K53     -0.056000
     20 O19        -3.6410    1.6250    2.3970 os        1 K53     -0.196000
     21 N20         4.5210    4.2400    0.5340 n3        1 K53     -0.368000
     22 C21         5.4700    2.1690   -0.9350 c2        1 K53      0.206000
     23 O22         4.5110    1.4560   -0.6670 o         1 K53     -0.224000
     24 N24         5.2650    3.0180   -4.7100 n3        1 K53     -0.125000
     25 C25         5.3120    2.2020   -3.4860 c3        1 K53     -0.110000
     26 C26         5.5450    4.3040   -4.6500 c1        1 K53      0.457000
     27 O27         5.6400    5.4690   -4.6710 o         1 K53      0.071000
     28 O28         5.6720    4.2100   -2.2270 o         1 K53     -0.263000
     29 C29         5.4970    2.9880   -2.2030 c2        1 K53      0.164000
     30 O29        -1.7050    1.7100    1.1560 os        1 K53     -0.232000
     31 C32         4.7710    5.5590    2.6630 c3        1 K53     -0.071000
     32 C33         6.2000    9.7340    1.6510 c2        1 K53     -0.179000
     33 C34         7.3590    9.6660    0.9900 c2        1 K53     -0.160000
     34 C35         8.3630    8.6370    1.1430 c2        1 K53     -0.068000
     35 C36         8.1950    7.3670    1.5550 c2        1 K53     -0.102000
     36 C37         6.9890    6.7610    1.9230 c1        1 K53     -0.067000
     37 C38         5.9790    6.1980    2.2450 c1        1 K53     -0.220000
     38 C40         8.2140    1.5270   -9.9200 c2        1 K53     -0.091000
     39 C41         7.3530    1.8370   -7.5240 c1        1 K53     -0.201000
     40 C42         6.9250    1.9920   -6.2880 c2        1 K53      0.081000
     41 C43         5.5260    2.3240   -5.9650 c2        1 K53     -0.023000
     42 C44         4.4960    1.9980   -6.7690 c2        1 K53     -0.094000
     43 C45         7.7740    1.6840   -8.7030 c1        1 K53     -0.040000
     44 H4          0.6810    1.4720    1.9460 ha        1 K53      0.184000
     45 H6         -0.2530    0.9210    4.8600 h4        1 K53      0.189000
     46 H7         -3.3390    0.9240    6.7750 ha        1 K53      0.247000
     47 H12         1.6540    4.1120    5.1160 h1        1 K53      0.090000
     48 H12A        1.2110    2.6930    6.1790 h1        1 K53      0.090000
     49 H13         2.8130    3.5420    6.4020 h1        1 K53      0.090000
     50 H14         3.0180   -0.0040    7.7380 hc        1 K53      0.175667
     51 H14A        2.8240   -1.4050    8.8850 hc        1 K53      0.175667
     52 H14B        4.4010   -1.1530    7.9780 hc        1 K53      0.175667
     53 H15         1.1020   -2.7070    7.8220 hc        1 K53      0.175667
     54 H15A        0.7380   -1.7740    6.3010 hc        1 K53      0.175667
     55 H15B        1.4760   -3.4250    6.1740 hc        1 K53      0.175667
     56 H16         4.3400    3.5310    4.5580 h1        1 K53      0.114000
     57 H16A        4.4280    1.9440    3.6580 h1        1 K53      0.114000
     58 H17         2.5440    4.2990    2.8250 h1        1 K53      0.125000
     59 H18        -3.4110    2.8390    0.7090 h2        1 K53      0.129000
     60 H18A       -3.5220    0.9850    0.4080 h2        1 K53      0.129000
     61 HO18        3.3230    1.9450    1.4600 ho        1 K53      0.232000
     62 H19         3.5830    4.4190    0.2280 hn        1 K53      0.164500
     63 HN20        5.4830    3.5490    2.2290 h1        1 K53      0.103000
     64 H25A        6.1560    1.4500   -3.5870 h1        1 K53      0.186000
     65 H29         6.3720    2.2900   -0.2990 h4        1 K53      0.162000
     66 H32         3.8920    6.2230    2.4300 hc        1 K53      0.106000
     67 H32A        4.7950    5.4160    3.7800 hc        1 K53      0.106000
     68 H33         5.8900    8.9830    2.3890 ha        1 K53      0.120000
     69 H34         5.4960   10.5640    1.5020 ha        1 K53      0.120000
     70 H35         7.6330   10.4640    0.2740 ha        1 K53      0.134000
     71 H36         9.3880    8.9630    0.8750 ha        1 K53      0.138000
     72 H37         9.0770    6.7000    1.6250 ha        1 K53      0.143000
     73 H40         7.5640    1.6590  -10.8010 ha        1 K53      0.170000
     74 H41         9.2620    1.2530  -10.1310 ha        1 K53      0.170000
     75 H44         4.6860    1.4210   -7.6910 ha        1 K53      0.171500
     76 H45         3.4460    2.2620   -6.5760 ha        1 K53      0.171500
     77 HO46        8.6130    1.5720   -5.4670 ho        1 K53      0.260000
     78 O46         7.7340    1.8570   -5.1710 oh        1 K53     -0.295000
     79 H111        3.3850   -1.8930    5.8510 ha        1 K53      0.178000
     80 H202        5.1240    4.9670    0.1930 hn        1 K53      0.164500
     81 H25         4.3250    1.6490   -3.4380 h1        1 K53      0.186000
@<TRIPOS>BOND
     1    1    2 1   
     2    1    6 1   
     3    1   20 1   
     4    2    3 1   
     5    2   30 1   
     6    3    4 1   
     7    3   44 1   
     8    4    7 1   
     9    4   45 1   
    10    5    6 1   
    11    5   46 1   
    12    7    8 1   
    13    7    9 1   
    14    7   10 1   
    15   10   11 1   
    16   10   15 1   
    17   11   47 1   
    18   11   48 1   
    19   11   49 1   
    20   12   13 1   
    21   12   14 1   
    22   12   79 1   
    23   13   50 1   
    24   13   51 1   
    25   13   52 1   
    26   14   53 1   
    27   14   54 1   
    28   14   55 1   
    29   15   16 1   
    30   15   56 1   
    31   15   57 1   
    32   16   18 1   
    33   16   19 1   
    34   16   58 1   
    35   17   20 1   
    36   17   30 1   
    37   17   59 1   
    38   17   60 1   
    39   18   61 1   
    40   19   21 1   
    41   19   31 1   
    42   19   63 1   
    43   21   62 1   
    44   21   80 1   
    45   22   23 1   
    46   22   29 1   
    47   22   65 1   
    48   24   25 1   
    49   24   26 1   
    50   24   41 1   
    51   25   29 1   
    52   25   64 1   
    53   25   81 1   
    54   26   27 1   
    55   28   29 1   
    56   31   37 1   
    57   31   66 1   
    58   31   67 1   
    59   32   33 1   
    60   32   68 1   
    61   32   69 1   
    62   33   34 1   
    63   33   70 1   
    64   34   35 1   
    65   34   71 1   
    66   35   36 1   
    67   35   72 1   
    68   36   37 1   
    69   38   43 1   
    70   38   73 1   
    71   38   74 1   
    72   39   40 1   
    73   39   43 1   
    74   40   41 1   
    75   40   78 1   
    76   41   42 1   
    77   42   75 1   
    78   42   76 1   
    79   77   78 1   
@<TRIPOS>SUBSTRUCTURE
     1 K53         1 TEMP              0 ****  ****    0 ROOT
