@<TRIPOS>MOLECULE
K53
   79    83     1     0     0
SMALL
bcc


@<TRIPOS>ATOM
      1 C2          2.1360    4.5300   -0.9580 ca        1 K53      0.120100
      2 C3          1.2380    3.4860   -0.6080 ca        1 K53      0.029100
      3 C4          1.6380    2.3900    0.1250 ca        1 K53     -0.004000
      4 C5          2.9970    2.3450    0.5090 ca        1 K53     -0.387500
      5 C6          3.8700    3.3790    0.1550 ca        1 K53     -0.014000
      6 C7          3.4660    4.4990   -0.5860 ca        1 K53     -0.149000
      7 S8          3.5740    1.0600    1.4430 sy        1 K53      1.505200
      8 O9          4.8150    1.4490    1.9920 o         1 K53     -0.650800
      9 O10         2.5870    0.6630    2.3700 o         1 K53     -0.650800
     10 N11         3.7910   -0.1350    0.3450 n3        1 K53     -0.800500
     11 C12         4.7880   -0.0480   -0.6920 c3        1 K53      0.220800
     12 C13         6.0320   -0.9360   -0.5030 c3        1 K53     -0.081700
     13 C14         6.7020   -1.1310   -1.8490 c3        1 K53     -0.096600
     14 C15         7.0010   -0.3260    0.4840 c3        1 K53     -0.096600
     15 C16         2.9340   -1.2870    0.3120 c3        1 K53      0.189800
     16 C17         1.8600   -1.2600   -0.8010 c3        1 K53      0.097100
     17 C18         0.0810    5.0580   -1.7840 c3        1 K53      0.318200
     18 O18         2.3880   -1.6590   -2.0490 oh        1 K53     -0.587800
     19 C19         0.6400   -2.1250   -0.3710 c3        1 K53      0.078700
     20 O19         1.4590    5.4960   -1.6820 os        1 K53     -0.328900
     21 N20        -0.5150   -1.8680   -1.2060 n         1 K53     -0.531900
     22 C21        -1.2410   -0.7130   -1.0820 c         1 K53      0.647100
     23 O22        -0.9170    0.1990   -0.2910 o         1 K53     -0.629100
     24 N24        -4.4840    0.2160   -1.0150 n         1 K53     -0.388000
     25 C25        -3.2820    0.7180   -1.6650 c3        1 K53      0.056000
     26 C26        -4.5080   -1.1880   -1.0810 c         1 K53      0.818600
     27 O27        -5.3370   -2.0300   -0.7490 o         1 K53     -0.566500
     28 O28        -3.3660   -1.6630   -1.7390 os        1 K53     -0.407900
     29 C29        -2.4660   -0.5620   -1.9910 c3        1 K53      0.043100
     30 O29        -0.0260    3.7800   -1.1180 os        1 K53     -0.324900
     31 C32         1.0140   -3.6160   -0.3510 c3        1 K53     -0.051100
     32 C33        -0.9230   -5.1730   -0.6690 ca        1 K53     -0.125000
     33 C34        -1.9520   -5.9610   -0.1550 ca        1 K53     -0.121000
     34 C35        -2.1500   -6.0410    1.2230 ca        1 K53     -0.121000
     35 C36        -1.3150   -5.3320    2.0880 ca        1 K53     -0.121000
     36 C37        -0.2860   -4.5430    1.5760 ca        1 K53     -0.125000
     37 C38        -0.0850   -4.4580    0.1930 ca        1 K53     -0.098300
     38 C40        -6.6730    2.4270    1.8510 ca        1 K53     -0.098000
     39 C41        -5.2940    2.3490    1.9790 ca        1 K53     -0.148000
     40 C42        -4.5400    1.6000    1.0570 ca        1 K53      0.114100
     41 C43        -5.1810    0.9440   -0.0250 ca        1 K53     -0.027400
     42 C44        -6.5890    1.0270   -0.1170 ca        1 K53     -0.080000
     43 C45        -7.3190    1.7590    0.8090 ca        1 K53     -0.155000
     44 H4          0.9240    1.5960    0.4090 ha        1 K53      0.192000
     45 H6          4.9250    3.3220    0.4860 ha        1 K53      0.165000
     46 H7          4.1650    5.3030   -0.8470 ha        1 K53      0.163000
     47 H12         4.3040   -0.3180   -1.6780 h1        1 K53      0.056200
     48 H12A        5.1280    1.0280   -0.7550 h1        1 K53      0.056200
     49 H13         5.7140   -1.9450   -0.1180 hc        1 K53      0.047700
     50 H14         6.9800   -0.1460   -2.2950 hc        1 K53      0.040200
     51 H14A        7.6320   -1.7380   -1.7270 hc        1 K53      0.040200
     52 H14B        6.0210   -1.6610   -2.5570 hc        1 K53      0.040200
     53 H15         7.4230    0.6270    0.0820 hc        1 K53      0.040200
     54 H15A        6.4930   -0.0980    1.4540 hc        1 K53      0.040200
     55 H15B        7.8460   -1.0290    0.6780 hc        1 K53      0.040200
     56 H16         3.5660   -2.2110    0.1690 h1        1 K53      0.067700
     57 H16A        2.4140   -1.3740    1.3120 h1        1 K53      0.067700
     58 H17         1.5050   -0.2020   -0.9830 h1        1 K53      0.101700
     59 H18        -0.5670    5.7980   -1.2540 h2        1 K53      0.076700
     60 H18A       -0.1660    4.9200   -2.8660 h2        1 K53      0.076700
     61 HO18        2.7930   -2.5270   -1.9340 ho        1 K53      0.396000
     62 H19         0.3750   -1.8070    0.6860 h1        1 K53      0.082700
     63 HN20       -0.8810   -2.6220   -1.7410 hn        1 K53      0.333500
     64 H25        -3.5790    1.2340   -2.6190 h1        1 K53      0.094200
     65 H25A       -2.7030    1.4410   -1.0270 h1        1 K53      0.094200
     66 H29        -2.1730   -0.6180   -3.0710 h1        1 K53      0.105700
     67 H32         1.2810   -3.9580   -1.3870 hc        1 K53      0.058700
     68 H32A        1.9290   -3.7270    0.2910 hc        1 K53      0.058700
     69 H33        -0.7700   -5.1170   -1.7570 ha        1 K53      0.130500
     70 H34        -2.6110   -6.5160   -0.8390 ha        1 K53      0.136500
     71 H35        -2.9640   -6.6600    1.6280 ha        1 K53      0.137000
     72 H36        -1.4700   -5.3920    3.1750 ha        1 K53      0.136500
     73 H37         0.3680   -3.9810    2.2600 ha        1 K53      0.130500
     74 H40        -7.2580    3.0110    2.5780 ha        1 K53      0.138000
     75 H41        -4.7640    2.8600    2.7970 ha        1 K53      0.155000
     76 H44        -7.1120    0.4970   -0.9290 ha        1 K53      0.150000
     77 H45        -8.4140    1.8110    0.7180 ha        1 K53      0.139000
     78 HO46       -2.7780    0.8180    0.9390 ho        1 K53      0.437000
     79 O46        -3.1800    1.6420    1.2560 oh        1 K53     -0.497100
@<TRIPOS>BOND
     1    1    2 ar  
     2    1    6 ar  
     3    1   20 1   
     4    2    3 ar  
     5    2   30 1   
     6    3    4 ar  
     7    3   44 1   
     8    4    5 ar  
     9    4    7 1   
    10    5    6 ar  
    11    5   45 1   
    12    6   46 1   
    13    7    8 2   
    14    7    9 2   
    15    7   10 1   
    16   10   11 1   
    17   10   15 1   
    18   11   12 1   
    19   11   47 1   
    20   11   48 1   
    21   12   13 1   
    22   12   14 1   
    23   12   49 1   
    24   13   50 1   
    25   13   51 1   
    26   13   52 1   
    27   14   53 1   
    28   14   54 1   
    29   14   55 1   
    30   15   16 1   
    31   15   56 1   
    32   15   57 1   
    33   16   18 1   
    34   16   19 1   
    35   16   58 1   
    36   17   20 1   
    37   17   30 1   
    38   17   59 1   
    39   17   60 1   
    40   18   61 1   
    41   19   21 1   
    42   19   31 1   
    43   19   62 1   
    44   21   22 1   
    45   21   63 1   
    46   22   23 2   
    47   22   29 1   
    48   24   25 1   
    49   24   26 1   
    50   24   41 1   
    51   25   29 1   
    52   25   64 1   
    53   25   65 1   
    54   26   27 2   
    55   26   28 1   
    56   28   29 1   
    57   29   66 1   
    58   31   37 1   
    59   31   67 1   
    60   31   68 1   
    61   32   33 ar  
    62   32   37 ar  
    63   32   69 1   
    64   33   34 ar  
    65   33   70 1   
    66   34   35 ar  
    67   34   71 1   
    68   35   36 ar  
    69   35   72 1   
    70   36   37 ar  
    71   36   73 1   
    72   38   39 ar  
    73   38   43 ar  
    74   38   74 1   
    75   39   40 ar  
    76   39   75 1   
    77   40   41 ar  
    78   40   79 1   
    79   41   42 ar  
    80   42   43 ar  
    81   42   76 1   
    82   43   77 1   
    83   78   79 1   
@<TRIPOS>SUBSTRUCTURE
     1 K53         1 TEMP              0 ****  ****    0 ROOT
