@<TRIPOS>MOLECULE
K54
   80    84     1     0     0
SMALL
bcc


@<TRIPOS>ATOM
      1 C1         -1.3720   -5.7600   -0.9280 cc        1 K54      0.348100
      2 F1          5.7010   -1.0140    2.9110 f         1 K54     -0.233967
      3 N1         -2.6870   -5.8800   -0.9060 nd        1 K54     -0.529100
      4 S1         -0.7190   -4.2780   -0.3620 ss        1 K54      0.024900
      5 C2         -3.2440   -4.6980   -0.3930 ca        1 K54      0.131400
      6 F2          4.1500   -1.8020    1.6300 f         1 K54     -0.233967
      7 C3         -2.2760   -3.6940   -0.0400 ca        1 K54     -0.129100
      8 F3          4.2240    0.3220    2.0810 f         1 K54     -0.233967
      9 C4         -2.6940   -2.4720    0.4850 ca        1 K54      0.052000
     10 C5         -4.0500   -2.2260    0.6780 ca        1 K54     -0.380500
     11 C6         -4.9930   -3.2180    0.3280 ca        1 K54     -0.041000
     12 C7         -4.6160   -4.4370   -0.2000 ca        1 K54     -0.102000
     13 S8         -4.5980   -0.7900    1.3800 sy        1 K54      1.503200
     14 O9         -5.9250   -0.9910    1.8120 o         1 K54     -0.651800
     15 O10        -3.6820   -0.3770    2.3750 o         1 K54     -0.651800
     16 N11        -4.5570    0.2770    0.1410 n3        1 K54     -0.801500
     17 C12        -5.3950    0.1350   -1.0230 c3        1 K54      0.220800
     18 C13        -6.5830    1.1090   -1.1180 c3        1 K54     -0.081700
     19 C14        -7.0350    1.1900   -2.5620 c3        1 K54     -0.097100
     20 C15        -7.7290    0.6720   -0.2320 c3        1 K54     -0.097100
     21 C16        -3.6160    1.3620    0.1200 c3        1 K54      0.189800
     22 C17        -2.4180    1.1590   -0.8380 c3        1 K54      0.092100
     23 O18        -2.7350    1.5450   -2.1590 oh        1 K54     -0.587800
     24 C19        -1.1710    1.9050   -0.2850 c3        1 K54      0.082700
     25 N20         0.0390    1.5430   -0.9910 n         1 K54     -0.532900
     26 C21         0.5980    0.3010   -0.8790 c         1 K54      0.660100
     27 O22         0.0850   -0.6070   -0.1880 o         1 K54     -0.632100
     28 N24         4.0960    0.3990   -0.8500 n         1 K54     -0.371000
     29 C25         2.9900   -0.5460   -0.7050 c3        1 K54      0.051000
     30 C26         3.7410    1.3680   -1.8200 c         1 K54      0.816600
     31 O27         4.3300    2.3460   -2.2720 o         1 K54     -0.564500
     32 O28         2.4430    1.1590   -2.2820 os        1 K54     -0.404900
     33 C29         1.8810   -0.0120   -1.6510 c3        1 K54      0.053100
     34 C32        -1.4010    3.4260   -0.2960 c3        1 K54     -0.050100
     35 C33         0.7050    4.7770   -0.4340 ca        1 K54     -0.125000
     36 C34         1.7510    5.4700    0.1740 ca        1 K54     -0.122500
     37 C35         1.8190    5.5570    1.5640 ca        1 K54     -0.124000
     38 C36         0.8370    4.9500    2.3470 ca        1 K54     -0.122500
     39 C37        -0.2100    4.2550    1.7430 ca        1 K54     -0.125000
     40 C38        -0.2820    4.1650    0.3480 ca        1 K54     -0.096300
     41 C40         8.1500   -0.7410   -0.4060 ca        1 K54     -0.141000
     42 C41         7.2610   -0.9090    0.6490 ca        1 K54     -0.074000
     43 C42         5.9170   -0.5410    0.5260 ca        1 K54     -0.174300
     44 C43         5.4410   -0.0080   -0.6940 ca        1 K54      0.103600
     45 C44         6.3620    0.1630   -1.7550 ca        1 K54     -0.157000
     46 C45         7.6960   -0.1950   -1.6070 ca        1 K54     -0.081000
     47 H1         -0.7350   -6.5750   -1.2920 h5        1 K54      0.063800
     48 H4         -1.9390   -1.7060    0.7520 ha        1 K54      0.176000
     49 H6         -6.0650   -3.0100    0.5030 ha        1 K54      0.162000
     50 H7         -5.3630   -5.2010   -0.4640 ha        1 K54      0.159000
     51 H12        -4.7530    0.2700   -1.9440 h1        1 K54      0.057200
     52 H12A       -5.8000   -0.9200   -1.0320 h1        1 K54      0.057200
     53 H13        -6.2510    2.1350   -0.7940 hc        1 K54      0.046700
     54 H14        -7.3180    0.1780   -2.9420 hc        1 K54      0.040367
     55 H14A       -7.9240    1.8600   -2.6480 hc        1 K54      0.040367
     56 H14B       -6.2210    1.5950   -3.2090 hc        1 K54      0.040367
     57 H15        -8.1520   -0.2980   -0.5890 hc        1 K54      0.040367
     58 H15A       -7.3880    0.5350    0.8230 hc        1 K54      0.040367
     59 H15B       -8.5420    1.4370   -0.2500 hc        1 K54      0.040367
     60 H16        -4.1520    2.3080   -0.1850 h1        1 K54      0.067700
     61 H16A       -3.2200    1.5120    1.1680 h1        1 K54      0.067700
     62 H17        -2.1640    0.0610   -0.9330 h1        1 K54      0.102700
     63 HO18       -3.0330    2.4630   -2.1350 ho        1 K54      0.396000
     64 H19        -1.0450    1.5670    0.7910 h1        1 K54      0.085700
     65 HN20        0.4730    2.2330   -1.5620 hn        1 K54      0.338500
     66 H25         3.2900   -1.5910   -0.9800 h1        1 K54      0.095200
     67 H25A        2.6360   -0.5380    0.3650 h1        1 K54      0.095200
     68 H29         1.6310   -0.7340   -2.4730 h1        1 K54      0.107700
     69 H32        -1.5380    3.7840   -1.3520 hc        1 K54      0.058200
     70 H32A       -2.3560    3.6290    0.2590 hc        1 K54      0.058200
     71 H33         0.6560    4.7130   -1.5310 ha        1 K54      0.132500
     72 H34         2.5260    5.9440   -0.4470 ha        1 K54      0.137000
     73 H35         2.6460    6.1020    2.0420 ha        1 K54      0.135000
     74 H36         0.8890    5.0150    3.4440 ha        1 K54      0.137000
     75 H37        -0.9800    3.7730    2.3630 ha        1 K54      0.132500
     76 H40         9.2050   -1.0310   -0.2910 ha        1 K54      0.148000
     77 H41         7.6200   -1.3310    1.6040 ha        1 K54      0.159000
     78 H44         6.0270    0.6100   -2.7070 ha        1 K54      0.161000
     79 H45         8.3940   -0.0470   -2.4460 ha        1 K54      0.147000
     80 C46         5.0220   -0.7430    1.7460 c3        1 K54      0.691200
@<TRIPOS>BOND
     1    1    3 2   
     2    1    4 1   
     3    1   47 1   
     4    2   80 1   
     5    3    5 1   
     6    4    7 1   
     7    5    7 ar  
     8    5   12 ar  
     9    6   80 1   
    10    7    9 ar  
    11    8   80 1   
    12    9   10 ar  
    13    9   48 1   
    14   10   11 ar  
    15   10   13 1   
    16   11   12 ar  
    17   11   49 1   
    18   12   50 1   
    19   13   14 2   
    20   13   15 2   
    21   13   16 1   
    22   16   17 1   
    23   16   21 1   
    24   17   18 1   
    25   17   51 1   
    26   17   52 1   
    27   18   19 1   
    28   18   20 1   
    29   18   53 1   
    30   19   54 1   
    31   19   55 1   
    32   19   56 1   
    33   20   57 1   
    34   20   58 1   
    35   20   59 1   
    36   21   22 1   
    37   21   60 1   
    38   21   61 1   
    39   22   23 1   
    40   22   24 1   
    41   22   62 1   
    42   23   63 1   
    43   24   25 1   
    44   24   34 1   
    45   24   64 1   
    46   25   26 1   
    47   25   65 1   
    48   26   27 2   
    49   26   33 1   
    50   28   29 1   
    51   28   30 1   
    52   28   44 1   
    53   29   33 1   
    54   29   66 1   
    55   29   67 1   
    56   30   31 2   
    57   30   32 1   
    58   32   33 1   
    59   33   68 1   
    60   34   40 1   
    61   34   69 1   
    62   34   70 1   
    63   35   36 ar  
    64   35   40 ar  
    65   35   71 1   
    66   36   37 ar  
    67   36   72 1   
    68   37   38 ar  
    69   37   73 1   
    70   38   39 ar  
    71   38   74 1   
    72   39   40 ar  
    73   39   75 1   
    74   41   42 ar  
    75   41   46 ar  
    76   41   76 1   
    77   42   43 ar  
    78   42   77 1   
    79   43   44 ar  
    80   43   80 1   
    81   44   45 ar  
    82   45   46 ar  
    83   45   78 1   
    84   46   79 1   
@<TRIPOS>SUBSTRUCTURE
     1 K54         1 TEMP              0 ****  ****    0 ROOT
