@<TRIPOS>MOLECULE
K54
   80    78     1     0     0
SMALL
bcc


@<TRIPOS>ATOM
      1 C1          3.0620   -2.3510   -2.2720 c2        1 K54     -0.345000
      2 F1         -7.3360   -0.4380    3.4180 f         1 K54     -0.156000
      3 N1          2.9540   -2.1100   -0.9730 n2        1 K54     -0.088000
      4 S1          4.5490   -1.8900   -2.9840 ss        1 K54      0.501000
      5 C2          4.1420   -1.5150   -0.5180 c2        1 K54      0.025000
      6 F2         -6.0000   -0.9250    5.0600 f         1 K54     -0.156000
      7 C3          5.1060   -1.3330   -1.5120 c2        1 K54     -0.438000
      8 F3         -8.0970   -1.4650    5.1680 f         1 K54     -0.156000
      9 C4          0.1980   -1.1190    2.7970 c1        1 K54      0.374000
     10 C5          1.3360   -1.4780    3.3390 c2        1 K54     -1.217000
     11 C6          4.4590   -0.8310    1.9720 c1        1 K54     -0.162000
     12 C7          4.3130   -1.1470    0.8260 c1        1 K54     -0.140000
     13 S8          1.9690   -1.4750    4.8670 s6        1 K54      2.880000
     14 O9          3.2330   -0.8720    4.8110 o         1 K54     -0.918500
     15 O10         1.0300   -0.9870    5.7680 o         1 K54     -0.918500
     16 N11         3.2270   -2.5330    7.2820 n3        1 K54     -0.303000
     17 C12         4.3050   -1.7220    7.6550 c2        1 K54     -0.059000
     18 C13         4.6770   -1.4440    8.9270 c2        1 K54     -0.195000
     19 C14         5.7410   -0.4510    9.1980 c3        1 K54     -0.165500
     20 C15         4.0460   -2.0710   10.1100 c3        1 K54     -0.165500
     21 C16         3.4150   -3.3840    6.1320 c3        1 K54     -0.070000
     22 C17         2.2320   -3.2450    5.1360 c3        1 K54     -0.523000
     23 O18         2.6260   -3.7570    3.8760 oh        1 K54     -0.311000
     24 C19         0.9670   -3.9740    5.6690 c3        1 K54      0.031000
     25 N20        -0.1430   -3.7090    4.7750 n         1 K54     -0.372000
     26 C21        -1.4460   -3.6170    5.2290 c2        1 K54      0.389000
     27 O22        -1.7450   -3.5540    6.4370 o         1 K54     -0.343000
     28 N24        -4.3940   -3.2560    3.0220 n         1 K54     -0.234000
     29 C25        -3.7980   -3.0780    4.2860 c2        1 K54     -0.002000
     30 C26        -3.4130   -3.8010    2.1520 c2        1 K54      0.379000
     31 O27        -3.4240   -4.1260    0.9700 o         1 K54     -0.297000
     32 O28        -2.2410   -3.9990    2.8940 os        1 K54     -0.164000
     33 C29        -2.5060   -3.5360    4.2100 c2        1 K54     -0.126000
     34 C32         1.2230   -5.4860    5.8680 c3        1 K54     -0.126000
     35 C33        -0.3010   -6.2680    7.7030 c2        1 K54     -0.092000
     36 C34        -0.7940   -5.9160    8.9120 c2        1 K54     -0.184000
     37 C35         0.0030   -5.1490    9.8320 c2        1 K54      0.017000
     38 C36         1.2710   -4.7640    9.4980 c2        1 K54     -0.248000
     39 C37         1.8400   -5.0660    8.2400 c1        1 K54     -0.121000
     40 C38         1.0980   -5.9370    7.3200 c3        1 K54     -0.143000
     41 C40       -10.1240   -0.9980   -0.2830 c2        1 K54     -0.538000
     42 C41        -7.3430   -3.9190    3.9470 c1        1 K54      0.366000
     43 C42        -6.7150   -2.7810    3.6650 c2        1 K54     -0.479000
     44 C43        -5.6650   -2.7980    2.6170 c2        1 K54      0.050000
     45 C44        -5.9570   -2.4260    1.3550 c2        1 K54     -0.172000
     46 C45        -9.0430   -1.5440    0.1930 c1        1 K54      0.150000
     47 H1          2.2470   -2.8140   -2.8360 h5        1 K54      0.195000
     48 H4          6.0870   -0.8890   -1.3520 h4        1 K54      0.188000
     49 H6          2.0830   -1.8550    2.5780 h4        1 K54      0.288000
     50 H7          4.5770   -0.5550    2.9980 ha        1 K54      0.261000
     51 H12         5.6210   -0.1390    4.9480 ha        1 K54      0.005250
     52 H12A        5.1970    0.3740    5.0790 ha        1 K54      0.005250
     53 H13         4.8030   -1.2250    6.7950 h4        1 K54      0.156000
     54 H14         6.1520   -0.0140    8.2550 hc        1 K54      0.074000
     55 H14A        6.5810   -0.9310    9.7600 hc        1 K54      0.074000
     56 H14B        5.3370    0.3840    9.8250 hc        1 K54      0.074000
     57 H15         4.6010   -1.8110   11.0440 hc        1 K54      0.074000
     58 H15A        4.0310   -3.1860   10.0120 hc        1 K54      0.074000
     59 H15B        2.9890   -1.7200   10.2230 hc        1 K54      0.074000
     60 H16         2.8010   -3.0330    8.0460 hn        1 K54      0.217000
     61 H16A        4.3480   -3.1010    5.5640 h1        1 K54      0.110000
     62 H17         3.5050   -4.4630    6.4470 h1        1 K54      0.110000
     63 HO18        2.9780   -4.6460    4.0050 ho        1 K54      0.211000
     64 H19         0.0090   -3.9110    3.8100 hn        1 K54      0.241000
     65 HN20        0.7100   -3.5070    6.6710 h1        1 K54      0.161000
     66 H25         0.3440   -1.8970    0.5890 ha        1 K54      0.005250
     67 H25A       -4.3400   -2.6330    5.1280 h4        1 K54      0.218000
     68 H29         0.2910   -1.2340    0.4510 ha        1 K54      0.005250
     69 H32         0.5110   -6.0930    5.2470 hc        1 K54      0.087500
     70 H32A        2.2550   -5.7450    5.5160 hc        1 K54      0.087500
     71 H33         1.6780   -6.9220    7.4110 hc        1 K54      0.165000
     72 H34        -0.9050   -6.8280    6.9750 ha        1 K54      0.134000
     73 H35        -1.8210   -6.1760    9.2110 ha        1 K54      0.143000
     74 H36        -0.4530   -4.8730   10.7970 ha        1 K54      0.136000
     75 H37         1.8770   -4.1580   10.1930 ha        1 K54      0.149000
     76 H40       -10.5270   -0.0350    0.0730 ha        1 K54      0.197000
     77 H41       -10.7360   -1.4450   -1.0850 ha        1 K54      0.197000
     78 H44        -6.9790   -2.1150    1.0750 ha        1 K54      0.169500
     79 H45        -5.2080   -2.4250    0.5490 ha        1 K54      0.169500
     80 C46        -7.0260   -1.4350    4.3060 c3        1 K54      0.506000
@<TRIPOS>BOND
     1    1    3 1   
     2    1    4 1   
     3    1   47 1   
     4    2   80 1   
     5    3    5 1   
     6    4    7 1   
     7    5    7 1   
     8    5   12 1   
     9    6   80 1   
    10    7   48 1   
    11    8   80 1   
    12    9   10 1   
    13   10   13 1   
    14   10   49 1   
    15   11   12 1   
    16   11   50 1   
    17   13   14 1   
    18   13   15 1   
    19   13   22 1   
    20   16   17 1   
    21   16   21 1   
    22   16   60 1   
    23   17   18 1   
    24   17   53 1   
    25   18   19 1   
    26   18   20 1   
    27   19   54 1   
    28   19   55 1   
    29   19   56 1   
    30   20   57 1   
    31   20   58 1   
    32   20   59 1   
    33   21   22 1   
    34   21   61 1   
    35   21   62 1   
    36   22   23 1   
    37   22   24 1   
    38   23   63 1   
    39   24   25 1   
    40   24   34 1   
    41   24   65 1   
    42   25   26 1   
    43   25   64 1   
    44   26   27 1   
    45   26   33 1   
    46   28   29 1   
    47   28   30 1   
    48   28   44 1   
    49   29   33 1   
    50   29   67 1   
    51   30   31 1   
    52   30   32 1   
    53   32   33 1   
    54   34   40 1   
    55   34   69 1   
    56   34   70 1   
    57   35   36 1   
    58   35   40 1   
    59   35   72 1   
    60   36   37 1   
    61   36   73 1   
    62   37   38 1   
    63   37   74 1   
    64   38   39 1   
    65   38   75 1   
    66   39   40 1   
    67   40   71 1   
    68   41   46 1   
    69   41   76 1   
    70   41   77 1   
    71   42   43 1   
    72   43   44 1   
    73   43   80 1   
    74   44   45 1   
    75   45   78 1   
    76   45   79 1   
    77   51   52 1   
    78   66   68 1   
@<TRIPOS>SUBSTRUCTURE
     1 K54         1 TEMP              0 ****  ****    0 ROOT
