@<TRIPOS>MOLECULE
K54
   82    81     1     0     0
SMALL
bcc


@<TRIPOS>ATOM
      1 C1          2.5240    0.2010   -1.3020 c2        1 K54     -0.377000
      2 F1         -5.6920   -2.2770    6.5550 f         1 K54     -0.166000
      3 N1          2.6790    0.4990   -0.0040 n2        1 K54     -0.291000
      4 S1          3.5360    1.0310   -2.3560 ss        1 K54      0.726000
      5 C2          3.6810    1.4620    0.1250 c2        1 K54      0.053000
      6 F2         -3.8670   -1.8770    5.4620 f         1 K54     -0.166000
      7 C3          4.2470    1.8440   -1.0990 c2        1 K54     -0.461000
      8 F3         -4.3150   -3.8890    6.1100 f         1 K54     -0.166000
      9 C4          2.2300   -1.5930    3.5900 c1        1 K54      0.035000
     10 C5          2.2400   -1.3030    2.3180 c2        1 K54     -0.868000
     11 C6          4.4060    2.5120    2.3910 c1        1 K54     -0.139000
     12 C7          4.0640    2.0040    1.3630 c1        1 K54     -0.134000
     13 S8          0.9980   -0.4420    1.6550 s6        1 K54      2.942000
     14 O9          0.4390   -1.0490    0.5690 o         1 K54     -0.848500
     15 O10         0.7690    0.8060    2.1190 o         1 K54     -0.848500
     16 N11         3.9620   -1.1230    6.1150 n3        1 K54     -0.324000
     17 C12         4.5340   -2.2340    6.8350 c3        1 K54     -0.059000
     18 C13         5.9010   -1.8560    7.4290 c3        1 K54     -0.261000
     19 C14         5.8080   -3.0320   10.6520 c3        1 K54     -0.128000
     20 C15         6.4950   -2.9090    8.2500 c2        1 K54      0.167000
     21 C16         2.5300   -1.0770    5.9940 c3        1 K54     -0.016000
     22 C17         1.9090   -1.8260    4.8350 c2        1 K54     -0.121000
     23 O18        -0.2960   -6.0970    3.9340 oh        1 K54     -0.447000
     24 C19         0.7730   -2.7590    5.1940 c3        1 K54      0.060000
     25 N20        -0.1220   -3.1580    4.1090 n3        1 K54     -0.247000
     26 C21        -0.5920   -2.4560    3.0750 c2        1 K54      0.369000
     27 O22        -0.2220   -1.2300    2.8280 os        1 K54     -0.647000
     28 N24        -3.6100   -3.8760    3.1070 n         1 K54     -0.272000
     29 C25        -3.0680   -2.6480    2.5290 c3        1 K54     -0.060000
     30 C26        -2.7690   -4.9490    2.7980 c2        1 K54      0.385000
     31 O27        -2.7760   -6.1560    3.0270 o         1 K54     -0.292000
     32 O28        -1.5920   -4.4810    2.1740 os        1 K54     -0.259000
     33 C29        -1.6250   -3.0490    2.1070 c3        1 K54      0.008000
     34 C32         1.3390   -4.0170    5.9100 c3        1 K54     -0.034000
     35 C33        -1.3360   -7.5410    6.7680 c2        1 K54     -0.191000
     36 C34        -2.1540   -7.2760    7.7900 c2        1 K54     -0.149000
     37 C35        -1.9150   -6.3310    8.8570 c2        1 K54     -0.040000
     38 C36        -1.0800   -5.2750    8.8710 c2        1 K54     -0.124000
     39 C37        -0.2500   -4.8540    7.8270 c1        1 K54     -0.010000
     40 C38         0.4710   -4.4490    6.9560 c1        1 K54     -0.277000
     41 C40        -8.9620   -1.2460    3.4120 c2        1 K54     -0.050000
     42 C41        -6.7470   -2.4280    3.9410 c1        1 K54     -0.033000
     43 C42        -5.6200   -3.0380    4.2260 c2        1 K54     -0.114000
     44 C43        -5.0080   -4.0290    3.3220 c2        1 K54      0.037000
     45 C44        -5.7350   -5.0310    2.7900 c2        1 K54     -0.168000
     46 C45        -7.8340   -1.8440    3.6760 c1        1 K54     -0.105000
     47 H1          1.7660   -0.5310   -1.6150 h5        1 K54      0.217000
     48 H4          5.0400    2.5870   -1.2020 h4        1 K54      0.212000
     49 H6          3.0280   -1.7180    1.6550 h4        1 K54      0.233000
     50 H7          4.7080    2.9850    3.2930 ha        1 K54      0.236000
     51 H12         4.6730   -3.1520    6.1900 h1        1 K54      0.087500
     52 H12A        3.8450   -2.5160    7.6830 h1        1 K54      0.087500
     53 H13         4.7540   -3.1110   11.0020 hc        1 K54      0.106750
     54 H14         5.8320   -0.8730    7.9810 hc        1 K54      0.190500
     55 H14A        6.3770   -3.9750   10.7900 hc        1 K54      0.106750
     56 H14B        6.3320   -2.1440   11.0630 hc        1 K54      0.106750
     57 H15         5.6920   -2.8440    9.4740 hc        1 K54      0.106750
     58 H15A        6.2470   -3.9710    8.0300 ha        1 K54      0.169000
     59 H15B        7.4980   -2.7160    8.6930 ha        1 K54      0.169000
     60 H16         6.6480   -1.6640    6.5900 hc        1 K54      0.190500
     61 H16A        2.2580    0.0170    5.8650 h1        1 K54      0.134000
     62 H17         2.0590   -1.4340    6.9550 h1        1 K54      0.134000
     63 HO18       -0.4610   -6.3440    3.0160 ho        1 K54      0.228000
     64 H19        -0.9530   -6.6050    4.4260 ho        1 K54      0.228000
     65 HN20        0.1260   -2.1780    5.9310 h1        1 K54      0.156000
     66 H25        -1.3540   -2.7420    1.0590 h1        1 K54      0.196000
     67 H25A       -3.0750   -1.8330    3.3030 h1        1 K54      0.144000
     68 H29        -3.6530   -2.3100    1.6300 h1        1 K54      0.144000
     69 H32         1.4930   -4.8620    5.1740 hc        1 K54      0.118000
     70 H32A        2.3470   -3.7510    6.3330 hc        1 K54      0.118000
     71 H33        -0.3660   -7.0440    6.6290 ha        1 K54      0.119000
     72 H34        -1.5880   -8.2960    6.0100 ha        1 K54      0.119000
     73 H35        -3.1120   -7.8250    7.8810 ha        1 K54      0.145000
     74 H36        -2.5230   -6.5150    9.7670 ha        1 K54      0.147000
     75 H37        -1.0270   -4.6400    9.7780 ha        1 K54      0.149000
     76 H40        -9.4330   -0.5490    4.1250 ha        1 K54      0.163000
     77 H41        -9.5030   -1.4080    2.4650 ha        1 K54      0.163000
     78 H44        -6.8000   -5.1450    3.0380 ha        1 K54      0.152500
     79 H45        -5.3130   -5.7940    2.1210 ha        1 K54      0.152500
     80 H111        4.4300   -0.9550    5.2460 hn        1 K54      0.191000
     81 H202       -0.4670   -4.1150    4.2020 hn        1 K54      0.315000
     82 C46        -4.9040   -2.7800    5.5540 c3        1 K54      0.476000
@<TRIPOS>BOND
     1    1    3 1   
     2    1    4 1   
     3    1   47 1   
     4    2   82 1   
     5    3    5 1   
     6    4    7 1   
     7    5    7 1   
     8    5   12 1   
     9    6   82 1   
    10    7   48 1   
    11    8   82 1   
    12    9   10 1   
    13    9   22 1   
    14   10   13 1   
    15   10   49 1   
    16   11   12 1   
    17   11   50 1   
    18   13   14 1   
    19   13   15 1   
    20   13   27 1   
    21   16   17 1   
    22   16   21 1   
    23   16   80 1   
    24   17   18 1   
    25   17   51 1   
    26   17   52 1   
    27   18   20 1   
    28   18   54 1   
    29   18   60 1   
    30   19   53 1   
    31   19   55 1   
    32   19   56 1   
    33   19   57 1   
    34   20   58 1   
    35   20   59 1   
    36   21   22 1   
    37   21   61 1   
    38   21   62 1   
    39   22   24 1   
    40   23   63 1   
    41   23   64 1   
    42   24   25 1   
    43   24   34 1   
    44   24   65 1   
    45   25   26 1   
    46   25   81 1   
    47   26   27 1   
    48   26   33 1   
    49   28   29 1   
    50   28   30 1   
    51   28   44 1   
    52   29   33 1   
    53   29   67 1   
    54   29   68 1   
    55   30   31 1   
    56   30   32 1   
    57   32   33 1   
    58   33   66 1   
    59   34   40 1   
    60   34   69 1   
    61   34   70 1   
    62   35   36 1   
    63   35   71 1   
    64   35   72 1   
    65   36   37 1   
    66   36   73 1   
    67   37   38 1   
    68   37   74 1   
    69   38   39 1   
    70   38   75 1   
    71   39   40 1   
    72   41   46 1   
    73   41   76 1   
    74   41   77 1   
    75   42   43 1   
    76   42   46 1   
    77   43   44 1   
    78   43   82 1   
    79   44   45 1   
    80   45   78 1   
    81   45   79 1   
@<TRIPOS>SUBSTRUCTURE
     1 K54         1 TEMP              0 ****  ****    0 ROOT
