@<TRIPOS>MOLECULE
K54
   80    73     1     0     0
SMALL
bcc


@<TRIPOS>ATOM
      1 C1          7.5660    0.1670   -6.4600 c1        1 K54     -0.277000
      2 F1         -5.9200   -4.4090   -0.8830 f         1 K54     -0.163000
      3 N1          8.3180    0.1670   -5.2520 n2        1 K54     -0.098000
      4 S1          6.0810    0.2850   -6.0920 ss        1 K54      0.446000
      5 C2          7.2940    0.2900   -4.0200 c1        1 K54     -0.008000
      6 F2         -7.8000   -4.6650    0.2040 f         1 K54     -0.163000
      7 C3          5.9860    0.3580   -4.5380 c1        1 K54     -0.355000
      8 F3         -6.1860   -3.4570    1.0920 f         1 K54     -0.163000
      9 C4          4.8970    0.4680   -3.6700 c1        1 K54      0.038000
     10 C5          5.1020    0.5100   -2.3140 c1        1 K54     -0.807000
     11 C6          6.4170    0.4420   -1.7900 c1        1 K54     -0.107250
     12 C7          7.4980    0.3330   -2.6450 c1        1 K54     -0.107250
     13 S8          3.5050    0.9860   -1.6540 s4        1 K54      2.065800
     14 O9          3.1730    2.3080   -2.0280 o         1 K54     -0.535900
     15 O10         2.4360    0.2390   -2.2810 o         1 K54     -0.535900
     16 N11         3.4780    0.7970    0.0080 n2        1 K54     -0.822000
     17 C12         4.7010    1.0080    0.8000 c3        1 K54     -0.002000
     18 C13         4.7150    2.4540    1.3660 c3        1 K54     -0.129000
     19 C14         5.4330    2.4690    2.7540 c3        1 K54     -0.211500
     20 C15         5.4570    3.3500    0.4240 c3        1 K54     -0.211500
     21 C16         2.2190    0.3250    0.6830 c3        1 K54     -0.040000
     22 C17         1.0840    1.2630    0.3430 c3        1 K54     -0.001000
     23 O18         0.9450    1.3460   -1.0640 oh        1 K54     -0.321000
     24 C19        -0.2090    0.7450    0.9480 c3        1 K54     -0.008000
     25 N20        -0.7970   -0.2110    0.0720 n         1 K54     -0.357000
     26 C21        -2.2530   -0.2530   -0.0900 c2        1 K54      0.284000
     27 O22        -2.8800    0.7880   -0.2680 o         1 K54     -0.354000
     28 N24        -5.2690   -1.3780   -0.4160 n         1 K54     -0.273000
     29 C25        -4.0760   -1.4650   -1.1600 c3        1 K54     -0.069000
     30 C26        -4.9360   -1.3830    0.9230 c2        1 K54      0.380000
     31 O27        -5.6850   -1.1380    1.8430 o         1 K54     -0.285000
     32 O28        -3.6150   -1.8260    1.0400 os        1 K54     -0.250000
     33 C29        -2.9580   -1.5690   -0.1740 c3        1 K54     -0.011000
     34 C32         0.0780    0.0920    2.2860 c3        1 K54     -0.136000
     35 C33        -1.5270   -1.5260    3.2600 c1        1 K54     -0.129000
     36 C34        -2.4430   -1.8950    4.2370 c1        1 K54     -0.107250
     37 C35        -3.0880   -0.9280    4.9780 c1        1 K54     -0.107250
     38 C36        -2.8230    0.4180    4.7480 c1        1 K54     -0.107250
     39 C37        -1.9030    0.7900    3.7660 c1        1 K54     -0.107250
     40 C38        -1.2600   -0.1710    3.0290 c1        1 K54     -0.087000
     41 C40        -9.2260   -1.3640   -1.8260 c1        1 K54     -0.107250
     42 C41        -8.7080   -2.5030   -1.2150 c1        1 K54     -0.083000
     43 C42        -7.3940   -2.5170   -0.7770 c1        1 K54     -0.136000
     44 C43        -6.5930   -1.3950   -0.9480 c1        1 K54      0.086000
     45 C44        -7.1090   -0.2630   -1.5560 c1        1 K54     -0.140000
     46 C45        -8.4310   -0.2490   -1.9960 c1        1 K54     -0.107250
     47 C46        -6.8060   -3.8140   -0.0680 c3        1 K54      0.476000
     48 H1          7.9330    0.0630   -7.3780 DU        1 K54      0.197000
     49 H4          3.9820    0.5160   -4.0320 ha        1 K54      0.155000
     50 H6          6.5600    0.4730   -0.8260 ha        1 K54      0.144750
     51 H7          8.4280    0.2830   -2.2730 ha        1 K54      0.144750
     52 H12         4.7190    0.3770    1.5330 h1        1 K54      0.085500
     53 H12A        5.4970    0.8730    0.2250 h1        1 K54      0.085500
     54 H13         3.8230    2.7650    1.4650 hc        1 K54      0.111000
     55 H14         4.8490    2.0330    3.4430 hc        1 K54      0.076000
     56 H14A        5.6170    3.4200    3.0230 hc        1 K54      0.076000
     57 H14B        6.2950    1.9710    2.6850 hc        1 K54      0.076000
     58 H15         4.8930    3.5600   -0.3420 hc        1 K54      0.076000
     59 H15A        6.2600    2.9030    0.1200 hc        1 K54      0.076000
     60 H15B        5.6980    4.1660    0.8810 hc        1 K54      0.076000
     61 H16         2.3540    0.3140    1.6560 h1        1 K54      0.096500
     62 H16A        2.0020   -0.5710    0.3740 h1        1 K54      0.096500
     63 H17         1.2750    2.1270    0.6930 h1        1 K54      0.122000
     64 HO18        0.7490    2.1970   -1.2980 ho        1 K54      0.236000
     65 H19        -0.8480    1.5150    1.0810 h1        1 K54      0.133000
     66 HN20       -0.2820   -0.8610   -0.2980 hn        1 K54      0.241000
     67 H25        -3.9670   -0.6080   -1.6120 h1        1 K54      0.137000
     68 H25A       -4.1070   -2.3240   -1.6440 h1        1 K54      0.137000
     69 H29        -2.2020   -2.1710   -0.4120 h1        1 K54      0.152000
     70 H32         0.5590   -0.7860    2.1360 hc        1 K54      0.099000
     71 H32A        0.6520    0.7010    2.8380 hc        1 K54      0.099000
     72 H33        -1.0760   -2.2010    2.7420 ha        1 K54      0.131000
     73 H34        -2.6280   -2.8350    4.3990 ha        1 K54      0.144750
     74 H35        -3.7450   -1.1950    5.6770 ha        1 K54      0.144750
     75 H36        -3.2720    1.0920    5.2640 ha        1 K54      0.144750
     76 H37        -1.7140    1.7490    3.6030 ha        1 K54      0.144750
     77 H40       -10.1570   -1.3550   -2.1360 ha        1 K54      0.144750
     78 H41        -9.2760   -3.2990   -1.0930 ha        1 K54      0.160000
     79 H44        -6.5540    0.5160   -1.6740 ha        1 K54      0.153000
     80 H45        -8.8050    0.5730   -2.4380 ha        1 K54      0.144750
@<TRIPOS>BOND
     1    1    3 1   
     2    1    4 1   
     3    2   47 1   
     4    3    5 1   
     5    4    7 1   
     6    5    7 1   
     7    6   47 1   
     8    8   47 1   
     9    9   10 1   
    10    9   49 1   
    11   10   13 1   
    12   11   12 1   
    13   11   50 1   
    14   12   51 1   
    15   13   14 1   
    16   13   15 1   
    17   16   17 1   
    18   16   21 1   
    19   17   18 1   
    20   17   52 1   
    21   17   53 1   
    22   18   19 1   
    23   18   20 1   
    24   18   54 1   
    25   19   55 1   
    26   19   56 1   
    27   19   57 1   
    28   20   58 1   
    29   20   59 1   
    30   20   60 1   
    31   21   22 1   
    32   21   61 1   
    33   21   62 1   
    34   22   23 1   
    35   22   24 1   
    36   22   63 1   
    37   23   64 1   
    38   24   25 1   
    39   24   34 1   
    40   24   65 1   
    41   25   26 1   
    42   25   66 1   
    43   26   27 1   
    44   26   33 1   
    45   28   29 1   
    46   28   30 1   
    47   28   44 1   
    48   29   33 1   
    49   29   67 1   
    50   29   68 1   
    51   30   31 1   
    52   30   32 1   
    53   32   33 1   
    54   33   69 1   
    55   34   40 1   
    56   34   70 1   
    57   34   71 1   
    58   35   40 1   
    59   35   72 1   
    60   36   37 1   
    61   36   73 1   
    62   37   74 1   
    63   38   39 1   
    64   38   75 1   
    65   39   76 1   
    66   41   46 1   
    67   41   77 1   
    68   42   43 1   
    69   42   78 1   
    70   43   47 1   
    71   44   45 1   
    72   45   79 1   
    73   46   80 1   
@<TRIPOS>SUBSTRUCTURE
     1 K54         1 TEMP              0 ****  ****    0 ROOT
