@<TRIPOS>MOLECULE
K55
   60    61     1     0     0
SMALL
bcc


@<TRIPOS>ATOM
      1 O25         1.7800   -1.4200    4.4640 oh        1 K55     -0.611100
      2 O26         0.7750   -2.6050    2.8930 o         1 K55     -0.574000
      3 C1          1.4410   -1.5980    3.1580 c         1 K55      0.649100
      4 C2          1.9700   -0.5350    2.2320 c3        1 K55     -0.101700
      5 C3          1.5390   -0.7950    0.7960 c3        1 K55     -0.074400
      6 C4          2.2780   -1.9550    0.1810 c3        1 K55     -0.100100
      7 C5          1.5590    0.8590    2.7030 c3        1 K55     -0.023100
      8 C6          0.0890    1.0460    2.8440 ca        1 K55     -0.127300
      9 C7         -0.5540    0.5970    4.0040 ca        1 K55     -0.078000
     10 C8         -1.9300    0.7340    4.1680 ca        1 K55     -0.152300
     11 C9         -2.6790    1.3580    3.1490 ca        1 K55      0.143100
     12 C10        -2.0430    1.8360    1.9960 ca        1 K55     -0.208000
     13 C11        -0.6660    1.6720    1.8490 ca        1 K55     -0.079000
     14 O33        -4.0390    1.4340    3.3770 os        1 K55     -0.338900
     15 C21        -4.7960    2.1820    2.4150 c3        1 K55      0.129400
     16 C22        -6.2210    2.2040    2.9380 c3        1 K55     -0.086400
     17 C23        -7.1170    2.9660    1.9860 c3        1 K55     -0.078400
     18 C24        -8.5390    3.0020    2.4850 c3        1 K55     -0.093100
     19 C12        -2.5770    0.1960    5.4130 c3        1 K55      0.147300
     20 N27        -2.9240   -1.2000    5.3410 n         1 K55     -0.539900
     21 C13        -1.9810   -2.1970    5.4670 c         1 K55      0.682700
     22 O28        -0.8060   -1.9590    5.8240 o         1 K55     -0.626100
     23 C14        -2.4130   -3.5980    5.1710 ca        1 K55     -0.155600
     24 C15        -3.6270   -4.1450    5.6340 ca        1 K55      0.147900
     25 C16        -3.9560   -5.4830    5.3380 ca        1 K55     -0.134000
     26 C17        -3.0770   -6.2480    4.5770 ca        1 K55     -0.127300
     27 C18        -1.8750   -5.7130    4.1120 ca        1 K55     -0.104000
     28 C19        -1.5460   -4.3930    4.4130 ca        1 K55     -0.062000
     29 C20        -3.4450   -7.6900    4.2360 c3        1 K55      0.686200
     30 F29        -4.4940   -3.4110    6.3700 f         1 K55     -0.127900
     31 F30        -4.1530   -7.8220    3.0650 f         1 K55     -0.233300
     32 F31        -2.3700   -8.5300    4.0760 f         1 K55     -0.233300
     33 F32        -4.2280   -8.3160    5.1740 f         1 K55     -0.233300
     34 H2          3.0970   -0.5930    2.2910 hc        1 K55      0.081700
     35 H3          0.4350   -0.9960    0.7740 hc        1 K55      0.053200
     36 H3A         1.7260    0.1330    0.1930 hc        1 K55      0.053200
     37 H4          2.0850   -2.8900    0.7640 hc        1 K55      0.040367
     38 H4A         3.3780   -1.7650    0.1650 hc        1 K55      0.040367
     39 H4B         1.9330   -2.1160   -0.8690 hc        1 K55      0.040367
     40 H5          2.0460    1.0440    3.7000 hc        1 K55      0.061700
     41 H5A         1.9710    1.6090    1.9760 hc        1 K55      0.061700
     42 H7          0.0330    0.1000    4.8000 ha        1 K55      0.167000
     43 H10        -2.6140    2.3320    1.2000 ha        1 K55      0.138000
     44 H11        -0.1730    2.0370    0.9350 ha        1 K55      0.132000
     45 H21        -4.3790    3.2200    2.3300 h1        1 K55      0.041700
     46 H21A       -4.7390    1.6690    1.4190 h1        1 K55      0.041700
     47 H22        -6.5910    1.1530    3.0590 hc        1 K55      0.057200
     48 H22A       -6.2390    2.6820    3.9520 hc        1 K55      0.057200
     49 H23        -6.7330    4.0140    1.8660 hc        1 K55      0.040700
     50 H23A       -7.0850    2.4840    0.9730 hc        1 K55      0.040700
     51 H24        -8.9470    1.9680    2.5870 hc        1 K55      0.036367
     52 H24A       -9.1840    3.5680    1.7710 hc        1 K55      0.036367
     53 H24B       -8.5940    3.5010    3.4830 hc        1 K55      0.036367
     54 H12        -1.8670    0.3370    6.2800 h1        1 K55      0.074200
     55 H12A       -3.5250    0.7710    5.6200 h1        1 K55      0.074200
     56 HN27        1.3090   -2.0670    5.0210 ho        1 K55      0.465000
     57 H16        -4.9000   -5.9100    5.7130 ha        1 K55      0.170000
     58 H18        -1.1870   -6.3330    3.5150 ha        1 K55      0.164000
     59 H19        -0.5950   -3.9570    4.0520 ha        1 K55      0.193000
     60 H272       -3.7980   -1.4280    4.9260 hn        1 K55      0.318500
@<TRIPOS>BOND
     1    1    3 1   
     2    1   56 1   
     3    2    3 2   
     4    3    4 1   
     5    4    5 1   
     6    4    7 1   
     7    4   34 1   
     8    5    6 1   
     9    5   35 1   
    10    5   36 1   
    11    6   37 1   
    12    6   38 1   
    13    6   39 1   
    14    7    8 1   
    15    7   40 1   
    16    7   41 1   
    17    8    9 ar  
    18    8   13 ar  
    19    9   10 ar  
    20    9   42 1   
    21   10   11 ar  
    22   10   19 1   
    23   11   12 ar  
    24   11   14 1   
    25   12   13 ar  
    26   12   43 1   
    27   13   44 1   
    28   14   15 1   
    29   15   16 1   
    30   15   45 1   
    31   15   46 1   
    32   16   17 1   
    33   16   47 1   
    34   16   48 1   
    35   17   18 1   
    36   17   49 1   
    37   17   50 1   
    38   18   51 1   
    39   18   52 1   
    40   18   53 1   
    41   19   20 1   
    42   19   54 1   
    43   19   55 1   
    44   20   21 1   
    45   20   60 1   
    46   21   22 2   
    47   21   23 1   
    48   23   24 ar  
    49   23   28 ar  
    50   24   25 ar  
    51   24   30 1   
    52   25   26 ar  
    53   25   57 1   
    54   26   27 ar  
    55   26   29 1   
    56   27   28 ar  
    57   27   58 1   
    58   28   59 1   
    59   29   31 1   
    60   29   32 1   
    61   29   33 1   
@<TRIPOS>SUBSTRUCTURE
     1 K55         1 TEMP              0 ****  ****    0 ROOT
