@<TRIPOS>MOLECULE
K55
   59    60     1     0     0
SMALL
bcc


@<TRIPOS>ATOM
      1 O25         4.8820   -2.7750   -2.4460 o         1 K55     -0.845300
      2 O26         6.3500   -1.4320   -1.4400 o         1 K55     -0.845300
      3 C1          5.3780   -2.2450   -1.4120 c         1 K55      0.910600
      4 C2          4.7510   -2.6160   -0.0430 c3        1 K55     -0.183700
      5 C3          5.4300   -3.8650    0.4970 c3        1 K55     -0.052400
      6 C4          5.0440   -5.0890   -0.2930 c3        1 K55     -0.096100
      7 C5          4.8880   -1.4780    0.9590 c3        1 K55     -0.027100
      8 C6          3.9330   -0.3640    0.7060 ca        1 K55     -0.070300
      9 C7          2.8640   -0.1190    1.5710 ca        1 K55     -0.102000
     10 C8          1.9760    0.9360    1.3420 ca        1 K55     -0.171300
     11 C9          2.1660    1.7450    0.2060 ca        1 K55      0.097100
     12 C10         3.2350    1.5110   -0.6680 ca        1 K55     -0.201000
     13 C11         4.1110    0.4610   -0.4150 ca        1 K55     -0.071000
     14 O33         1.2140    2.7380    0.0090 os        1 K55     -0.358900
     15 C21         1.5950    3.7770   -0.8980 c3        1 K55      0.132400
     16 C22         0.5640    4.8810   -0.7310 c3        1 K55     -0.087400
     17 C23         0.8570    6.0220   -1.6800 c3        1 K55     -0.079400
     18 C24        -0.1530    7.1310   -1.5320 c3        1 K55     -0.091100
     19 C12         0.8410    1.1980    2.2850 c3        1 K55      0.144300
     20 N27        -0.4590    0.9790    1.6920 n         1 K55     -0.532900
     21 C13        -1.2760   -0.0580    2.0890 c         1 K55      0.660700
     22 O28        -1.1330   -0.6650    3.1680 o         1 K55     -0.589100
     23 C14        -2.4110   -0.3870    1.1660 ca        1 K55     -0.140600
     24 C15        -3.7500   -0.1620    1.5470 ca        1 K55      0.162900
     25 C16        -4.7980   -0.5230    0.6770 ca        1 K55     -0.137000
     26 C17        -4.4950   -1.1010   -0.5530 ca        1 K55     -0.137300
     27 C18        -3.1710   -1.3260   -0.9360 ca        1 K55     -0.101000
     28 C19        -2.1360   -0.9650   -0.0750 ca        1 K55     -0.082000
     29 C20        -5.6300   -1.4740   -1.5000 c3        1 K55      0.687200
     30 F29        -4.0510    0.4040    2.7370 f         1 K55     -0.120900
     31 F30        -6.0080   -0.4610   -2.3500 f         1 K55     -0.237633
     32 F31        -5.3580   -2.5280   -2.3370 f         1 K55     -0.237633
     33 F32        -6.8010   -1.8350   -0.8760 f         1 K55     -0.237633
     34 H2          3.6630   -2.8360   -0.2130 hc        1 K55      0.041700
     35 H3          6.5420   -3.7180    0.4500 hc        1 K55      0.019200
     36 H3A         5.1580   -4.0160    1.5760 hc        1 K55      0.019200
     37 H4          3.9800   -5.3670   -0.0940 hc        1 K55      0.031033
     38 H4A         5.1510   -4.8790   -1.3890 hc        1 K55      0.031033
     39 H4B         5.6910   -5.9560   -0.0180 hc        1 K55      0.031033
     40 H5          4.7380   -1.8670    2.0020 hc        1 K55      0.045700
     41 H5A         5.9390   -1.0790    0.8830 hc        1 K55      0.045700
     42 H7          2.7120   -0.7670    2.4490 ha        1 K55      0.131000
     43 H10         3.3830    2.1350   -1.5600 ha        1 K55      0.131000
     44 H11         4.9520    0.2370   -1.1060 ha        1 K55      0.208000
     45 H21         2.6250    4.1460   -0.6530 h1        1 K55      0.040200
     46 H21A        1.5820    3.3720   -1.9450 h1        1 K55      0.040200
     47 H22        -0.4590    4.4680   -0.9270 hc        1 K55      0.051700
     48 H22A        0.5780    5.2450    0.3290 hc        1 K55      0.051700
     49 H23         1.8870    6.4210   -1.4800 hc        1 K55      0.040700
     50 H23A        0.8480    5.6430   -2.7360 hc        1 K55      0.040700
     51 H24        -1.1830    6.7590   -1.7510 hc        1 K55      0.031367
     52 H24A       -0.1420    7.5370   -0.4910 hc        1 K55      0.031367
     53 H24B        0.0790    7.9640   -2.2390 hc        1 K55      0.031367
     54 H12         0.9400    0.5550    3.2060 h1        1 K55      0.065700
     55 H12A        0.8790    2.2830    2.5980 h1        1 K55      0.065700
     56 HN27       -0.5660    1.3340    0.7670 hn        1 K55      0.318500
     57 H16        -5.8430   -0.3530    0.9790 ha        1 K55      0.163000
     58 H18        -2.9470   -1.7920   -1.9090 ha        1 K55      0.162000
     59 H19        -1.0880   -1.1460   -0.3720 ha        1 K55      0.171000
@<TRIPOS>BOND
     1    1    3 1   
     2    2    3 1   
     3    3    4 1   
     4    4    5 1   
     5    4    7 1   
     6    4   34 1   
     7    5    6 1   
     8    5   35 1   
     9    5   36 1   
    10    6   37 1   
    11    6   38 1   
    12    6   39 1   
    13    7    8 1   
    14    7   40 1   
    15    7   41 1   
    16    8    9 ar  
    17    8   13 ar  
    18    9   10 ar  
    19    9   42 1   
    20   10   11 ar  
    21   10   19 1   
    22   11   12 ar  
    23   11   14 1   
    24   12   13 ar  
    25   12   43 1   
    26   13   44 1   
    27   14   15 1   
    28   15   16 1   
    29   15   45 1   
    30   15   46 1   
    31   16   17 1   
    32   16   47 1   
    33   16   48 1   
    34   17   18 1   
    35   17   49 1   
    36   17   50 1   
    37   18   51 1   
    38   18   52 1   
    39   18   53 1   
    40   19   20 1   
    41   19   54 1   
    42   19   55 1   
    43   20   21 1   
    44   20   56 1   
    45   21   22 2   
    46   21   23 1   
    47   23   24 ar  
    48   23   28 ar  
    49   24   25 ar  
    50   24   30 1   
    51   25   26 ar  
    52   25   57 1   
    53   26   27 ar  
    54   26   29 1   
    55   27   28 ar  
    56   27   58 1   
    57   28   59 1   
    58   29   31 1   
    59   29   32 1   
    60   29   33 1   
@<TRIPOS>SUBSTRUCTURE
     1 K55         1 TEMP              0 ****  ****    0 ROOT
