@<TRIPOS>MOLECULE
K55
   60    61     1     0     0
SMALL
bcc


@<TRIPOS>ATOM
      1 O25         1.8110   -1.3850    4.3730 oh        1 K55     -0.611100
      2 O26         0.7790   -2.5860    2.8310 o         1 K55     -0.574000
      3 C1          1.4430   -1.5720    3.0760 c         1 K55      0.649100
      4 C2          1.9430   -0.5100    2.1320 c3        1 K55     -0.101700
      5 C3          1.4800   -0.7800    0.7080 c3        1 K55     -0.074400
      6 C4          2.2130   -1.9390    0.0820 c3        1 K55     -0.100100
      7 C5          1.5320    0.8830    2.6070 c3        1 K55     -0.023100
      8 C6          0.0640    1.0600    2.7800 ca        1 K55     -0.127300
      9 C7         -0.5480    0.6120    3.9570 ca        1 K55     -0.078000
     10 C8         -1.9210    0.7400    4.1530 ca        1 K55     -0.152300
     11 C9         -2.6980    1.3530    3.1480 ca        1 K55      0.143100
     12 C10        -2.0920    1.8310    1.9790 ca        1 K55     -0.208000
     13 C11        -0.7180    1.6760    1.8010 ca        1 K55     -0.079000
     14 O33        -4.0530    1.4210    3.4060 os        1 K55     -0.338900
     15 C21        -4.8370    2.1600    2.4600 c3        1 K55      0.129400
     16 C22        -6.2500    2.1750    3.0170 c3        1 K55     -0.086400
     17 C23        -7.1730    2.9280    2.0830 c3        1 K55     -0.078400
     18 C24        -8.5820    2.9570    2.6150 c3        1 K55     -0.093100
     19 C12        -2.5360    0.2030    5.4140 c3        1 K55      0.147300
     20 N27        -2.8740   -1.1960    5.3570 ns        1 K55     -0.539900
     21 C13        -1.9200   -2.1850    5.4660 c         1 K55      0.682700
     22 O28        -0.7390   -1.9370    5.7950 o         1 K55     -0.626100
     23 C14        -2.3490   -3.5900    5.1870 ca        1 K55     -0.155600
     24 C15        -3.5480   -4.1440    5.6810 ca        1 K55      0.147900
     25 C16        -3.8740   -5.4860    5.3990 ca        1 K55     -0.134000
     26 C17        -3.0060   -6.2490    4.6220 ca        1 K55     -0.127300
     27 C18        -1.8190   -5.7070    4.1260 ca        1 K55     -0.104000
     28 C19        -1.4940   -4.3830    4.4140 ca        1 K55     -0.062000
     29 C20        -3.3720   -7.6940    4.2950 c3        1 K55      0.686200
     30 F29        -4.4030   -3.4130    6.4330 f         1 K55     -0.127900
     31 F30        -4.1050   -7.8380    3.1420 f         1 K55     -0.233300
     32 F31        -2.2940   -8.5270    4.1150 f         1 K55     -0.233300
     33 F32        -4.1280   -8.3220    5.2550 f         1 K55     -0.233300
     34 H2          3.0710   -0.5590    2.1660 hc        1 K55      0.081700
     35 H3          0.3770   -0.9890    0.7130 hc        1 K55      0.053200
     36 H3A         1.6470    0.1460    0.0970 hc        1 K55      0.053200
     37 H4          3.3120   -1.7410    0.0400 hc        1 K55      0.040367
     38 H4A         1.8450   -2.1070   -0.9590 hc        1 K55      0.040367
     39 H4B         2.0410   -2.8710    0.6740 hc        1 K55      0.040367
     40 H5          1.9210    1.6320    1.8670 hc        1 K55      0.061700
     41 H5A         2.0410    1.0770    3.5910 hc        1 K55      0.061700
     42 H7          0.0600    0.1230    4.7420 ha        1 K55      0.167000
     43 H10        -2.6860    2.3180    1.1930 ha        1 K55      0.138000
     44 H11        -0.2490    2.0390    0.8730 ha        1 K55      0.132000
     45 H21        -4.8000    1.6440    1.4650 h1        1 K55      0.041700
     46 H21A       -4.4290    3.2000    2.3620 h1        1 K55      0.041700
     47 H22        -6.6100    1.1220    3.1500 hc        1 K55      0.057200
     48 H22A       -6.2470    2.6560    4.0290 hc        1 K55      0.057200
     49 H23        -6.7980    3.9780    1.9510 hc        1 K55      0.040700
     50 H23A       -7.1620    2.4430    1.0710 hc        1 K55      0.040700
     51 H24        -8.6170    3.4590    3.6120 hc        1 K55      0.036367
     52 H24A       -8.9820    1.9210    2.7310 hc        1 K55      0.036367
     53 H24B       -9.2480    3.5160    1.9140 hc        1 K55      0.036367
     54 H12        -1.8070    0.3540    6.2640 h1        1 K55      0.074200
     55 H12A       -3.4830    0.7730    5.6410 h1        1 K55      0.074200
     56 HN27       -3.7550   -1.4320    4.9640 hn        1 K55      0.318500
     57 H16        -4.8050   -5.9180    5.7970 ha        1 K55      0.170000
     58 H18        -1.1400   -6.3240    3.5160 ha        1 K55      0.164000
     59 H19        -0.5540   -3.9420    4.0280 ha        1 K55      0.193000
     60 H272        1.3570   -2.0330    4.9440 ho        1 K55      0.465000
@<TRIPOS>BOND
     1    1    3 1   
     2    1   60 1   
     3    2    3 2   
     4    3    4 1   
     5    4    5 1   
     6    4    7 1   
     7    4   34 1   
     8    5    6 1   
     9    5   35 1   
    10    5   36 1   
    11    6   37 1   
    12    6   38 1   
    13    6   39 1   
    14    7    8 1   
    15    7   40 1   
    16    7   41 1   
    17    8    9 ar  
    18    8   13 ar  
    19    9   10 ar  
    20    9   42 1   
    21   10   11 ar  
    22   10   19 1   
    23   11   12 ar  
    24   11   14 1   
    25   12   13 ar  
    26   12   43 1   
    27   13   44 1   
    28   14   15 1   
    29   15   16 1   
    30   15   45 1   
    31   15   46 1   
    32   16   17 1   
    33   16   47 1   
    34   16   48 1   
    35   17   18 1   
    36   17   49 1   
    37   17   50 1   
    38   18   51 1   
    39   18   52 1   
    40   18   53 1   
    41   19   20 1   
    42   19   54 1   
    43   19   55 1   
    44   20   21 1   
    45   20   56 1   
    46   21   22 2   
    47   21   23 1   
    48   23   24 ar  
    49   23   28 ar  
    50   24   25 ar  
    51   24   30 1   
    52   25   26 ar  
    53   25   57 1   
    54   26   27 ar  
    55   26   29 1   
    56   27   28 ar  
    57   27   58 1   
    58   28   59 1   
    59   29   31 1   
    60   29   32 1   
    61   29   33 1   
@<TRIPOS>SUBSTRUCTURE
     1 K55         1 TEMP              0 ****  ****    0 ROOT
