@<TRIPOS>MOLECULE
K55
   60    61     1     0     0
SMALL
bcc


@<TRIPOS>ATOM
      1 O25         1.8010   -1.4080    4.4030 oh        1 K55     -0.611100
      2 O26         0.7770   -2.5870    2.8380 o         1 K55     -0.574000
      3 C1          1.4440   -1.5790    3.1000 c         1 K55      0.649100
      4 C2          1.9550   -0.5080    2.1740 c3        1 K55     -0.101700
      5 C3          1.5040   -0.7600    0.7430 c3        1 K55     -0.074400
      6 C4          2.2390   -1.9130    0.1100 c3        1 K55     -0.100100
      7 C5          1.5440    0.8810    2.6610 c3        1 K55     -0.023100
      8 C6          0.0750    1.0600    2.8240 ca        1 K55     -0.127300
      9 C7         -0.5480    0.6020    3.9910 ca        1 K55     -0.078000
     10 C8         -1.9220    0.7310    4.1760 ca        1 K55     -0.152300
     11 C9         -2.6890    1.3570    3.1720 ca        1 K55      0.143100
     12 C10        -2.0720    1.8450    2.0130 ca        1 K55     -0.208000
     13 C11        -0.6970    1.6890    1.8450 ca        1 K55     -0.079000
     14 O33        -4.0460    1.4250    3.4200 os        1 K55     -0.338900
     15 C21        -4.8210    2.1730    2.4730 c3        1 K55      0.129400
     16 C22        -6.2390    2.1830    3.0160 c3        1 K55     -0.086400
     17 C23        -7.1540    2.9430    2.0800 c3        1 K55     -0.078400
     18 C24        -8.5680    2.9670    2.5990 c3        1 K55     -0.093100
     19 C12        -2.5490    0.1820    5.4270 c3        1 K55      0.147300
     20 N27        -2.8910   -1.2140    5.3510 n         1 K55     -0.539900
     21 C13        -1.9420   -2.2080    5.4560 c         1 K55      0.682700
     22 O28        -0.7630   -1.9680    5.7960 o         1 K55     -0.626100
     23 C14        -2.3740   -3.6090    5.1560 ca        1 K55     -0.155600
     24 C15        -3.5790   -4.1650    5.6340 ca        1 K55      0.147900
     25 C16        -3.9070   -5.5010    5.3320 ca        1 K55     -0.134000
     26 C17        -3.0360   -6.2580    4.5530 ca        1 K55     -0.127300
     27 C18        -1.8430   -5.7140    4.0740 ca        1 K55     -0.104000
     28 C19        -1.5150   -4.3950    4.3800 ca        1 K55     -0.062000
     29 C20        -3.4040   -7.6980    4.2060 c3        1 K55      0.686200
     30 F29        -4.4370   -3.4390    6.3880 f         1 K55     -0.127900
     31 F30        -4.1290   -7.8240    3.0460 f         1 K55     -0.233300
     32 F31        -2.3290   -8.5320    4.0240 f         1 K55     -0.233300
     33 F32        -4.1700   -8.3350    5.1520 f         1 K55     -0.233300
     34 H2          3.0820   -0.5610    2.2170 hc        1 K55      0.081700
     35 H3          0.4000   -0.9650    0.7350 hc        1 K55      0.053200
     36 H3A         1.6790    0.1730    0.1440 hc        1 K55      0.053200
     37 H4          1.8790   -2.0680   -0.9360 hc        1 K55      0.040367
     38 H4A         2.0580   -2.8520    0.6900 hc        1 K55      0.040367
     39 H4B         3.3380   -1.7190    0.0800 hc        1 K55      0.040367
     40 H5          2.0450    1.0630    3.6520 hc        1 K55      0.061700
     41 H5A         1.9420    1.6380    1.9330 hc        1 K55      0.061700
     42 H7          0.0530    0.1030    4.7750 ha        1 K55      0.167000
     43 H10        -2.6580    2.3440    1.2280 ha        1 K55      0.138000
     44 H11        -0.2200    2.0620    0.9250 ha        1 K55      0.132000
     45 H21        -4.4120    3.2140    2.3880 h1        1 K55      0.041700
     46 H21A       -4.7750    1.6650    1.4740 h1        1 K55      0.041700
     47 H22        -6.6000    1.1290    3.1380 hc        1 K55      0.057200
     48 H22A       -6.2450    2.6560    4.0330 hc        1 K55      0.057200
     49 H23        -7.1330    2.4660    1.0650 hc        1 K55      0.040700
     50 H23A       -6.7780    3.9940    1.9600 hc        1 K55      0.040700
     51 H24        -8.6130    3.4610    3.6000 hc        1 K55      0.036367
     52 H24A       -9.2280    3.5320    1.8970 hc        1 K55      0.036367
     53 H24B       -8.9680    1.9300    2.7030 hc        1 K55      0.036367
     54 H12        -3.4960    0.7530    5.6520 h1        1 K55      0.074200
     55 H12A       -1.8260    0.3200    6.2840 h1        1 K55      0.074200
     56 HN27       -3.7700   -1.4430    4.9480 hn        1 K55      0.318500
     57 H16        -4.8430   -5.9350    5.7180 ha        1 K55      0.170000
     58 H18        -1.1620   -6.3270    3.4610 ha        1 K55      0.164000
     59 H19        -0.5710   -3.9530    4.0070 ha        1 K55      0.193000
     60 H272        1.3400   -2.0620    4.9620 ho        1 K55      0.465000
@<TRIPOS>BOND
     1    1    3 1   
     2    1   60 1   
     3    2    3 2   
     4    3    4 1   
     5    4    5 1   
     6    4    7 1   
     7    4   34 1   
     8    5    6 1   
     9    5   35 1   
    10    5   36 1   
    11    6   37 1   
    12    6   38 1   
    13    6   39 1   
    14    7    8 1   
    15    7   40 1   
    16    7   41 1   
    17    8    9 ar  
    18    8   13 ar  
    19    9   10 ar  
    20    9   42 1   
    21   10   11 ar  
    22   10   19 1   
    23   11   12 ar  
    24   11   14 1   
    25   12   13 ar  
    26   12   43 1   
    27   13   44 1   
    28   14   15 1   
    29   15   16 1   
    30   15   45 1   
    31   15   46 1   
    32   16   17 1   
    33   16   47 1   
    34   16   48 1   
    35   17   18 1   
    36   17   49 1   
    37   17   50 1   
    38   18   51 1   
    39   18   52 1   
    40   18   53 1   
    41   19   20 1   
    42   19   54 1   
    43   19   55 1   
    44   20   21 1   
    45   20   56 1   
    46   21   22 2   
    47   21   23 1   
    48   23   24 ar  
    49   23   28 ar  
    50   24   25 ar  
    51   24   30 1   
    52   25   26 ar  
    53   25   57 1   
    54   26   27 ar  
    55   26   29 1   
    56   27   28 ar  
    57   27   58 1   
    58   28   59 1   
    59   29   31 1   
    60   29   32 1   
    61   29   33 1   
@<TRIPOS>SUBSTRUCTURE
     1 K55         1 TEMP              0 ****  ****    0 ROOT
