@<TRIPOS>MOLECULE
K57
   74    68     1     0     0
SMALL
bcc


@<TRIPOS>ATOM
      1 C1         -6.1550    2.3360   -3.8370 c1        1 K57     -0.193000
      2 C2         -5.2330    1.4390   -4.3490 c1        1 K57     -0.121750
      3 C3         -4.3830    0.7550   -3.4940 c1        1 K57     -0.121750
      4 C4         -4.4570    0.9690   -2.1250 c1        1 K57     -0.091000
      5 C5         -5.3780    1.8660   -1.6140 c1        1 K57     -0.039000
      6 C6         -6.2290    2.5510   -2.4700 c1        1 K57      0.071000
      7 C7         -5.4210    2.1400   -0.1270 c3        1 K57     -0.189000
      8 C8         -3.4990    0.2440   -1.1870 c2        1 K57      0.350000
      9 O33        -7.2090    3.4170   -1.9450 oh        1 K57     -0.247000
     10 O34        -3.5740    0.4200    0.0140 o         1 K57     -0.356000
     11 C13         0.6100   -0.8450    0.2340 c1        1 K57      0.287000
     12 N9         -2.5250   -0.6590   -1.7180 n         1 K57     -0.379000
     13 O26         0.3090   -1.7360    0.9940 o         1 K57     -0.390000
     14 C12        -0.2420   -0.5780   -1.0000 c2        1 K57     -0.001000
     15 C19        -1.2930   -2.8750   -2.7220 c1        1 K57     -0.082000
     16 C11        -1.4240   -2.7350   -1.2130 c2        1 K57     -0.147000
     17 C22        -1.1310   -3.4510   -5.4310 c1        1 K57     -0.121750
     18 C10        -1.5730   -1.2690   -0.8510 c3        1 K57      0.014000
     19 O25         0.4150   -1.0710   -2.1390 oh        1 K57     -0.315000
     20 C20        -2.4130   -2.7380   -3.5260 c2        1 K57     -0.131000
     21 C24        -0.0910   -3.3010   -3.2740 c1        1 K57     -0.144000
     22 C21        -2.3340   -3.0250   -4.8800 c1        1 K57     -0.125000
     23 C23        -0.0130   -3.5880   -4.6280 c1        1 K57     -0.121750
     24 C29         2.8360    0.5610    2.6560 c1        1 K57      0.294000
     25 N14         1.8350   -0.1170    0.4310 n3        1 K57     -0.318000
     26 O32         2.2720    1.6010    2.3970 o         1 K57     -0.360000
     27 C15         2.9950   -0.3790    1.6970 c2        1 K57      0.005000
     28 C16         4.2060   -0.1850    1.0560 c3        1 K57     -0.117000
     29 C18         2.2890    0.8830   -0.3270 c3        1 K57     -0.127000
     30 C27         4.7360   -1.5020    0.5330 c3        1 K57     -0.207500
     31 C28         5.2090    0.4430    2.0090 c3        1 K57     -0.207500
     32 S17         3.8960    0.8370   -0.1920 ss        1 K57      0.044000
     33 N30         3.4150    0.3650    3.9490 n3        1 K57     -0.360000
     34 C31         3.1640    1.3070    4.9930 c3        1 K57      0.081000
     35 C35         1.7160    1.1950    5.4380 c3        1 K57     -0.226000
     36 C67         4.0760    1.0160    6.1640 c3        1 K57     -0.226000
     37 C71         3.4280    2.7020    4.4850 c3        1 K57     -0.226000
     38 H36        -6.7520    2.8170   -4.4380 ha        1 K57      0.137000
     39 H37        -5.1810    1.2880   -5.3140 ha        1 K57      0.137000
     40 H38        -3.7370    0.1260   -3.8520 ha        1 K57      0.137000
     41 H32        -5.6850    1.3220    0.3500 hc        1 K57      0.100000
     42 H33        -4.5360    2.4250    0.1780 hc        1 K57      0.100000
     43 H34        -6.0730    2.8490    0.0550 hc        1 K57      0.100000
     44 H35        -7.1330    4.2170   -2.3270 ho        1 K57      0.220000
     45 H31        -2.5370   -0.8700   -2.6000 hn        1 K57      0.238000
     46 H22        -0.3840    0.3820   -1.0970 h4        1 K57      0.142000
     47 H24        -0.6260   -3.0970   -0.7820 ha        1 K57      0.116000
     48 H25        -2.2120   -3.2290   -0.9070 ha        1 K57      0.116000
     49 H28        -1.0760   -3.6530   -6.3810 ha        1 K57      0.137000
     50 H23        -1.8790   -1.1920    0.0790 h1        1 K57      0.151000
     51 H21         0.7270   -0.3940   -2.6140 ho        1 K57      0.218000
     52 H30        -3.2590   -2.4390   -3.1390 ha        1 K57      0.136000
     53 H26         0.6980   -3.3980   -2.7080 ha        1 K57      0.132000
     54 H29        -3.1280   -2.9280   -5.4500 ha        1 K57      0.134000
     55 H27         0.8320   -3.8880   -5.0160 ha        1 K57      0.137000
     56 H11         2.8980   -1.1940    2.2220 h4        1 K57      0.133000
     57 H19         2.0250    0.7490   -1.2550 h2        1 K57      0.128000
     58 H20         1.9470    1.7390    0.0020 h2        1 K57      0.128000
     59 H13         4.5810   -2.2040    1.1990 hc        1 K57      0.093000
     60 H14         5.6970   -1.4220    0.3610 hc        1 K57      0.093000
     61 H15         4.2730   -1.7330   -0.3000 hc        1 K57      0.093000
     62 H16         5.3170   -0.1300    2.7910 hc        1 K57      0.093000
     63 H17         4.8840    1.3260    2.2930 hc        1 K57      0.093000
     64 H18         6.0750    0.5430    1.5550 hc        1 K57      0.093000
     65 H10         3.9220   -0.3770    4.1150 hn        1 K57      0.242000
     66 H7          1.5060    0.2530    5.6390 hc        1 K57      0.085111
     67 H8          1.1310    1.5140    4.7260 hc        1 K57      0.085111
     68 H9          1.5780    1.7390    6.2420 hc        1 K57      0.085111
     69 H1          3.9520    0.0840    6.4530 hc        1 K57      0.085111
     70 H2          3.8610    1.6150    6.9000 hc        1 K57      0.085111
     71 H3          5.0090    1.1530    5.8940 hc        1 K57      0.085111
     72 H4          4.3000    2.7280    4.0440 hc        1 K57      0.085111
     73 H5          3.4230    3.3280    5.2360 hc        1 K57      0.085111
     74 H6          2.7290    2.9540    3.8440 hc        1 K57      0.085111
@<TRIPOS>BOND
     1    1    6 1   
     2    1   38 1   
     3    2    3 1   
     4    2   39 1   
     5    3   40 1   
     6    4    5 1   
     7    4    8 1   
     8    5    7 1   
     9    6    9 1   
    10    7   41 1   
    11    7   42 1   
    12    7   43 1   
    13    8   10 1   
    14    8   12 1   
    15    9   44 1   
    16   11   13 1   
    17   11   25 1   
    18   12   18 1   
    19   12   45 1   
    20   14   18 1   
    21   14   19 1   
    22   14   46 1   
    23   15   20 1   
    24   15   21 1   
    25   16   18 1   
    26   16   47 1   
    27   16   48 1   
    28   17   23 1   
    29   17   49 1   
    30   18   50 1   
    31   19   51 1   
    32   20   22 1   
    33   20   52 1   
    34   21   53 1   
    35   22   54 1   
    36   23   55 1   
    37   24   26 1   
    38   24   33 1   
    39   25   27 1   
    40   25   29 1   
    41   27   28 1   
    42   27   56 1   
    43   28   30 1   
    44   28   31 1   
    45   28   32 1   
    46   29   32 1   
    47   29   57 1   
    48   29   58 1   
    49   30   59 1   
    50   30   60 1   
    51   30   61 1   
    52   31   62 1   
    53   31   63 1   
    54   31   64 1   
    55   33   34 1   
    56   33   65 1   
    57   34   35 1   
    58   34   36 1   
    59   34   37 1   
    60   35   66 1   
    61   35   67 1   
    62   35   68 1   
    63   36   69 1   
    64   36   70 1   
    65   36   71 1   
    66   37   72 1   
    67   37   73 1   
    68   37   74 1   
@<TRIPOS>SUBSTRUCTURE
     1 K57         1 TEMP              0 ****  ****    0 ROOT
