@<TRIPOS>MOLECULE
K57
   74    76     1     0     0
SMALL
bcc


@<TRIPOS>ATOM
      1 C1         -7.1360   -1.5570    0.2970 ca        1 K57     -0.138000
      2 C2         -6.3350   -1.9210    1.3730 ca        1 K57     -0.105000
      3 C3         -4.9510   -1.7740    1.3000 ca        1 K57     -0.143000
      4 C4         -4.3590   -1.2700    0.1380 ca        1 K57     -0.099600
      5 C5         -5.1360   -0.8960   -0.9670 ca        1 K57     -0.104300
      6 C6         -6.5350   -1.0450   -0.8650 ca        1 K57      0.119100
      7 C7         -4.5370   -0.3600   -2.2110 c3        1 K57     -0.069800
      8 C8         -2.8690   -1.1570    0.0980 c         1 K57      0.678700
      9 O33        -7.4060   -0.7030   -1.8730 oh        1 K57     -0.498100
     10 O34        -2.1620   -1.7820   -0.7200 o         1 K57     -0.622100
     11 C13         1.3360   -1.3400    1.3890 c         1 K57      0.643100
     12 N9         -2.2960   -0.3090    1.0260 n         1 K57     -0.552900
     13 O26         2.1150   -1.0280    2.3160 o         1 K57     -0.624100
     14 C12        -0.1670   -1.4240    1.6740 c3        1 K57      0.059100
     15 C19        -0.7680    2.3510    1.2510 ca        1 K57     -0.088300
     16 C11        -0.4600    1.0760    1.9500 c3        1 K57     -0.052100
     17 C22        -1.3290    4.7600   -0.0570 ca        1 K57     -0.130000
     18 C10        -0.8650   -0.1480    1.1120 c3        1 K57      0.086700
     19 O25        -0.3890   -1.5760    3.0570 oh        1 K57     -0.584800
     20 C20        -1.8380    3.1500    1.6710 ca        1 K57     -0.124500
     21 C24         0.0220    2.7680    0.1720 ca        1 K57     -0.124500
     22 C21        -2.1160    4.3500    1.0180 ca        1 K57     -0.128500
     23 C23        -0.2610    3.9680   -0.4780 ca        1 K57     -0.128500
     24 C29         3.5510    0.0890   -0.4000 c         1 K57      0.656100
     25 N14         1.8200   -1.6150    0.1260 n         1 K57     -0.451800
     26 O32         2.7490    0.8400   -0.9910 o         1 K57     -0.617100
     27 C15         3.2290   -1.4190   -0.1850 c3        1 K57      0.036700
     28 C16         3.6170   -2.2560   -1.4310 c3        1 K57      0.052100
     29 C18         1.0050   -1.9470   -1.0120 c3        1 K57      0.173100
     30 C27         4.3860   -3.4890   -1.0090 c3        1 K57     -0.091100
     31 C28         4.3960   -1.4790   -2.4640 c3        1 K57     -0.091100
     32 S17         2.0620   -2.8040   -2.1880 ss        1 K57     -0.316200
     33 C31         5.1810    1.9250    0.0840 c3        1 K57      0.121400
     34 C35         4.2030    2.8220    0.8620 c3        1 K57     -0.108433
     35 C67         6.5650    2.0550    0.7480 c3        1 K57     -0.108433
     36 C71         5.2930    2.4740   -1.3480 c3        1 K57     -0.108433
     37 H36        -8.2300   -1.6620    0.3360 ha        1 K57      0.154000
     38 H37        -6.7960   -2.3270    2.2860 ha        1 K57      0.140000
     39 H38        -4.3230   -2.0710    2.1530 ha        1 K57      0.142000
     40 H32        -3.4200   -0.3430   -2.1570 hc        1 K57      0.056367
     41 H33        -4.8240   -0.9970   -3.0850 hc        1 K57      0.056367
     42 H34        -4.8950    0.6850   -2.3960 hc        1 K57      0.056367
     43 H35        -6.8940   -0.4010   -2.6370 ho        1 K57      0.425000
     44 H31        -2.8550    0.0920    1.7400 hn        1 K57      0.322500
     45 H22        -0.6140   -2.3510    1.2090 h1        1 K57      0.114700
     46 H24        -0.9650    1.0410    2.9520 hc        1 K57      0.066200
     47 H25         0.6480    1.0080    2.1340 hc        1 K57      0.066200
     48 H28        -1.5500    5.7070   -0.5720 ha        1 K57      0.130000
     49 H23        -0.4830   -0.0040    0.0530 h1        1 K57      0.087700
     50 H21         0.2130   -0.9790    3.5270 ho        1 K57      0.424000
     51 H30        -2.4610    2.8310    2.5190 ha        1 K57      0.142000
     52 H26         0.8710    2.1470   -0.1640 ha        1 K57      0.142000
     53 H29        -2.9580    4.9730    1.3540 ha        1 K57      0.132500
     54 H27         0.3620    4.2880   -1.3260 ha        1 K57      0.132500
     55 H11         3.8120   -1.7950    0.7120 h1        1 K57      0.097700
     56 H19         0.1420   -2.6080   -0.7360 h2        1 K57      0.097700
     57 H20         0.6040   -1.0190   -1.5040 h2        1 K57      0.097700
     58 H13         3.8180   -4.0660   -0.2390 hc        1 K57      0.053200
     59 H14         4.5590   -4.1520   -1.8930 hc        1 K57      0.053200
     60 H15         5.3790   -3.2020   -0.5840 hc        1 K57      0.053200
     61 H16         5.3870   -1.1630   -2.0540 hc        1 K57      0.053200
     62 H17         4.5780   -2.1230   -3.3600 hc        1 K57      0.053200
     63 H18         3.8330   -0.5700   -2.7920 hc        1 K57      0.053200
     64 H10         5.2760   -0.0810    0.6840 hn        1 K57      0.311500
     65 H7          4.1370    2.5030    1.9290 hc        1 K57      0.046700
     66 H8          4.5650    3.8770    0.8260 hc        1 K57      0.046700
     67 H9          3.1850    2.7740    0.4040 hc        1 K57      0.046700
     68 H1          7.3290    1.4550    0.1980 hc        1 K57      0.046700
     69 H2          6.8720    3.1270    0.7260 hc        1 K57      0.046700
     70 H3          6.5320    1.7170    1.8110 hc        1 K57      0.046700
     71 H4          4.3010    2.4280   -1.8600 hc        1 K57      0.046700
     72 H5          5.6290    3.5370   -1.3040 hc        1 K57      0.046700
     73 H6          6.0350    1.8870   -1.9390 hc        1 K57      0.046700
     74 N30         4.7610    0.5230    0.0880 n         1 K57     -0.553900
@<TRIPOS>BOND
     1    1    2 ar  
     2    1    6 ar  
     3    1   37 1   
     4    2    3 ar  
     5    2   38 1   
     6    3    4 ar  
     7    3   39 1   
     8    4    5 ar  
     9    4    8 1   
    10    5    6 ar  
    11    5    7 1   
    12    6    9 1   
    13    7   40 1   
    14    7   41 1   
    15    7   42 1   
    16    8   10 2   
    17    8   12 1   
    18    9   43 1   
    19   11   13 2   
    20   11   14 1   
    21   11   25 1   
    22   12   18 1   
    23   12   44 1   
    24   14   18 1   
    25   14   19 1   
    26   14   45 1   
    27   15   16 1   
    28   15   20 ar  
    29   15   21 ar  
    30   16   18 1   
    31   16   46 1   
    32   16   47 1   
    33   17   22 ar  
    34   17   23 ar  
    35   17   48 1   
    36   18   49 1   
    37   19   50 1   
    38   20   22 ar  
    39   20   51 1   
    40   21   23 ar  
    41   21   52 1   
    42   22   53 1   
    43   23   54 1   
    44   24   26 2   
    45   24   27 1   
    46   24   74 1   
    47   25   27 1   
    48   25   29 1   
    49   27   28 1   
    50   27   55 1   
    51   28   30 1   
    52   28   31 1   
    53   28   32 1   
    54   29   32 1   
    55   29   56 1   
    56   29   57 1   
    57   30   58 1   
    58   30   59 1   
    59   30   60 1   
    60   31   61 1   
    61   31   62 1   
    62   31   63 1   
    63   33   34 1   
    64   33   35 1   
    65   33   36 1   
    66   33   74 1   
    67   34   65 1   
    68   34   66 1   
    69   34   67 1   
    70   35   68 1   
    71   35   69 1   
    72   35   70 1   
    73   36   71 1   
    74   36   72 1   
    75   36   73 1   
    76   64   74 1   
@<TRIPOS>SUBSTRUCTURE
     1 K57         1 TEMP              0 ****  ****    0 ROOT
