@<TRIPOS>MOLECULE
K5E
   35    34     1     0     0
SMALL
bcc


@<TRIPOS>ATOM
      1 S          -3.9160    0.4560   -2.0010 s         1 K5E     -0.286000
      2 C1          0.5050    3.7970    0.6460 c1        1 K5E      0.082000
      3 N1         -1.2240    0.4500   -2.0100 n         1 K5E     -0.311000
      4 O1          0.9790    5.1200    0.5890 o         1 K5E     -0.247000
      5 C2         -0.3370    3.6480    1.7370 c2        1 K5E     -0.146000
      6 N2         -2.3370   -1.2530   -0.5270 n         1 K5E     -0.284000
      7 O2          2.6590   -0.7680   -0.9180 oh        1 K5E     -0.321000
      8 C3         -1.0450    2.4680    1.9100 c1        1 K5E     -0.096000
      9 C4         -0.9110    1.4380    0.9920 c1        1 K5E     -0.140000
     10 C5         -0.0680    1.5860   -0.0990 c1        1 K5E     -0.087000
     11 C6          0.6400    2.7660   -0.2720 c1        1 K5E     -0.216000
     12 C7         -0.0010    0.4500   -1.2110 c3        1 K5E      0.105000
     13 C8         -2.4290   -0.0400   -1.4130 c2        1 K5E      0.155000
     14 C9         -0.9800   -1.7660   -0.1770 c2        1 K5E      0.052000
     15 C10         0.2930   -0.8620   -0.6260 c2        1 K5E     -0.230000
     16 C11         1.5830   -1.2790   -0.0990 c3        1 K5E      0.092000
     17 C12         1.6980   -2.8870    0.0580 c3        1 K5E     -0.157000
     18 C13         0.7870   -3.4280    0.6560 c3        1 K5E     -0.153000
     19 C14        -0.7070   -3.1890    0.0450 c3        1 K5E     -0.128000
     20 HN1        -1.2610    0.9260   -2.7880 hn        1 K5E      0.264000
     21 HO1         1.8680    5.1150    0.5430 ho        1 K5E      0.220000
     22 H2         -0.4320    4.3740    2.3840 ha        1 K5E      0.156000
     23 HO2         3.0010   -0.0400   -0.5390 ho        1 K5E      0.201000
     24 H3         -1.6380    2.3640    2.6780 ha        1 K5E      0.141000
     25 H4         -1.4090    0.6080    1.1140 ha        1 K5E      0.144000
     26 H6          1.2330    2.8710   -1.0400 ha        1 K5E      0.137000
     27 H7          0.7590    0.7560   -1.7420 h1        1 K5E      0.111000
     28 H12         1.7490   -3.2790   -0.8400 hc        1 K5E      0.102000
     29 H12A        2.5340   -3.0890    0.5280 hc        1 K5E      0.102000
     30 H13         0.9600   -4.3930    0.6680 hc        1 K5E      0.091000
     31 H13A        0.7940   -3.1040    1.5800 hc        1 K5E      0.091000
     32 H14        -1.2860   -3.6540    0.6820 hc        1 K5E      0.101500
     33 H14A       -0.7610   -3.5500   -0.8640 hc        1 K5E      0.101500
     34 H15        -3.0710   -1.7780   -0.3950 hn        1 K5E      0.271000
     35 H16         1.7690   -0.8340    0.7520 h1        1 K5E      0.084000
@<TRIPOS>BOND
     1    1   13 1   
     2    2    5 1   
     3    2   11 1   
     4    3   12 1   
     5    3   13 1   
     6    3   20 1   
     7    4   21 1   
     8    5    8 1   
     9    5   22 1   
    10    6   13 1   
    11    6   14 1   
    12    6   34 1   
    13    7   16 1   
    14    7   23 1   
    15    8   24 1   
    16    9   10 1   
    17    9   25 1   
    18   10   12 1   
    19   11   26 1   
    20   12   15 1   
    21   12   27 1   
    22   14   15 1   
    23   14   19 1   
    24   15   16 1   
    25   16   17 1   
    26   16   35 1   
    27   17   18 1   
    28   17   28 1   
    29   17   29 1   
    30   18   19 1   
    31   18   30 1   
    32   18   31 1   
    33   19   32 1   
    34   19   33 1   
@<TRIPOS>SUBSTRUCTURE
     1 K5E         1 TEMP              0 ****  ****    0 ROOT
