@<TRIPOS>MOLECULE
K5E
   35    37     1     0     0
SMALL
bcc


@<TRIPOS>ATOM
      1 S           3.1980   -2.6220   -0.3720 s         1 K5E     -0.574400
      2 C1         -3.5970   -0.6690    0.1490 ca        1 K5E      0.120100
      3 N1          1.0280   -1.3060   -1.0470 n         1 K5E     -0.497900
      4 O1         -4.8570   -0.2400   -0.2030 oh        1 K5E     -0.498100
      5 C2         -3.5180   -1.5520    1.2400 ca        1 K5E     -0.151000
      6 N2          2.5940   -0.1880    0.3520 n         1 K5E     -0.437100
      7 O2         -0.8540    2.2880   -1.5870 oh        1 K5E     -0.605800
      8 C3         -2.2670   -2.0070    1.6410 ca        1 K5E     -0.098000
      9 C4         -1.1090   -1.6010    0.9740 ca        1 K5E     -0.153000
     10 C5         -1.1960   -0.7290   -0.1140 ca        1 K5E     -0.079300
     11 C6         -2.4450   -0.2550   -0.5290 ca        1 K5E     -0.204000
     12 C7          0.0300   -0.2640   -0.8790 c3        1 K5E      0.193200
     13 C8          2.2210   -1.3320   -0.3520 c         1 K5E      0.568400
     14 C9          1.8230    0.9830    0.3340 c2        1 K5E      0.041400
     15 C10         0.5920    0.9850   -0.2440 c2        1 K5E     -0.193400
     16 C11        -0.2820    2.1970   -0.2800 c3        1 K5E      0.203300
     17 C12         0.4800    3.4750    0.0640 c3        1 K5E     -0.116400
     18 C13         1.3790    3.2570    1.2580 c3        1 K5E     -0.070400
     19 C14         2.4280    2.2040    0.9640 c3        1 K5E     -0.045200
     20 HN1         0.7130   -2.1800   -1.4120 hn        1 K5E      0.348500
     21 HO1        -4.7720    0.3250   -0.9850 ho        1 K5E      0.419000
     22 HO2        -1.2410    3.1690   -1.6570 ho        1 K5E      0.404000
     23 H3         -2.1880   -2.6980    2.4940 ha        1 K5E      0.138000
     24 H4         -0.1330   -1.9730    1.3180 ha        1 K5E      0.141000
     25 H6         -2.5100    0.4500   -1.3740 ha        1 K5E      0.150000
     26 H7         -0.3070    0.0150   -1.9310 h1        1 K5E      0.094700
     27 H12         1.0900    3.7910   -0.8240 hc        1 K5E      0.053700
     28 H12A       -0.2530    4.2940    0.2820 hc        1 K5E      0.053700
     29 H13         1.8890    4.2180    1.5290 hc        1 K5E      0.053200
     30 H13A        0.7630    2.9400    2.1400 hc        1 K5E      0.053200
     31 H14         2.9560    1.9350    1.9180 hc        1 K5E      0.062200
     32 H14A        3.1970    2.6220    0.2580 hc        1 K5E      0.062200
     33 H15         3.5090   -0.1760    0.7470 hn        1 K5E      0.355500
     34 H16        -1.1270    2.0460    0.4580 h1        1 K5E      0.051700
     35 H2         -4.4370   -1.8660    1.7530 ha        1 K5E      0.152000
@<TRIPOS>BOND
     1    1   13 2   
     2    2    4 1   
     3    2    5 ar  
     4    2   11 ar  
     5    3   12 1   
     6    3   13 1   
     7    3   20 1   
     8    4   21 1   
     9    5    8 ar  
    10    5   35 1   
    11    6   13 1   
    12    6   14 1   
    13    6   33 1   
    14    7   16 1   
    15    7   22 1   
    16    8    9 ar  
    17    8   23 1   
    18    9   10 ar  
    19    9   24 1   
    20   10   11 ar  
    21   10   12 1   
    22   11   25 1   
    23   12   15 1   
    24   12   26 1   
    25   14   15 2   
    26   14   19 1   
    27   15   16 1   
    28   16   17 1   
    29   16   34 1   
    30   17   18 1   
    31   17   27 1   
    32   17   28 1   
    33   18   19 1   
    34   18   29 1   
    35   18   30 1   
    36   19   31 1   
    37   19   32 1   
@<TRIPOS>SUBSTRUCTURE
     1 K5E         1 TEMP              0 ****  ****    0 ROOT
