@<TRIPOS>MOLECULE
K5E
   35    37     1     0     0
SMALL
bcc


@<TRIPOS>ATOM
      1 S          -0.4200    1.2260    1.3350 s         1 K5E     -0.577400
      2 C1          6.2370    2.5050   -0.7590 ca        1 K5E      0.120100
      3 N1          2.0000    0.5840    0.5410 n         1 K5E     -0.497900
      4 O1          7.4560    2.2130   -1.3280 oh        1 K5E     -0.498100
      5 C2          5.7670    3.8170   -0.6070 ca        1 K5E     -0.208000
      6 N2          1.5950    0.6250    2.8850 n         1 K5E     -0.436100
      7 O2          5.5260   -1.3260    1.3290 oh        1 K5E     -0.600800
      8 C3          4.5270    4.0240   -0.0080 ca        1 K5E     -0.091000
      9 C4          3.7610    2.9440    0.4320 ca        1 K5E     -0.153000
     10 C5          4.2310    1.6370    0.2700 ca        1 K5E     -0.083300
     11 C6          5.4740    1.4090   -0.3260 ca        1 K5E     -0.149000
     12 C7          3.4330    0.4270    0.7230 c3        1 K5E      0.192200
     13 C8          1.1250    0.8060    1.5850 c         1 K5E      0.568400
     14 C9          2.8960    0.1760    3.1490 c2        1 K5E      0.040400
     15 C10         3.8030    0.0690    2.1420 c2        1 K5E     -0.190400
     16 C11         5.2070   -0.3910    2.3610 c3        1 K5E      0.202300
     17 C12         5.4060   -1.0340    3.7330 c3        1 K5E     -0.115400
     18 C13         4.7130   -0.2320    4.8080 c3        1 K5E     -0.070400
     19 C14         3.2170   -0.1820    4.5720 c3        1 K5E     -0.044200
     20 HN1         1.6850    0.8580   -0.3660 hn        1 K5E      0.348500
     21 HO1         7.8580    3.0470   -1.6130 ho        1 K5E      0.420000
     22 HO2         6.4230   -1.6320    1.5080 ho        1 K5E      0.405000
     23 H3          4.1480    5.0490    0.1190 ha        1 K5E      0.137000
     24 H4          2.7900    3.1360    0.9110 ha        1 K5E      0.142000
     25 H6          5.8630    0.3860   -0.4460 ha        1 K5E      0.164000
     26 H7          3.7360   -0.4500    0.0610 h1        1 K5E      0.098700
     27 H12         6.5030   -1.1010    3.9530 hc        1 K5E      0.054700
     28 H12A        4.9990   -2.0800    3.7100 hc        1 K5E      0.054700
     29 H13         4.9100   -0.6910    5.8120 hc        1 K5E      0.052200
     30 H13A        5.1270    0.8110    4.8260 hc        1 K5E      0.052200
     31 H14         2.7640   -1.1870    4.7940 hc        1 K5E      0.062200
     32 H14A        2.7570    0.5600    5.2790 hc        1 K5E      0.062200
     33 H15         0.9220    0.6670    3.6200 hn        1 K5E      0.355500
     34 H16         5.8920    0.5030    2.2560 h1        1 K5E      0.050700
     35 H2          6.3690    4.6670   -0.9570 ha        1 K5E      0.135000
@<TRIPOS>BOND
     1    1   13 2   
     2    2    4 1   
     3    2    5 ar  
     4    2   11 ar  
     5    3   12 1   
     6    3   13 1   
     7    3   20 1   
     8    4   21 1   
     9    5    8 ar  
    10    5   35 1   
    11    6   13 1   
    12    6   14 1   
    13    6   33 1   
    14    7   16 1   
    15    7   22 1   
    16    8    9 ar  
    17    8   23 1   
    18    9   10 ar  
    19    9   24 1   
    20   10   11 ar  
    21   10   12 1   
    22   11   25 1   
    23   12   15 1   
    24   12   26 1   
    25   14   15 2   
    26   14   19 1   
    27   15   16 1   
    28   16   17 1   
    29   16   34 1   
    30   17   18 1   
    31   17   27 1   
    32   17   28 1   
    33   18   19 1   
    34   18   29 1   
    35   18   30 1   
    36   19   31 1   
    37   19   32 1   
@<TRIPOS>SUBSTRUCTURE
     1 K5E         1 TEMP              0 ****  ****    0 ROOT
