@<TRIPOS>MOLECULE
K5E
   35    37     1     0     0
SMALL
bcc


@<TRIPOS>ATOM
      1 S          -0.2600    0.9080    0.9980 s         1 K5E     -0.577400
      2 C1          6.4690    2.3930   -0.6850 ca        1 K5E      0.120100
      3 N1          2.2330    0.3420    0.3990 ns        1 K5E     -0.497900
      4 O1          7.7370    2.1330   -1.1570 oh        1 K5E     -0.498100
      5 C2          5.9370    3.6880   -0.6220 ca        1 K5E     -0.208000
      6 N2          1.6630    0.4560    2.7060 ns        1 K5E     -0.436100
      7 O2          5.7700   -1.3810    1.5070 oh        1 K5E     -0.600800
      8 C3          4.6500    3.8640   -0.1190 ca        1 K5E     -0.091000
      9 C4          3.9000    2.7700    0.3130 ca        1 K5E     -0.153000
     10 C5          4.4330    1.4790    0.2380 ca        1 K5E     -0.083300
     11 C6          5.7230    1.2830   -0.2600 ca        1 K5E     -0.149000
     12 C7          3.6550    0.2540    0.6850 c3        1 K5E      0.192200
     13 C8          1.2780    0.5660    1.3710 c         1 K5E      0.568400
     14 C9          2.9590    0.0750    3.0780 c2        1 K5E      0.040400
     15 C10         3.9380   -0.0320    2.1410 c2        1 K5E     -0.190400
     16 C11         5.3420   -0.4220    2.4750 c3        1 K5E      0.202300
     17 C12         5.4690   -1.0020    3.8820 c3        1 K5E     -0.115400
     18 C13         4.6700   -0.1890    4.8730 c3        1 K5E     -0.070400
     19 C14         3.1940   -0.2130    4.5330 c3        1 K5E     -0.044200
     20 HN1         1.9720    0.5660   -0.5370 hn        1 K5E      0.348500
     21 HO1         8.1230    2.9710   -1.4480 ho        1 K5E      0.420000
     22 HO2         6.6640   -1.6410    1.7590 ho        1 K5E      0.405000
     23 H3          4.2220    4.8760   -0.0610 ha        1 K5E      0.137000
     24 H4          2.8900    2.9380    0.7160 ha        1 K5E      0.142000
     25 H6          6.1610    0.2730   -0.3100 ha        1 K5E      0.164000
     26 H7          4.0400   -0.6340    0.0840 h1        1 K5E      0.098700
     27 H12         5.1080   -2.0640    3.8760 hc        1 K5E      0.054700
     28 H12A        6.5500   -1.0130    4.1790 hc        1 K5E      0.054700
     29 H13         5.0400    0.8710    4.8760 hc        1 K5E      0.052200
     30 H13A        4.8150   -0.6000    5.9060 hc        1 K5E      0.052200
     31 H14         2.7680   -1.2270    4.7660 hc        1 K5E      0.062200
     32 H14A        2.6560    0.5350    5.1750 hc        1 K5E      0.062200
     33 H15         0.9390    0.4980    3.3910 hn        1 K5E      0.355500
     34 H16         5.9950    0.4970    2.3800 h1        1 K5E      0.050700
     35 H2          6.5270    4.5500   -0.9640 ha        1 K5E      0.135000
@<TRIPOS>BOND
     1    1   13 2   
     2    2    4 1   
     3    2    5 ar  
     4    2   11 ar  
     5    3   12 1   
     6    3   13 1   
     7    3   20 1   
     8    4   21 1   
     9    5    8 ar  
    10    5   35 1   
    11    6   13 1   
    12    6   14 1   
    13    6   33 1   
    14    7   16 1   
    15    7   22 1   
    16    8    9 ar  
    17    8   23 1   
    18    9   10 ar  
    19    9   24 1   
    20   10   11 ar  
    21   10   12 1   
    22   11   25 1   
    23   12   15 1   
    24   12   26 1   
    25   14   15 2   
    26   14   19 1   
    27   15   16 1   
    28   16   17 1   
    29   16   34 1   
    30   17   18 1   
    31   17   27 1   
    32   17   28 1   
    33   18   19 1   
    34   18   29 1   
    35   18   30 1   
    36   19   31 1   
    37   19   32 1   
@<TRIPOS>SUBSTRUCTURE
     1 K5E         1 TEMP              0 ****  ****    0 ROOT
