@<TRIPOS>MOLECULE
K5Q
   47    48     1     0     0
SMALL
bcc


@<TRIPOS>ATOM
      1 C1         -1.0020    0.5780    0.4870 c3        1 K5Q     -0.199000
      2 C2          3.9750    0.4890    1.3650 c1        1 K5Q     -0.273000
      3 C3          0.2930    0.8110    1.1480 c2        1 K5Q     -0.119000
      4 C4         -3.0740   -1.8680    2.3500 c3        1 K5Q     -0.120000
      5 C5          3.0130    0.6630    2.1100 c1        1 K5Q     -0.608000
      6 C6         -4.2620   -1.9630    1.5070 c1        1 K5Q     -0.304000
      7 C7          0.5750    0.5630    2.4460 c2        1 K5Q     -0.022000
      8 C8         -3.0130   -0.7240    3.3930 c3        1 K5Q      0.033000
      9 C9         -3.8480    0.4560    3.0180 c2        1 K5Q     -0.380000
     10 C10         1.9310    0.8740    2.9720 c2        1 K5Q      0.157000
     11 C11        -5.1080   -0.9060    1.3910 c2        1 K5Q     -0.171000
     12 C12        -4.8670    0.3180    2.0910 c2        1 K5Q      0.221000
     13 C13        -0.3730    0.0000    3.3450 cu        1 K5Q     -0.017000
     14 C14        -0.5660   -0.6050    4.6480 cu        1 K5Q     -0.120000
     15 C15        -1.6130   -0.4220    3.6700 cu        1 K5Q     -0.033000
     16 C16        -3.6810    1.7290    3.6690 c2        1 K5Q      0.372000
     17 C17       -10.5150   -0.3440   -4.0180 c1        1 K5Q      0.417000
     18 C18         2.0560    1.3720    4.2210 c2        1 K5Q     -0.372000
     19 C19        -5.8610    2.3090    2.8640 c3        1 K5Q      0.115000
     20 C20        -6.0320   -1.3760   -0.7130 c3        1 K5Q     -0.008000
     21 C22        -7.3400   -1.7560   -1.3130 c2        1 K5Q     -0.110000
     22 N23        -0.2180   -1.0430    5.8080 n2        1 K5Q     -0.060000
     23 O24        -4.6170    2.7370    3.3560 os        1 K5Q     -0.331000
     24 O25       -10.7120   -1.5140   -3.9280 o         1 K5Q     -0.208000
     25 O26        -2.8450    2.1750    4.4580 o         1 K5Q     -0.331000
     26 O27       -10.3470    0.8280   -4.1290 o         1 K5Q     -0.208000
     27 O28        -5.6900    1.3930    1.7960 os        1 K5Q     -0.238000
     28 O29        -6.2830   -0.9550    0.6310 os        1 K5Q     -0.223000
     29 O30         1.0270   -0.9600    6.2130 oh        1 K5Q     -0.265000
     30 H1         -1.8450    0.5040    1.2210 hc        1 K5Q      0.080333
     31 H2         -1.2280    1.4080   -0.2280 hc        1 K5Q      0.080333
     32 H3         -0.9650   -0.3790   -0.0950 hc        1 K5Q      0.080333
     33 H5          1.1020    1.2050    0.5060 ha        1 K5Q      0.145000
     34 H4         -2.1970   -1.7750    1.6460 hc        1 K5Q      0.090000
     35 H6         -2.9460   -2.8350    2.9070 hc        1 K5Q      0.090000
     36 H15        -3.4520   -1.1270    4.3590 hc        1 K5Q      0.082000
     37 H181        1.1940    1.5670    4.8690 ha        1 K5Q      0.092000
     38 H182        3.0340    1.6360    4.6330 ha        1 K5Q      0.092000
     39 H211       -8.4910   -2.2550   -3.0350 ha        1 K5Q      0.095500
     40 H212       -6.7130   -1.8480   -3.3500 ha        1 K5Q      0.095500
     41 H191       -5.5580   -0.5300   -1.2800 h1        1 K5Q      0.092500
     42 H192       -6.3620    3.2090    2.4180 h2        1 K5Q      0.081500
     43 H20        -6.4700    1.8390    3.6840 h2        1 K5Q      0.081500
     44 H221       -5.3290   -2.2560   -0.7060 h1        1 K5Q      0.092500
     45 H222       -8.1630   -1.8710   -0.5880 ha        1 K5Q      0.125000
     46 H30         1.6040   -0.4900    5.5710 ho        1 K5Q      0.208000
     47 C21        -7.5210   -1.9570   -2.6170 c2        1 K5Q     -0.299000
@<TRIPOS>BOND
     1    1    3 1   
     2    1   30 1   
     3    1   31 1   
     4    1   32 1   
     5    2    5 1   
     6    3    7 1   
     7    3   33 1   
     8    4    6 1   
     9    4    8 1   
    10    4   34 1   
    11    4   35 1   
    12    5   10 1   
    13    6   11 1   
    14    7   10 1   
    15    7   13 1   
    16    8    9 1   
    17    8   15 1   
    18    8   36 1   
    19    9   12 1   
    20    9   16 1   
    21   10   18 1   
    22   11   12 1   
    23   11   28 1   
    24   12   27 1   
    25   13   14 1   
    26   13   15 1   
    27   14   15 1   
    28   14   22 1   
    29   16   23 1   
    30   16   25 1   
    31   17   24 1   
    32   17   26 1   
    33   18   37 1   
    34   18   38 1   
    35   19   23 1   
    36   19   27 1   
    37   19   42 1   
    38   19   43 1   
    39   20   21 1   
    40   20   28 1   
    41   20   41 1   
    42   20   44 1   
    43   21   45 1   
    44   21   47 1   
    45   22   29 1   
    46   29   46 1   
    47   39   47 1   
    48   40   47 1   
@<TRIPOS>SUBSTRUCTURE
     1 K5Q         1 TEMP              0 ****  ****    0 ROOT
