@<TRIPOS>MOLECULE
K5Q
   47    48     1     0     0
SMALL
bcc


@<TRIPOS>ATOM
      1 C1          0.9210    2.7700    1.0900 c2        1 K5Q     -0.189000
      2 C2          2.9460   -1.4810    0.5030 c1        1 K5Q      0.127000
      3 C3          0.8200    1.7000    1.8150 c1        1 K5Q     -0.140000
      4 C4         -3.0320   -1.4450    3.1720 c3        1 K5Q     -0.087000
      5 C5          1.9120   -0.8080    0.9490 c2        1 K5Q     -0.414000
      6 C6         -3.9730   -1.9600    2.1520 c2        1 K5Q     -0.184000
      7 C7          0.7000    0.6320    2.5680 c2        1 K5Q      0.036000
      8 C8         -2.7620    0.0310    3.0730 c2        1 K5Q     -0.003000
      9 C9         -3.8870    0.8540    2.6130 c2        1 K5Q     -0.136000
     10 C10         1.5090   -0.5730    2.3310 c2        1 K5Q      0.017000
     11 C11        -4.8340   -1.1330    1.5180 c2        1 K5Q      0.019000
     12 C12        -4.8480    0.2960    1.8190 c2        1 K5Q      0.076000
     13 C13        -0.2810    0.6030    3.6930 c2        1 K5Q      0.245000
     14 C14         0.2260    0.6800    4.9450 c1        1 K5Q     -0.518000
     15 C15        -1.5860    0.5200    3.3600 c1        1 K5Q     -0.441000
     16 C16        -3.9670    2.2760    2.9960 c2        1 K5Q      0.371000
     17 C17        -9.3480   -1.4620   -2.6460 c2        1 K5Q      0.329000
     18 C18         1.8590   -1.4130    3.3170 c2        1 K5Q     -0.205000
     19 C19        -6.9280    0.4040    0.6970 c3        1 K5Q     -0.052000
     20 C20        -6.4440   -0.7360   -0.1880 c3        1 K5Q     -0.005000
     21 C22        -7.5930   -1.4970   -0.8370 c3        1 K5Q     -0.141000
     22 N23         0.6260    1.0990    6.0630 n2        1 K5Q      0.067000
     23 O24        -4.9970    2.9060    3.2740 o         1 K5Q     -0.360000
     24 O25       -10.2950   -1.6950   -1.8400 o         1 K5Q     -0.588500
     25 O26        -2.8490    3.0500    3.0640 oh        1 K5Q     -0.323000
     26 O27        -9.4080   -1.7040   -3.8860 o         1 K5Q     -0.588500
     27 O28        -5.8240    1.1090    1.2740 os        1 K5Q     -0.196000
     28 O29        -5.7210   -1.6930    0.6130 os        1 K5Q     -0.218000
     29 O30         1.1220    0.2340    6.9440 oh        1 K5Q     -0.316000
     30 H1         -2.0490    2.4870    3.0300 ho        1 K5Q      0.270000
     31 H2          1.6230    3.5800    1.3350 ha        1 K5Q      0.118500
     32 H3          0.2960    2.9390    0.2010 ha        1 K5Q      0.118500
     33 H5          1.2390   -0.3410    0.1920 ha        1 K5Q      0.204000
     34 H4         -2.0610   -2.0040    3.0950 hc        1 K5Q      0.082500
     35 H6         -3.9640   -3.0370    1.9440 ha        1 K5Q      0.126000
     36 H15        -3.4560   -1.6640    4.1930 hc        1 K5Q      0.082500
     37 H181        1.5440   -1.2360    4.3580 ha        1 K5Q      0.126500
     38 H182        2.4600   -2.3120    3.1340 ha        1 K5Q      0.126500
     39 H211       -8.2740    0.2600   -1.9050 hc        1 K5Q      0.062000
     40 H212       -7.2620   -0.8740   -2.8890 hc        1 K5Q      0.062000
     41 H191       -5.7340   -0.3390   -0.9660 h1        1 K5Q      0.092000
     42 H192       -7.5860    0.0190    1.5190 h1        1 K5Q      0.109000
     43 H20        -7.4640    1.1850    0.0990 h1        1 K5Q      0.109000
     44 H221       -8.4550   -1.5800   -0.1230 hc        1 K5Q      0.100500
     45 H222       -7.2500   -2.5400   -1.0670 hc        1 K5Q      0.100500
     46 H30         1.0540   -0.6940    6.6510 ho        1 K5Q      0.154000
     47 C21        -8.0580   -0.8210   -2.1040 c3        1 K5Q     -0.224000
@<TRIPOS>BOND
     1    1    3 1   
     2    1   31 1   
     3    1   32 1   
     4    2    5 1   
     5    3    7 1   
     6    4    6 1   
     7    4    8 1   
     8    4   34 1   
     9    4   36 1   
    10    5   10 1   
    11    5   33 1   
    12    6   11 1   
    13    6   35 1   
    14    7   10 1   
    15    7   13 1   
    16    8    9 1   
    17    8   15 1   
    18    9   12 1   
    19    9   16 1   
    20   10   18 1   
    21   11   12 1   
    22   11   28 1   
    23   12   27 1   
    24   13   14 1   
    25   13   15 1   
    26   14   22 1   
    27   16   23 1   
    28   16   25 1   
    29   17   24 1   
    30   17   26 1   
    31   17   47 1   
    32   18   37 1   
    33   18   38 1   
    34   19   20 1   
    35   19   27 1   
    36   19   42 1   
    37   19   43 1   
    38   20   21 1   
    39   20   28 1   
    40   20   41 1   
    41   21   44 1   
    42   21   45 1   
    43   21   47 1   
    44   22   29 1   
    45   25   30 1   
    46   29   46 1   
    47   39   47 1   
    48   40   47 1   
@<TRIPOS>SUBSTRUCTURE
     1 K5Q         1 TEMP              0 ****  ****    0 ROOT
