@<TRIPOS>MOLECULE
K5Q
   47    48     1     0     0
SMALL
bcc


@<TRIPOS>ATOM
      1 C1         -0.2630    1.7600    0.6440 c3        1 K5Q     -0.260000
      2 C2          4.4200    1.6340    3.1900 c1        1 K5Q      0.069000
      3 C3          0.8880    1.5640    1.5240 c2        1 K5Q      0.028000
      4 C4         -2.8980   -1.4470    1.2410 c3        1 K5Q     -0.085000
      5 C5          3.2640    1.1570    3.3430 c1        1 K5Q     -0.606000
      6 C6         -4.2910   -1.5580    0.7620 c2        1 K5Q     -0.223000
      7 C7          0.9020    0.7610    2.6160 c2        1 K5Q     -0.150000
      8 C8         -2.6110   -0.2520    2.1040 c2        1 K5Q      0.048000
      9 C9         -3.6380    0.7650    2.3130 c2        1 K5Q     -0.118000
     10 C10         2.0400    0.6460    3.5080 c2        1 K5Q      0.314000
     11 C11        -5.2140   -0.6170    1.0410 c2        1 K5Q      0.068000
     12 C12        -4.8900    0.5800    1.8180 c2        1 K5Q      0.064000
     13 C13        -0.2140   -0.0420    3.1480 c2        1 K5Q     -0.003000
     14 C14         0.2480   -0.6810    4.4050 c2        1 K5Q     -0.094000
     15 C15        -1.4100   -0.1400    2.6320 c1        1 K5Q     -0.094000
     16 C16        -3.2000    2.0480    3.0150 c2        1 K5Q      0.367000
     17 C17        -9.8910   -2.5800   -2.2870 c2        1 K5Q      0.326000
     18 C18         1.6490   -0.1790    4.7020 c3        1 K5Q     -0.177000
     19 C19        -5.8530    2.6900    1.3820 c3        1 K5Q     -0.085000
     20 C20        -6.8890   -1.7630   -0.0950 c1        1 K5Q     -0.038000
     21 C22        -8.3080   -1.7170   -0.5130 c3        1 K5Q     -0.229000
     22 N23        -0.4540   -1.5430    5.0910 n2        1 K5Q      0.032000
     23 O24        -3.3050    2.1380    4.2620 o         1 K5Q     -0.556000
     24 O25       -10.5880   -3.1160   -1.3770 o         1 K5Q     -0.592000
     25 O26        -2.7310    2.9670    2.2730 o         1 K5Q     -0.556000
     26 O27       -10.3010   -2.4190   -3.4750 o         1 K5Q     -0.592000
     27 O28        -5.9510    1.4360    2.0600 os        1 K5Q     -0.207000
     28 O29        -6.5420   -0.6640    0.5880 os        1 K5Q     -0.136000
     29 O30         0.0040   -2.0840    6.1780 oh        1 K5Q     -0.216000
     30 H1         -1.0950    2.2890    1.2150 hc        1 K5Q      0.129667
     31 H2          0.0040    2.3720   -0.2510 hc        1 K5Q      0.129667
     32 H3         -0.6890    0.7800    0.3080 hc        1 K5Q      0.129667
     33 H5          1.8020    2.1420    1.2890 ha        1 K5Q      0.128000
     34 H4         -2.2120   -1.4200    0.3480 hc        1 K5Q      0.093000
     35 H6         -4.5490   -2.4440    0.1620 ha        1 K5Q      0.164000
     36 H15        -2.6440   -2.3780    1.8230 hc        1 K5Q      0.093000
     37 H181        2.3710   -1.0220    4.8510 hc        1 K5Q      0.123500
     38 H182        1.6570    0.4660    5.6210 hc        1 K5Q      0.123500
     39 H211       -7.7720   -2.9750   -2.1980 hc        1 K5Q      0.069000
     40 H212       -8.1880   -1.2680   -2.6320 hc        1 K5Q      0.069000
     41 H191       -4.8690    3.1820    1.5880 h1        1 K5Q      0.083000
     42 H192       -6.6990    3.2840    1.8090 h1        1 K5Q      0.083000
     43 H20        -5.9980    2.5360    0.2850 h1        1 K5Q      0.083000
     44 H221       -8.8090   -0.7280   -0.3370 hc        1 K5Q      0.114000
     45 H222       -8.8570   -2.4820    0.1150 hc        1 K5Q      0.114000
     46 H30         0.8460   -1.6880    6.4880 ho        1 K5Q      0.168000
     47 C21        -8.4590   -2.1220   -1.9640 c3        1 K5Q     -0.196000
@<TRIPOS>BOND
     1    1    3 1   
     2    1   30 1   
     3    1   31 1   
     4    1   32 1   
     5    2    5 1   
     6    3    7 1   
     7    3   33 1   
     8    4    6 1   
     9    4    8 1   
    10    4   34 1   
    11    4   36 1   
    12    5   10 1   
    13    6   11 1   
    14    6   35 1   
    15    7   10 1   
    16    7   13 1   
    17    8    9 1   
    18    8   15 1   
    19    9   12 1   
    20    9   16 1   
    21   10   18 1   
    22   11   12 1   
    23   11   28 1   
    24   12   27 1   
    25   13   14 1   
    26   13   15 1   
    27   14   18 1   
    28   14   22 1   
    29   16   23 1   
    30   16   25 1   
    31   17   24 1   
    32   17   26 1   
    33   17   47 1   
    34   18   37 1   
    35   18   38 1   
    36   19   27 1   
    37   19   41 1   
    38   19   42 1   
    39   19   43 1   
    40   20   21 1   
    41   20   28 1   
    42   21   44 1   
    43   21   45 1   
    44   21   47 1   
    45   22   29 1   
    46   29   46 1   
    47   39   47 1   
    48   40   47 1   
@<TRIPOS>SUBSTRUCTURE
     1 K5Q         1 TEMP              0 ****  ****    0 ROOT
