@<TRIPOS>MOLECULE
K5Q
   47    50     1     0     0
SMALL
bcc


@<TRIPOS>ATOM
      1 C1         -2.7890   -3.7630    0.8020 ca        1 K5Q     -0.130000
      2 C2         -4.1010   -4.2240    0.7600 ca        1 K5Q     -0.159000
      3 C3         -2.4810   -2.4280    0.5090 ca        1 K5Q     -0.113000
      4 C4         -0.5690   -0.6850   -1.1630 ca        1 K5Q     -0.130000
      5 C5         -5.1480   -3.3500    0.4410 ca        1 K5Q     -0.129000
      6 C6          0.7830   -0.9570   -1.3110 ca        1 K5Q     -0.175000
      7 C7         -3.5060   -1.5580    0.1600 ca        1 K5Q     -0.002800
      8 C8         -1.0110    0.3810   -0.3620 ca        1 K5Q     -0.117800
      9 C9         -0.0850    1.2170    0.2920 ca        1 K5Q     -0.054600
     10 C10        -4.8490   -2.0310    0.1540 ca        1 K5Q     -0.107300
     11 C11         1.7160   -0.1510   -0.6420 ca        1 K5Q      0.072100
     12 C12         1.2830    0.9320    0.1480 ca        1 K5Q      0.058100
     13 C13        -3.4700   -0.1290   -0.1630 ce        1 K5Q     -0.203800
     14 C14        -4.8890    0.3000   -0.3140 ce        1 K5Q      0.431600
     15 C15        -2.4240    0.7130   -0.2980 cf        1 K5Q      0.054800
     16 C16        -0.5940    2.4040    1.1120 c         1 K5Q      0.921200
     17 C17         7.8230    0.1040   -0.0990 c         1 K5Q      0.908600
     18 C18        -5.7920   -0.9160   -0.1540 c3        1 K5Q     -0.097400
     19 C19         3.5190    1.6480    0.2740 c3        1 K5Q      0.092400
     20 C20         3.9500    0.1990    0.0750 c3        1 K5Q      0.103100
     21 C22         5.3410    0.0750   -0.5320 c3        1 K5Q     -0.062400
     22 N23        -5.2550    1.5280   -0.5680 n2        1 K5Q     -0.456200
     23 O24        -1.0540    3.3870    0.4640 o         1 K5Q     -0.818800
     24 O25         8.0750    0.8930   -1.0550 o         1 K5Q     -0.856300
     25 O26        -0.5710    2.3170    2.3660 o         1 K5Q     -0.818800
     26 O27         8.6760   -0.6910    0.3940 o         1 K5Q     -0.856300
     27 O28         2.1990    1.7280    0.8190 os        1 K5Q     -0.291900
     28 O29         3.0480   -0.4610   -0.8420 os        1 K5Q     -0.332900
     29 O30        -6.5580    1.7270   -0.6930 oh        1 K5Q     -0.383500
     30 H1         -1.9750   -4.4510    1.0740 ha        1 K5Q      0.122000
     31 H2         -4.3220   -5.2760    0.9870 ha        1 K5Q      0.110000
     32 H3         -1.4400   -2.0730    0.5730 ha        1 K5Q      0.169000
     33 H5         -6.1860   -3.7080    0.4280 ha        1 K5Q      0.113000
     34 H4         -1.3090   -1.3040   -1.6920 ha        1 K5Q      0.117000
     35 H6          1.1360   -1.7830   -1.9420 ha        1 K5Q      0.129000
     36 H15        -2.6070    1.8100   -0.3810 ha        1 K5Q      0.192000
     37 H181       -6.3670   -1.1010   -1.0960 hc        1 K5Q      0.060200
     38 H182       -6.5240   -0.7520    0.6760 hc        1 K5Q      0.060200
     39 H211        6.3140   -0.7490    1.2230 hc        1 K5Q      0.023700
     40 H212        6.3200    1.0590    1.1280 hc        1 K5Q      0.023700
     41 H191        4.1610    2.1550    1.0390 h1        1 K5Q      0.065200
     42 H192        3.5520    2.2050   -0.6980 h1        1 K5Q      0.065200
     43 H20         3.8860   -0.3520    1.0550 h1        1 K5Q      0.054700
     44 H221        5.4030   -0.8950   -1.0930 hc        1 K5Q      0.058200
     45 H222        5.5150    0.8980   -1.2750 hc        1 K5Q      0.058200
     46 H30        -6.6320    2.6940   -0.8090 ho        1 K5Q      0.427000
     47 C21         6.4160    0.1200    0.5260 c3        1 K5Q     -0.193400
@<TRIPOS>BOND
     1    1    2 ar  
     2    1    3 ar  
     3    1   30 1   
     4    2    5 ar  
     5    2   31 1   
     6    3    7 ar  
     7    3   32 1   
     8    4    6 ar  
     9    4    8 ar  
    10    4   34 1   
    11    5   10 ar  
    12    5   33 1   
    13    6   11 ar  
    14    6   35 1   
    15    7   10 ar  
    16    7   13 1   
    17    8    9 ar  
    18    8   15 1   
    19    9   12 ar  
    20    9   16 1   
    21   10   18 1   
    22   11   12 ar  
    23   11   28 1   
    24   12   27 1   
    25   13   14 1   
    26   13   15 2   
    27   14   18 1   
    28   14   22 2   
    29   15   36 1   
    30   16   23 1   
    31   16   25 1   
    32   17   24 1   
    33   17   26 1   
    34   17   47 1   
    35   18   37 1   
    36   18   38 1   
    37   19   20 1   
    38   19   27 1   
    39   19   41 1   
    40   19   42 1   
    41   20   21 1   
    42   20   28 1   
    43   20   43 1   
    44   21   44 1   
    45   21   45 1   
    46   21   47 1   
    47   22   29 1   
    48   29   46 1   
    49   39   47 1   
    50   40   47 1   
@<TRIPOS>SUBSTRUCTURE
     1 K5Q         1 TEMP              0 ****  ****    0 ROOT
