@<TRIPOS>MOLECULE
K5Q
   47    42     1     0     0
SMALL
bcc


@<TRIPOS>ATOM
      1 C1          5.0600   -1.2550    4.5510 c1        1 K5Q     -0.134250
      2 C2          6.1990   -0.9120    3.8140 c1        1 K5Q     -0.134250
      3 C3          3.8030   -1.2140    3.9520 c1        1 K5Q     -0.134250
      4 C4         -0.1690   -2.0570    0.0200 c1        1 K5Q     -0.099000
      5 C5          6.0780   -0.5300    2.4800 c1        1 K5Q     -0.134250
      6 C6         -1.2220   -1.8860   -0.9070 c1        1 K5Q     -0.178000
      7 C7          3.6790   -0.8310    2.6160 c1        1 K5Q      0.005000
      8 C8          0.1230   -1.0230    0.9830 c1        1 K5Q     -0.095000
      9 C9         -0.6440    0.1650    1.0020 c1        1 K5Q     -0.036000
     10 C10         4.8210   -0.4880    1.8780 c1        1 K5Q     -0.097000
     11 C11        -1.9730   -0.7300   -0.8930 c1        1 K5Q      0.031000
     12 C12        -1.6720    0.3370    0.1000 c1        1 K5Q      0.008000
     13 C13         2.5000   -0.8540    1.6700 c2        1 K5Q     -0.132000
     14 C14         2.9340   -0.2590    0.3940 c2        1 K5Q     -0.019000
     15 C15         1.2390   -1.2170    1.9860 c2        1 K5Q      0.038000
     16 C16        -0.7120    1.2270    2.0770 c2        1 K5Q      0.369000
     17 C17        -6.0670    1.1130   -4.8570 c1        1 K5Q      0.328000
     18 C18         4.3530    0.2140    0.5620 c3        1 K5Q     -0.108000
     19 C19        -3.5800    1.5500   -0.7040 c3        1 K5Q     -0.057000
     20 C20        -3.4290    0.8360   -1.9960 c3        1 K5Q     -0.008000
     21 C21        -4.7170    1.1610   -4.1780 c2        1 K5Q     -0.221000
     22 C22        -4.8740    0.8060   -2.7160 c3        1 K5Q     -0.141000
     23 N23         2.2140   -0.1600   -0.6910 n1        1 K5Q     -0.052000
     24 O24        -1.4670    1.0690    3.0710 o         1 K5Q     -0.558500
     25 O25        -6.4710    0.0420   -5.3820 o         1 K5Q     -0.591500
     26 O26        -0.0110    2.2690    1.9780 o         1 K5Q     -0.558500
     27 O27        -6.7690    2.1550   -4.9350 o         1 K5Q     -0.591500
     28 O28        -2.5380    1.5670    0.0820 os        1 K5Q     -0.176000
     29 O29        -2.9740   -0.4250   -1.9380 os        1 K5Q     -0.217000
     30 O30         2.7440    0.4180   -1.8130 o         1 K5Q     -0.283000
     31 H1          5.1440   -1.5080    5.4910 ha        1 K5Q      0.125500
     32 H2          7.0800   -0.9410    4.2350 ha        1 K5Q      0.125500
     33 H3          3.0130   -1.4910    4.4550 ha        1 K5Q      0.125500
     34 H5          6.8710   -0.2680    1.9730 ha        1 K5Q      0.125500
     35 H4          0.3620   -2.8760    0.0090 ha        1 K5Q      0.116000
     36 H6         -1.4320   -2.5960   -1.5440 ha        1 K5Q      0.126000
     37 H15         1.0500   -1.6170    2.8550 ha        1 K5Q      0.181000
     38 H181        4.4240    1.1840    0.4550 hc        1 K5Q      0.100000
     39 H182        4.9410   -0.0980   -0.1570 hc        1 K5Q      0.100000
     40 H211       -4.3440    2.0620   -4.2570 ha        1 K5Q      0.063000
     41 H212       -4.1140    0.5190   -4.6060 ha        1 K5Q      0.063000
     42 H191       -3.8270    2.4780   -0.8990 h1        1 K5Q      0.103000
     43 H192       -4.3200    1.1340   -0.2150 h1        1 K5Q      0.103000
     44 H20        -2.8190    1.3530   -2.5580 h1        1 K5Q      0.094000
     45 H221       -5.4660    1.4550   -2.2850 hc        1 K5Q      0.097500
     46 H222       -5.2590   -0.0900   -2.6370 hc        1 K5Q      0.097500
     47 H30         2.2420    0.2110   -2.5190 ho        1 K5Q      0.231000
@<TRIPOS>BOND
     1    1    3 1   
     2    1   31 1   
     3    2    5 1   
     4    2   32 1   
     5    3   33 1   
     6    4    8 1   
     7    4   35 1   
     8    5   34 1   
     9    6   11 1   
    10    6   36 1   
    11    7   10 1   
    12    7   13 1   
    13    8   15 1   
    14    9   12 1   
    15    9   16 1   
    16   10   18 1   
    17   11   29 1   
    18   12   28 1   
    19   13   14 1   
    20   13   15 1   
    21   14   18 1   
    22   14   23 1   
    23   15   37 1   
    24   16   24 1   
    25   16   26 1   
    26   17   25 1   
    27   17   27 1   
    28   18   38 1   
    29   18   39 1   
    30   19   20 1   
    31   19   28 1   
    32   19   42 1   
    33   19   43 1   
    34   20   22 1   
    35   20   29 1   
    36   20   44 1   
    37   21   22 1   
    38   21   40 1   
    39   21   41 1   
    40   22   45 1   
    41   22   46 1   
    42   30   47 1   
@<TRIPOS>SUBSTRUCTURE
     1 K5Q         1 TEMP              0 ****  ****    0 ROOT
