@<TRIPOS>MOLECULE
K62
   83    87     1     0     0
SMALL
bcc


@<TRIPOS>ATOM
      1 O45         8.1410   -2.9590    0.2020 o         1 K62     -0.522100
      2 C46         8.7390   -1.8780    0.1600 c         1 K62      0.574700
      3 C47        10.2300   -1.8070    0.0710 c3        1 K62     -0.198100
      4 C41         8.0130   -0.5850    0.2020 ca        1 K62     -0.144600
      5 C40         8.5610    0.5660   -0.3730 ca        1 K62     -0.118000
      6 C45         7.8510    1.7620   -0.3300 ca        1 K62     -0.115000
      7 C44         6.6050    1.8310    0.2870 ca        1 K62     -0.145000
      8 C42         6.7610   -0.5380    0.8190 ca        1 K62     -0.109000
      9 C43         6.0420    0.6760    0.8760 ca        1 K62      0.065600
     10 N24         4.8040    0.7680    1.5410 n         1 K62     -0.375000
     11 C26         4.1190   -0.3230    2.1080 c         1 K62      0.825600
     12 O27         4.4850   -1.4130    2.5390 o         1 K62     -0.567500
     13 O28         2.7640   -0.0240    2.2570 os        1 K62     -0.403900
     14 C25         3.8530    1.8250    1.2160 c3        1 K62      0.061000
     15 C29         2.4800    1.2680    1.6790 c3        1 K62      0.051100
     16 C21         1.4950    1.1670    0.5110 c         1 K62      0.650100
     17 O22         1.4560    2.0950   -0.3250 o         1 K62     -0.619100
     18 N20         0.6500    0.0910    0.4650 n         1 K62     -0.534900
     19 C19        -0.2640   -0.1360   -0.6320 c3        1 K62      0.080700
     20 C32        -0.1280   -1.5580   -1.2110 c3        1 K62     -0.057100
     21 C38         1.2060   -1.7910   -1.8260 ca        1 K62     -0.089300
     22 C37         2.1430   -2.6180   -1.1960 ca        1 K62     -0.124500
     23 C36         3.3870   -2.8450   -1.7820 ca        1 K62     -0.126500
     24 C35         3.7040   -2.2510   -3.0030 ca        1 K62     -0.128000
     25 C34         2.7730   -1.4270   -3.6370 ca        1 K62     -0.126500
     26 C33         1.5300   -1.1980   -3.0530 ca        1 K62     -0.124500
     27 C17        -1.7360    0.1240   -0.1970 c3        1 K62      0.105100
     28 O18        -2.2540   -0.9570    0.5480 oh        1 K62     -0.613800
     29 C16        -2.5860    0.4520   -1.4440 c3        1 K62      0.187800
     30 N11        -3.9620    0.7750   -1.1710 n3        1 K62     -0.803500
     31 C12        -4.2560    2.1590   -0.9100 c3        1 K62      0.230800
     32 C13        -4.2960    3.0810   -2.1420 c3        1 K62     -0.085700
     33 C15        -5.5730    2.8920   -2.9310 c3        1 K62     -0.098600
     34 C14        -4.1670    4.5180   -1.6810 c3        1 K62     -0.098600
     35 S8         -5.0830   -0.4150   -1.1380 sy        1 K62      1.515200
     36 O9         -6.0070   -0.2660   -2.1920 o         1 K62     -0.659800
     37 O10        -4.4030   -1.6570   -1.0970 o         1 K62     -0.659800
     38 C5         -5.9030   -0.1600    0.3130 ca        1 K62     -0.390500
     39 C6         -7.2100    0.3390    0.2990 ca        1 K62     -0.009000
     40 C7         -7.9680    0.5230    1.4650 ca        1 K62     -0.151000
     41 C4         -5.2800   -0.5060    1.5340 ca        1 K62     -0.004000
     42 C3         -6.0190   -0.3270    2.6810 ca        1 K62      0.024100
     43 O29        -5.6550   -0.5830    4.0020 os        1 K62     -0.325900
     44 C2         -7.3470    0.1810    2.6520 ca        1 K62      0.125100
     45 O19        -7.8400    0.2520    3.9420 os        1 K62     -0.327900
     46 C18        -6.7930   -0.2340    4.8220 c3        1 K62      0.319200
     47 H47        10.6810   -2.7950    0.3320 hc        1 K62      0.066033
     48 H47A       10.5280   -1.5450   -0.9740 hc        1 K62      0.066033
     49 H47B       10.6260   -1.0280    0.7660 hc        1 K62      0.066033
     50 H40         9.5460    0.5290   -0.8630 ha        1 K62      0.138000
     51 H45         8.2760    2.6690   -0.7860 ha        1 K62      0.140000
     52 H44         6.0720    2.7940    0.3120 ha        1 K62      0.140000
     53 H42         6.3490   -1.4660    1.2580 ha        1 K62      0.186000
     54 H25         4.1160    2.7490    1.7970 h1        1 K62      0.087200
     55 H25A        3.8450    2.0670    0.1180 h1        1 K62      0.087200
     56 H29         2.0190    1.8910    2.4910 h1        1 K62      0.108700
     57 HN20        0.7460   -0.6360    1.1380 hn        1 K62      0.337500
     58 H19        -0.0110    0.6080   -1.4490 h1        1 K62      0.089700
     59 H32        -0.3200   -2.3150   -0.4030 hc        1 K62      0.064200
     60 H32A       -0.9250   -1.6920   -1.9900 hc        1 K62      0.064200
     61 H37         1.8980   -3.0920   -0.2330 ha        1 K62      0.132000
     62 H36         4.1200   -3.4940   -1.2790 ha        1 K62      0.136500
     63 H35         4.6860   -2.4310   -3.4650 ha        1 K62      0.134000
     64 H34         3.0200   -0.9590   -4.6010 ha        1 K62      0.136500
     65 H33         0.7980   -0.5490   -3.5550 ha        1 K62      0.132000
     66 H17        -1.7740    0.9940    0.5220 h1        1 K62      0.085700
     67 HO18       -2.4610   -1.6810   -0.0660 ho        1 K62      0.432000
     68 H16        -2.0970    1.3190   -1.9740 h1        1 K62      0.067200
     69 H16A       -2.5620   -0.4390   -2.1400 h1        1 K62      0.067200
     70 H12        -5.2610    2.2130   -0.3950 h1        1 K62      0.049200
     71 H12A       -3.4840    2.5640   -0.1920 h1        1 K62      0.049200
     72 H13        -3.4220    2.8440   -2.8120 hc        1 K62      0.053700
     73 H15        -6.4580    3.2040   -2.3250 hc        1 K62      0.041200
     74 H15A       -5.5460    3.5160   -3.8570 hc        1 K62      0.041200
     75 H15B       -5.7070    1.8220   -3.2260 hc        1 K62      0.041200
     76 H14        -3.1840    4.6850   -1.1770 hc        1 K62      0.041200
     77 H14A       -4.2370    5.2070   -2.5560 hc        1 K62      0.041200
     78 H14B       -4.9820    4.7760   -0.9620 hc        1 K62      0.041200
     79 H6         -7.6740    0.5880   -0.6750 ha        1 K62      0.167000
     80 H7         -8.9940    0.9100    1.4330 ha        1 K62      0.165000
     81 H4         -4.2510   -0.9070    1.5560 ha        1 K62      0.193000
     82 H18        -7.1630   -1.1550    5.3360 h2        1 K62      0.079200
     83 H18A       -6.4980    0.5950    5.5120 h2        1 K62      0.079200
@<TRIPOS>BOND
     1    1    2 2   
     2    2    3 1   
     3    2    4 1   
     4    3   47 1   
     5    3   48 1   
     6    3   49 1   
     7    4    5 ar  
     8    4    8 ar  
     9    5    6 ar  
    10    5   50 1   
    11    6    7 ar  
    12    6   51 1   
    13    7    9 ar  
    14    7   52 1   
    15    8    9 ar  
    16    8   53 1   
    17    9   10 1   
    18   10   11 1   
    19   10   14 1   
    20   11   12 2   
    21   11   13 1   
    22   13   15 1   
    23   14   15 1   
    24   14   54 1   
    25   14   55 1   
    26   15   16 1   
    27   15   56 1   
    28   16   17 2   
    29   16   18 1   
    30   18   19 1   
    31   18   57 1   
    32   19   20 1   
    33   19   27 1   
    34   19   58 1   
    35   20   21 1   
    36   20   59 1   
    37   20   60 1   
    38   21   22 ar  
    39   21   26 ar  
    40   22   23 ar  
    41   22   61 1   
    42   23   24 ar  
    43   23   62 1   
    44   24   25 ar  
    45   24   63 1   
    46   25   26 ar  
    47   25   64 1   
    48   26   65 1   
    49   27   28 1   
    50   27   29 1   
    51   27   66 1   
    52   28   67 1   
    53   29   30 1   
    54   29   68 1   
    55   29   69 1   
    56   30   31 1   
    57   30   35 1   
    58   31   32 1   
    59   31   70 1   
    60   31   71 1   
    61   32   33 1   
    62   32   34 1   
    63   32   72 1   
    64   33   73 1   
    65   33   74 1   
    66   33   75 1   
    67   34   76 1   
    68   34   77 1   
    69   34   78 1   
    70   35   36 2   
    71   35   37 2   
    72   35   38 1   
    73   38   39 ar  
    74   38   41 ar  
    75   39   40 ar  
    76   39   79 1   
    77   40   44 ar  
    78   40   80 1   
    79   41   42 ar  
    80   41   81 1   
    81   42   43 1   
    82   42   44 ar  
    83   43   46 1   
    84   44   45 1   
    85   45   46 1   
    86   46   82 1   
    87   46   83 1   
@<TRIPOS>SUBSTRUCTURE
     1 K62         1 TEMP              0 ****  ****    0 ROOT
