@<TRIPOS>MOLECULE
K62
   85    88     1     0     0
SMALL
bcc


@<TRIPOS>ATOM
      1 O45        -2.4370   -1.3250   -2.8800 o         1 K62     -0.552100
      2 C46        -1.9480   -0.5850   -2.0140 c         1 K62      0.589700
      3 C47        -2.7170   -0.1560   -0.8120 c3        1 K62     -0.201100
      4 C41        -0.5530   -0.0910   -2.1540 ca        1 K62     -0.168600
      5 C40         0.0910    0.6150   -1.1340 ca        1 K62     -0.055000
      6 C45         1.4030    1.0570   -1.3110 ca        1 K62     -0.121000
      7 C44         2.0850    0.8050   -2.4970 ca        1 K62     -0.102000
      8 C42         0.1210   -0.3520   -3.3540 ca        1 K62     -0.048000
      9 C43         1.4440    0.0900   -3.5300 ca        1 K62     -0.028400
     10 N24         2.0950   -0.2160   -4.7620 n         1 K62     -0.357000
     11 C26         2.2150    0.7510   -5.7770 c         1 K62      0.791600
     12 O27         1.5420    1.6890   -6.1710 o         1 K62     -0.498500
     13 O28         3.3290    0.4370   -6.6070 os        1 K62     -0.436900
     14 C25         3.2990   -1.0430   -4.7430 c3        1 K62      0.046000
     15 C29         3.9840   -0.7280   -6.1060 c3        1 K62      0.065100
     16 C21         3.8040   -1.8890   -7.0790 c         1 K62      0.529100
     17 O22         4.5070   -2.8850   -7.1390 o         1 K62     -0.414100
     18 N20         2.6550   -1.7700   -8.0430 n4        1 K62     -0.671800
     19 C19         2.3770   -2.9960   -8.8700 c3        1 K62      0.093500
     20 C32         0.8830   -3.0860   -9.2200 c3        1 K62     -0.049100
     21 C38         0.0150   -2.8930   -8.0280 ca        1 K62     -0.180300
     22 C37        -0.6180   -1.6610   -7.8100 ca        1 K62     -0.133000
     23 C36        -1.4470   -1.4870   -6.7030 ca        1 K62     -0.114500
     24 C35        -1.6550   -2.5390   -5.8090 ca        1 K62     -0.092000
     25 C34        -1.0400   -3.7730   -6.0340 ca        1 K62     -0.114500
     26 C33        -0.2090   -3.9510   -7.1390 ca        1 K62     -0.133000
     27 C17         3.2880   -2.9960  -10.1310 c3        1 K62      0.119100
     28 O18         3.1750   -1.7760  -10.8270 oh        1 K62     -0.608800
     29 C16         2.9860   -4.2290  -10.9960 c3        1 K62      0.109800
     30 N11         3.8090   -4.3910  -12.1960 n3        1 K62     -0.903200
     31 C12         5.2330   -4.1140  -12.0360 c3        1 K62      0.119800
     32 C13         6.0100   -5.0370  -11.0870 c3        1 K62     -0.086700
     33 C15         5.9470   -6.4790  -11.5410 c3        1 K62     -0.103100
     34 C14         7.4470   -4.5630  -11.0160 c3        1 K62     -0.103100
     35 S8          2.7540   -3.3110  -14.1350 s4        1 K62      1.692300
     36 O9          2.2810   -4.5290  -14.5050 o         1 K62     -0.447900
     37 O10         2.0540   -2.4970  -13.2960 o         1 K62     -0.447900
     38 C5          3.9450   -2.7240  -14.9190 ca        1 K62     -0.646500
     39 C6          4.5700   -3.4580  -15.9700 ca        1 K62      0.064000
     40 C7          5.5930   -2.9550  -16.7590 ca        1 K62     -0.158000
     41 C4          4.4060   -1.3900  -14.6400 ca        1 K62      0.006000
     42 C3          5.4140   -0.8950  -15.4130 ca        1 K62      0.031100
     43 O29         6.0250    0.3490  -15.3510 os        1 K62     -0.304900
     44 C2          6.0130   -1.6540  -16.4760 ca        1 K62      0.246100
     45 O19         6.9730   -0.9120  -17.0790 os        1 K62     -0.269900
     46 C18         7.0130    0.3950  -16.4120 c3        1 K62      0.318200
     47 H47        -2.2490   -0.5790    0.1120 hc        1 K62      0.079700
     48 H47A       -2.7270    0.9590   -0.7360 hc        1 K62      0.079700
     49 H47B       -3.7720   -0.5220   -0.8750 hc        1 K62      0.079700
     50 H40        -0.4300    0.8270   -0.1860 ha        1 K62      0.162000
     51 H45         1.9040    1.6170   -0.5040 ha        1 K62      0.164000
     52 H44         3.1160    1.1720   -2.6180 ha        1 K62      0.144000
     53 H42        -0.4100   -0.9070   -4.1500 ha        1 K62      0.162000
     54 H25         3.9920   -0.7790   -3.8960 h1        1 K62      0.102200
     55 H25A        3.0050   -2.1220   -4.6470 h1        1 K62      0.102200
     56 H29         5.0830   -0.5060   -6.0200 h1        1 K62      0.157700
     57 HN20        2.8570   -0.9760   -8.6750 hn        1 K62      0.487300
     58 H19         2.6530   -3.8940   -8.2360 hx        1 K62      0.123700
     59 H32         0.7030   -4.1120   -9.6460 hc        1 K62      0.082200
     60 H32A        0.6310   -2.3340  -10.0150 hc        1 K62      0.082200
     61 H37        -0.4940   -0.8380   -8.5310 ha        1 K62      0.135000
     62 H36        -1.9500   -0.5200   -6.5400 ha        1 K62      0.163000
     63 H35        -2.3090   -2.3950   -4.9280 ha        1 K62      0.190000
     64 H34        -1.2230   -4.6110   -5.3420 ha        1 K62      0.163000
     65 H33         0.2550   -4.9320   -7.3210 ha        1 K62      0.135000
     66 H17         4.3670   -3.0220   -9.7840 h1        1 K62      0.107700
     67 HO18        2.3270   -1.7600  -11.2990 ho        1 K62      0.444000
     68 H16         3.0750   -5.1340  -10.3260 h1        1 K62      0.080200
     69 H16A        1.9180   -4.1620  -11.3630 h1        1 K62      0.080200
     70 H12         5.6950   -4.1980  -13.0630 h1        1 K62      0.070200
     71 H12A        5.3510   -3.0460  -11.6930 h1        1 K62      0.070200
     72 H13         5.5570   -4.9630  -10.0580 hc        1 K62      0.046700
     73 H15         6.2580   -6.5750  -12.6090 hc        1 K62      0.051867
     74 H15A        6.6380   -7.1030  -10.9220 hc        1 K62      0.051867
     75 H15B        4.9170   -6.8950  -11.4260 hc        1 K62      0.051867
     76 H14         8.0170   -5.1880  -10.2850 hc        1 K62      0.051867
     77 H14A        7.4970   -3.4980  -10.6850 hc        1 K62      0.051867
     78 H14B        7.9420   -4.6520  -12.0130 hc        1 K62      0.051867
     79 H6          4.2070   -4.4860  -16.1800 ha        1 K62      0.183000
     80 H7          6.0490   -3.5420  -17.5730 ha        1 K62      0.210000
     81 H4          3.9450   -0.7950  -13.8320 ha        1 K62      0.191000
     82 H18         6.7170    1.1740  -17.1590 h2        1 K62      0.123200
     83 H18A        8.0290    0.5200  -15.9600 h2        1 K62      0.123200
     84 H202        1.8040   -1.5300   -7.4990 hn        1 K62      0.487300
     85 H111        3.7070   -5.3600  -12.4850 hn        1 K62      0.405800
@<TRIPOS>BOND
     1    1    2 2   
     2    2    3 1   
     3    2    4 1   
     4    3   47 1   
     5    3   48 1   
     6    3   49 1   
     7    4    5 ar  
     8    4    8 ar  
     9    5    6 ar  
    10    5   50 1   
    11    6    7 ar  
    12    6   51 1   
    13    7    9 ar  
    14    7   52 1   
    15    8    9 ar  
    16    8   53 1   
    17    9   10 1   
    18   10   11 1   
    19   10   14 1   
    20   11   12 2   
    21   11   13 1   
    22   13   15 1   
    23   14   15 1   
    24   14   54 1   
    25   14   55 1   
    26   15   16 1   
    27   15   56 1   
    28   16   17 2   
    29   16   18 1   
    30   18   19 1   
    31   18   57 1   
    32   18   84 1   
    33   19   20 1   
    34   19   27 1   
    35   19   58 1   
    36   20   21 1   
    37   20   59 1   
    38   20   60 1   
    39   21   22 ar  
    40   21   26 ar  
    41   22   23 ar  
    42   22   61 1   
    43   23   24 ar  
    44   23   62 1   
    45   24   25 ar  
    46   24   63 1   
    47   25   26 ar  
    48   25   64 1   
    49   26   65 1   
    50   27   28 1   
    51   27   29 1   
    52   27   66 1   
    53   28   67 1   
    54   29   30 1   
    55   29   68 1   
    56   29   69 1   
    57   30   31 1   
    58   30   85 1   
    59   31   32 1   
    60   31   70 1   
    61   31   71 1   
    62   32   33 1   
    63   32   34 1   
    64   32   72 1   
    65   33   73 1   
    66   33   74 1   
    67   33   75 1   
    68   34   76 1   
    69   34   77 1   
    70   34   78 1   
    71   35   36 1   
    72   35   37 1   
    73   35   38 1   
    74   38   39 ar  
    75   38   41 ar  
    76   39   40 ar  
    77   39   79 1   
    78   40   44 ar  
    79   40   80 1   
    80   41   42 ar  
    81   41   81 1   
    82   42   43 1   
    83   42   44 ar  
    84   43   46 1   
    85   44   45 1   
    86   45   46 1   
    87   46   82 1   
    88   46   83 1   
@<TRIPOS>SUBSTRUCTURE
     1 K62         1 TEMP              0 ****  ****    0 ROOT
