@<TRIPOS>MOLECULE
K62
   85    88     1     0     0
SMALL
bcc


@<TRIPOS>ATOM
      1 O45        -2.4020   -1.4600   -2.8330 o         1 K62     -0.552100
      2 C46        -1.9330   -0.6920   -1.9820 c         1 K62      0.589700
      3 C47        -2.7070   -0.2780   -0.7760 c3        1 K62     -0.201100
      4 C41        -0.5600   -0.1460   -2.1420 ca        1 K62     -0.168600
      5 C40         0.0660    0.5970   -1.1370 ca        1 K62     -0.055000
      6 C45         1.3580    1.0880   -1.3330 ca        1 K62     -0.121000
      7 C44         2.0380    0.8470   -2.5230 ca        1 K62     -0.102000
      8 C42         0.1120   -0.3960   -3.3450 ca        1 K62     -0.048000
      9 C43         1.4150    0.0950   -3.5400 ca        1 K62     -0.028400
     10 N24         2.0650   -0.2010   -4.7750 n         1 K62     -0.357000
     11 C26         2.1420    0.7590   -5.8020 c         1 K62      0.791600
     12 O27         1.4320    1.6680   -6.1990 o         1 K62     -0.498500
     13 O28         3.2590    0.4750   -6.6380 os        1 K62     -0.436900
     14 C25         3.2980   -0.9840   -4.7590 c3        1 K62      0.046000
     15 C29         3.9590   -0.6600   -6.1310 c3        1 K62      0.065100
     16 C21         3.8120   -1.8370   -7.0900 c         1 K62      0.529100
     17 O22         4.5510   -2.8070   -7.1480 o         1 K62     -0.414100
     18 N20         2.6490   -1.7690   -8.0430 ny        1 K62     -0.671800
     19 C19         2.4090   -3.0130   -8.8560 c3        1 K62      0.093500
     20 C32         0.9150   -3.1630   -9.1890 c3        1 K62     -0.049100
     21 C38         0.0530   -2.9910   -7.9890 ca        1 K62     -0.180300
     22 C37        -0.6230   -1.7820   -7.7760 ca        1 K62     -0.133000
     23 C36        -1.4460   -1.6290   -6.6620 ca        1 K62     -0.114500
     24 C35        -1.6050   -2.6790   -5.7550 ca        1 K62     -0.092000
     25 C34        -0.9460   -3.8910   -5.9750 ca        1 K62     -0.114500
     26 C33        -0.1210   -4.0480   -7.0880 ca        1 K62     -0.133000
     27 C17         3.3050   -2.9890  -10.1270 c3        1 K62      0.119100
     28 O18         3.1390   -1.7800  -10.8320 oh        1 K62     -0.608800
     29 C16         3.0400   -4.2400  -10.9790 c3        1 K62      0.109800
     30 N11         3.8550   -4.3810  -12.1870 n7        1 K62     -0.903200
     31 C12         5.2700   -4.0500  -12.0450 c3        1 K62      0.119800
     32 C13         6.0900   -4.9360  -11.0980 c3        1 K62     -0.086700
     33 C15         6.0760   -6.3830  -11.5400 c3        1 K62     -0.103100
     34 C14         7.5100   -4.4090  -11.0460 c3        1 K62     -0.103100
     35 S8          2.7400   -3.3560  -14.1220 s4        1 K62      1.692300
     36 O9          2.3110   -4.5940  -14.4780 o         1 K62     -0.447900
     37 O10         2.0170   -2.5630  -13.2820 o         1 K62     -0.447900
     38 C5          3.9000   -2.7290  -14.9230 ca        1 K62     -0.646500
     39 C6          4.5410   -3.4460  -15.9760 ca        1 K62      0.064000
     40 C7          5.5360   -2.9100  -16.7780 ca        1 K62     -0.158000
     41 C4          4.3120   -1.3770  -14.6570 ca        1 K62      0.006000
     42 C3          5.2920   -0.8490  -15.4440 ca        1 K62      0.031100
     43 O29         5.8550    0.4170  -15.3970 os        1 K62     -0.304900
     44 C2          5.9090   -1.5920  -16.5090 ca        1 K62      0.246100
     45 O19         6.8330   -0.8180  -17.1260 os        1 K62     -0.269900
     46 C18         6.8300    0.4940  -16.4680 c3        1 K62      0.318200
     47 H47        -2.2130   -0.6700    0.1470 hc        1 K62      0.079700
     48 H47A       -3.7480   -0.6850   -0.8240 hc        1 K62      0.079700
     49 H47B       -2.7590    0.8370   -0.7140 hc        1 K62      0.079700
     50 H40        -0.4540    0.8020   -0.1860 ha        1 K62      0.162000
     51 H45         1.8450    1.6770   -0.5380 ha        1 K62      0.164000
     52 H44         3.0530    1.2520   -2.6590 ha        1 K62      0.144000
     53 H42        -0.4050   -0.9800   -4.1290 ha        1 K62      0.162000
     54 H25         3.0440   -2.0710   -4.6490 h1        1 K62      0.102200
     55 H25A        3.9880   -0.6870   -3.9210 h1        1 K62      0.102200
     56 H29         5.0510   -0.3980   -6.0580 h1        1 K62      0.157700
     57 HN20        1.7960   -1.5580   -7.4910 hn        1 K62      0.487300
     58 H19         2.7250   -3.8940   -8.2180 hx        1 K62      0.123700
     59 H32         0.6270   -2.4290   -9.9880 hc        1 K62      0.082200
     60 H32A        0.7700   -4.1990   -9.6030 hc        1 K62      0.082200
     61 H37        -0.5390   -0.9620   -8.5050 ha        1 K62      0.135000
     62 H36        -1.9840   -0.6800   -6.5020 ha        1 K62      0.163000
     63 H35        -2.2550   -2.5510   -4.8690 ha        1 K62      0.190000
     64 H34        -1.0890   -4.7290   -5.2740 ha        1 K62      0.163000
     65 H33         0.3790   -5.0120   -7.2660 ha        1 K62      0.135000
     66 H17         4.3880   -2.9720   -9.7930 h1        1 K62      0.107700
     67 HO18        2.2850   -1.8000  -11.2940 ho        1 K62      0.444000
     68 H16         3.1710   -5.1360  -10.3030 h1        1 K62      0.080200
     69 H16A        1.9670   -4.2170  -11.3340 h1        1 K62      0.080200
     70 H12         5.7230   -4.1260  -13.0770 h1        1 K62      0.070200
     71 H12A        5.3530   -2.9760  -11.7120 h1        1 K62      0.070200
     72 H13         5.6460   -4.8710  -10.0650 hc        1 K62      0.046700
     73 H15         6.7970   -6.9770  -10.9240 hc        1 K62      0.051867
     74 H15A        5.0640   -6.8370  -11.4120 hc        1 K62      0.051867
     75 H15B        6.3790   -6.4760  -12.6110 hc        1 K62      0.051867
     76 H14         7.5240   -3.3400  -10.7240 hc        1 K62      0.051867
     77 H14A        8.1110   -5.0070  -10.3180 hc        1 K62      0.051867
     78 H14B        7.9970   -4.4870  -12.0480 hc        1 K62      0.051867
     79 H6          4.2150   -4.4890  -16.1750 ha        1 K62      0.183000
     80 H7          6.0050   -3.4850  -17.5940 ha        1 K62      0.210000
     81 H4          3.8370   -0.7940  -13.8480 ha        1 K62      0.191000
     82 H18         7.8450    0.6610  -16.0280 h2        1 K62      0.123200
     83 H18A        6.4960    1.2560  -17.2170 h2        1 K62      0.123200
     84 H202        2.8140   -0.9740   -8.6830 hn        1 K62      0.487300
     85 H111        3.7870   -5.3550  -12.4680 hn        1 K62      0.405800
@<TRIPOS>BOND
     1    1    2 2   
     2    2    3 1   
     3    2    4 1   
     4    3   47 1   
     5    3   48 1   
     6    3   49 1   
     7    4    5 ar  
     8    4    8 ar  
     9    5    6 ar  
    10    5   50 1   
    11    6    7 ar  
    12    6   51 1   
    13    7    9 ar  
    14    7   52 1   
    15    8    9 ar  
    16    8   53 1   
    17    9   10 1   
    18   10   11 1   
    19   10   14 1   
    20   11   12 2   
    21   11   13 1   
    22   13   15 1   
    23   14   15 1   
    24   14   54 1   
    25   14   55 1   
    26   15   16 1   
    27   15   56 1   
    28   16   17 2   
    29   16   18 1   
    30   18   19 1   
    31   18   57 1   
    32   18   84 1   
    33   19   20 1   
    34   19   27 1   
    35   19   58 1   
    36   20   21 1   
    37   20   59 1   
    38   20   60 1   
    39   21   22 ar  
    40   21   26 ar  
    41   22   23 ar  
    42   22   61 1   
    43   23   24 ar  
    44   23   62 1   
    45   24   25 ar  
    46   24   63 1   
    47   25   26 ar  
    48   25   64 1   
    49   26   65 1   
    50   27   28 1   
    51   27   29 1   
    52   27   66 1   
    53   28   67 1   
    54   29   30 1   
    55   29   68 1   
    56   29   69 1   
    57   30   31 1   
    58   30   85 1   
    59   31   32 1   
    60   31   70 1   
    61   31   71 1   
    62   32   33 1   
    63   32   34 1   
    64   32   72 1   
    65   33   73 1   
    66   33   74 1   
    67   33   75 1   
    68   34   76 1   
    69   34   77 1   
    70   34   78 1   
    71   35   36 1   
    72   35   37 1   
    73   35   38 1   
    74   38   39 ar  
    75   38   41 ar  
    76   39   40 ar  
    77   39   79 1   
    78   40   44 ar  
    79   40   80 1   
    80   41   42 ar  
    81   41   81 1   
    82   42   43 1   
    83   42   44 ar  
    84   43   46 1   
    85   44   45 1   
    86   45   46 1   
    87   46   82 1   
    88   46   83 1   
@<TRIPOS>SUBSTRUCTURE
     1 K62         1 TEMP              0 ****  ****    0 ROOT
