@<TRIPOS>MOLECULE
K62
   85    88     1     0     0
SMALL
bcc


@<TRIPOS>ATOM
      1 O45        -2.3710   -2.5100   -2.7260 o         1 K62     -0.551100
      2 C46        -1.9930   -1.9490   -1.6880 c         1 K62      0.589700
      3 C47        -2.8160   -1.9450   -0.4440 c3        1 K62     -0.201100
      4 C41        -0.6840   -1.2460   -1.6500 ca        1 K62     -0.168600
      5 C40        -0.1400   -0.7530   -0.4610 ca        1 K62     -0.055000
      6 C45         1.0940   -0.1000   -0.4740 ca        1 K62     -0.122000
      7 C44         1.7960    0.0690   -1.6640 ca        1 K62     -0.103000
      8 C42         0.0120   -1.0830   -2.8550 ca        1 K62     -0.047000
      9 C43         1.2560   -0.4290   -2.8680 ca        1 K62     -0.029400
     10 N24         1.9340   -0.3010   -4.1170 n         1 K62     -0.357000
     11 C26         1.9230    0.9190   -4.8210 c         1 K62      0.788600
     12 O27         1.1290    1.8350   -4.9600 o         1 K62     -0.493500
     13 O28         3.0680    0.9960   -5.6630 os        1 K62     -0.432900
     14 C25         3.2410   -0.9320   -4.2790 c3        1 K62      0.044000
     15 C29         3.8750   -0.1660   -5.4780 c3        1 K62      0.064100
     16 C21         3.8480   -1.0260   -6.7380 c         1 K62      0.529100
     17 O22         4.7020   -1.8350   -7.0660 o         1 K62     -0.420100
     18 N20         2.6600   -0.8390   -7.6370 n4        1 K62     -0.673800
     19 C19         2.5570   -1.8110   -8.7840 c3        1 K62      0.141500
     20 C32         1.0860   -1.9880   -9.2010 c3        1 K62     -0.049100
     21 C38         0.2030   -2.2510   -8.0340 ca        1 K62     -0.180300
     22 C37        -0.6000   -1.2270   -7.5150 ca        1 K62     -0.133000
     23 C36        -1.4380   -1.4780   -6.4290 ca        1 K62     -0.116500
     24 C35        -1.4850   -2.7510   -5.8570 ca        1 K62     -0.093000
     25 C34        -0.7000   -3.7780   -6.3850 ca        1 K62     -0.116500
     26 C33         0.1400   -3.5310   -7.4690 ca        1 K62     -0.133000
     27 C17         3.4430   -1.3520   -9.9720 c3        1 K62      0.098100
     28 O18         3.0640   -0.0150  -10.2580 oh        1 K62     -0.607800
     29 C16         3.2130   -2.2640  -11.1920 c3        1 K62      0.097800
     30 N11         4.1340   -2.1020  -12.3060 n3        1 K62     -0.898200
     31 C12         5.5390   -2.4090  -12.0420 c3        1 K62      0.126800
     32 C13         5.8450   -3.6550  -11.2020 c3        1 K62     -0.069700
     33 C15         5.4150   -4.9330  -11.8850 c3        1 K62     -0.106100
     34 C14         7.3380   -3.6870  -10.9280 c3        1 K62     -0.106100
     35 S8          2.9510   -3.1930  -14.2650 s4        1 K62      1.685300
     36 O9          2.5330   -4.1960  -13.4500 o         1 K62     -0.433900
     37 O10         2.2760   -2.0190  -14.3630 o         1 K62     -0.433900
     38 C5          4.0630   -3.4890  -15.2900 ca        1 K62     -0.649500
     39 C6          4.7140   -4.7560  -15.3420 ca        1 K62      0.066000
     40 C7          5.6660   -5.0940  -16.2910 ca        1 K62     -0.162000
     41 C4          4.4170   -2.4900  -16.2640 ca        1 K62      0.003000
     42 C3          5.3560   -2.8200  -17.1950 ca        1 K62      0.033100
     43 O29         5.8620   -2.0470  -18.2290 os        1 K62     -0.300900
     44 C2          5.9860   -4.1120  -17.2290 ca        1 K62      0.247100
     45 O19         6.8610   -4.1620  -18.2610 os        1 K62     -0.270900
     46 C18         6.8130   -2.8680  -18.9530 c3        1 K62      0.319200
     47 H47        -2.9770   -0.8970   -0.0900 hc        1 K62      0.079033
     48 H47A       -2.2960   -2.5250    0.3580 hc        1 K62      0.079033
     49 H47B       -3.8120   -2.4170   -0.6370 hc        1 K62      0.079033
     50 H40        -0.6800   -0.8740    0.4930 ha        1 K62      0.161000
     51 H45         1.5160    0.2910    0.4660 ha        1 K62      0.163000
     52 H44         2.7630    0.5970   -1.6530 ha        1 K62      0.145000
     53 H42        -0.4410   -1.4750   -3.7850 ha        1 K62      0.163000
     54 H25         3.1000   -2.0250   -4.4920 h1        1 K62      0.100700
     55 H25A        3.8920   -0.8230   -3.3670 h1        1 K62      0.100700
     56 H29         4.9340    0.1650   -5.2960 h1        1 K62      0.157700
     57 HN20        2.6920    0.1240   -8.0150 hn        1 K62      0.491300
     58 H19         2.9590   -2.8030   -8.4150 hx        1 K62      0.116700
     59 H32         0.7460   -1.0750   -9.7620 hc        1 K62      0.090700
     60 H32A        1.0430   -2.8630   -9.9060 hc        1 K62      0.090700
     61 H37        -0.6000   -0.2300   -7.9840 ha        1 K62      0.136500
     62 H36        -2.0760   -0.6720   -6.0300 ha        1 K62      0.161500
     63 H35        -2.1460   -2.9430   -4.9910 ha        1 K62      0.189000
     64 H34        -0.7550   -4.7890   -5.9500 ha        1 K62      0.161500
     65 H33         0.7410   -4.3510   -7.8930 ha        1 K62      0.136500
     66 H17         4.5260   -1.3930   -9.6540 h1        1 K62      0.069700
     67 HO18        3.7260    0.3680  -10.8480 ho        1 K62      0.436000
     68 H16         2.1790   -2.0430  -11.5950 h1        1 K62      0.096200
     69 H16A        3.2440   -3.3390  -10.8560 h1        1 K62      0.096200
     70 H12         6.0310   -2.5280  -13.0510 h1        1 K62      0.059700
     71 H12A        6.0350   -1.5300  -11.5310 h1        1 K62      0.059700
     72 H13         5.3100   -3.5730  -10.2130 hc        1 K62      0.047700
     73 H15         5.6970   -5.8130  -11.2550 hc        1 K62      0.051033
     74 H15A        4.3080   -4.9590  -12.0420 hc        1 K62      0.051033
     75 H15B        5.9240   -5.0390  -12.8740 hc        1 K62      0.051033
     76 H14         7.9150   -3.7440  -11.8820 hc        1 K62      0.051033
     77 H14A        7.6590   -2.7730  -10.3720 hc        1 K62      0.051033
     78 H14B        7.5900   -4.5830  -10.3100 hc        1 K62      0.051033
     79 H6          4.4340   -5.5180  -14.5840 ha        1 K62      0.179000
     80 H7          6.1440   -6.0880  -16.3140 ha        1 K62      0.208000
     81 H4          3.9270   -1.4990  -16.2590 ha        1 K62      0.197000
     82 H18         6.4330   -3.0450  -19.9910 h2        1 K62      0.124200
     83 H18A        7.8270   -2.4010  -18.8820 h2        1 K62      0.124200
     84 H202        1.8020   -0.9160   -7.0590 hn        1 K62      0.491300
     85 H111        4.0820   -1.1430  -12.6260 hn        1 K62      0.383800
@<TRIPOS>BOND
     1    1    2 2   
     2    2    3 1   
     3    2    4 1   
     4    3   47 1   
     5    3   48 1   
     6    3   49 1   
     7    4    5 ar  
     8    4    8 ar  
     9    5    6 ar  
    10    5   50 1   
    11    6    7 ar  
    12    6   51 1   
    13    7    9 ar  
    14    7   52 1   
    15    8    9 ar  
    16    8   53 1   
    17    9   10 1   
    18   10   11 1   
    19   10   14 1   
    20   11   12 2   
    21   11   13 1   
    22   13   15 1   
    23   14   15 1   
    24   14   54 1   
    25   14   55 1   
    26   15   16 1   
    27   15   56 1   
    28   16   17 2   
    29   16   18 1   
    30   18   19 1   
    31   18   57 1   
    32   18   84 1   
    33   19   20 1   
    34   19   27 1   
    35   19   58 1   
    36   20   21 1   
    37   20   59 1   
    38   20   60 1   
    39   21   22 ar  
    40   21   26 ar  
    41   22   23 ar  
    42   22   61 1   
    43   23   24 ar  
    44   23   62 1   
    45   24   25 ar  
    46   24   63 1   
    47   25   26 ar  
    48   25   64 1   
    49   26   65 1   
    50   27   28 1   
    51   27   29 1   
    52   27   66 1   
    53   28   67 1   
    54   29   30 1   
    55   29   68 1   
    56   29   69 1   
    57   30   31 1   
    58   30   85 1   
    59   31   32 1   
    60   31   70 1   
    61   31   71 1   
    62   32   33 1   
    63   32   34 1   
    64   32   72 1   
    65   33   73 1   
    66   33   74 1   
    67   33   75 1   
    68   34   76 1   
    69   34   77 1   
    70   34   78 1   
    71   35   36 1   
    72   35   37 1   
    73   35   38 1   
    74   38   39 ar  
    75   38   41 ar  
    76   39   40 ar  
    77   39   79 1   
    78   40   44 ar  
    79   40   80 1   
    80   41   42 ar  
    81   41   81 1   
    82   42   43 1   
    83   42   44 ar  
    84   43   46 1   
    85   44   45 1   
    86   45   46 1   
    87   46   82 1   
    88   46   83 1   
@<TRIPOS>SUBSTRUCTURE
     1 K62         1 TEMP              0 ****  ****    0 ROOT
