@<TRIPOS>MOLECULE
K62
   83    79     1     0     0
SMALL
bcc


@<TRIPOS>ATOM
      1 O45        -1.5710   -1.6850    9.5220 o         1 K62     -0.284000
      2 C46        -0.3670   -1.9000    9.7470 c1        1 K62      0.266000
      3 C47         0.2500   -1.4590   11.0610 c2        1 K62     -0.266000
      4 C41         0.4920   -2.5470    8.6910 c2        1 K62     -0.124000
      5 C40         1.0350   -3.8050    8.9170 c2        1 K62     -0.118000
      6 C45         1.7480   -4.4420    7.9150 c1        1 K62     -0.115000
      7 C44         1.9210   -3.8240    6.6820 c1        1 K62     -0.145000
      8 C42         0.6660   -1.9230    7.4510 c1        1 K62     -0.110000
      9 C43         1.3790   -2.5630    6.4500 c1        1 K62      0.073000
     10 N24         1.6280   -1.8860    5.1880 n         1 K62     -0.279000
     11 C26         2.4650   -0.7480    5.0020 c2        1 K62      0.394000
     12 O27         3.3280   -0.3830    5.7490 o         1 K62     -0.294000
     13 O28         2.2050   -0.2210    3.7100 os        1 K62     -0.245000
     14 C25         1.0960   -2.2590    3.9110 c3        1 K62     -0.055000
     15 C29         1.6600   -1.2790    2.8980 c3        1 K62     -0.011000
     16 C21         0.6210   -0.7920    1.8480 c2        1 K62      0.291000
     17 O22        -0.4190   -1.4170    1.6790 o         1 K62     -0.361000
     18 N20         0.9250    0.3610    1.0070 n         1 K62     -0.349000
     19 C19         0.0410    0.7160   -0.0730 c3        1 K62     -0.007000
     20 C32        -0.4800    2.1450    0.1390 c3        1 K62     -0.140000
     21 C38        -1.6450    2.1200    1.1650 c2        1 K62     -0.088000
     22 C37        -2.9030    1.6390    0.7790 c2        1 K62     -0.125000
     23 C36        -3.9940    1.7580    1.6460 c1        1 K62     -0.129000
     24 C35        -3.8310    2.3510    2.8870 c1        1 K62     -0.125000
     25 C34        -2.5780    2.8300    3.2720 c1        1 K62     -0.125000
     26 C33        -1.4830    2.7110    2.4030 c1        1 K62     -0.130000
     27 C17         0.7760    0.6420   -1.3680 c3        1 K62     -0.014000
     28 O18         1.9500    1.3590   -1.2700 oh        1 K62     -0.327000
     29 C16        -0.1180    1.2460   -2.5170 c3        1 K62     -0.008000
     30 N11         0.5260    1.0140   -3.8130 n3        1 K62     -0.822000
     31 C12         0.8630    2.1540   -4.6830 c3        1 K62     -0.025000
     32 C13        -0.3380    3.1040   -4.7830 c3        1 K62     -0.120000
     33 C15         0.1490    4.5490   -4.6960 c3        1 K62     -0.212500
     34 C14        -1.0640    2.8850   -6.1470 c3        1 K62     -0.212500
     35 S8          1.0010   -0.5190   -4.2400 s4        1 K62      2.059800
     36 O9          2.3990   -0.6960   -4.0560 o         1 K62     -0.540900
     37 O10         0.4720   -1.5020   -3.3280 o         1 K62     -0.540900
     38 C5          0.5170   -0.8730   -5.9200 c1        1 K62     -0.822000
     39 C6          1.3750   -0.5460   -6.9790 c2        1 K62     -0.005000
     40 C7          1.0550   -0.9410   -8.2850 c1        1 K62     -0.147000
     41 C4         -0.6640   -1.5990   -6.1690 c1        1 K62     -0.017000
     42 C3         -0.9820   -1.9940   -7.4760 c1        1 K62      0.029500
     43 O29        -2.1450   -2.6310   -8.0290 os        1 K62     -0.210500
     44 C2         -0.1260   -1.6670   -8.5330 c1        1 K62      0.029500
     45 O19        -0.8160   -1.9650   -9.7650 os        1 K62     -0.210500
     46 C18        -2.0020   -2.6490   -9.4400 c3        1 K62      0.097000
     47 H47         1.1840   -1.8230   11.1330 ha        1 K62      0.105333
     48 H47A        0.2770   -0.4830   11.0960 ha        1 K62      0.105333
     49 H47B       -0.2780   -1.7900   11.7880 ha        1 K62      0.105333
     50 H40         0.9120   -4.2460    9.7910 ha        1 K62      0.138000
     51 H45         2.1300   -5.3280    8.0750 ha        1 K62      0.140000
     52 H44         2.4230   -4.2750    5.9780 ha        1 K62      0.141000
     53 H42         0.2840   -1.0370    7.2910 ha        1 K62      0.185000
     54 H25         0.0980   -2.0880    3.9520 h1        1 K62      0.127500
     55 H25A        1.4830   -3.1510    3.6920 h1        1 K62      0.127500
     56 H29         2.3340   -1.6870    2.3330 h1        1 K62      0.151000
     57 HN20        1.7020    0.8380    1.1440 hn        1 K62      0.241000
     58 H19        -0.7230    0.0870   -0.0920 h1        1 K62      0.128000
     59 H32        -0.8030    2.5070   -0.7180 hc        1 K62      0.104500
     60 H32A        0.2740    2.7340    0.4950 hc        1 K62      0.104500
     61 H37        -3.0180    1.2220   -0.0900 ha        1 K62      0.130000
     62 H36        -4.8590    1.4270    1.3810 ha        1 K62      0.132000
     63 H35        -4.6240    2.4360    3.5170 ha        1 K62      0.141000
     64 H34        -2.4650    3.2440    4.1380 ha        1 K62      0.141000
     65 H33        -0.5730    3.0580    2.6840 ha        1 K62      0.133000
     66 H17         0.9890   -0.3320   -1.5830 h1        1 K62      0.121000
     67 HO18        2.6340    0.7960   -1.1780 ho        1 K62      0.207000
     68 H16        -0.2290    2.2210   -2.3720 h1        1 K62      0.100500
     69 H16A       -0.9900    0.8170   -2.5080 h1        1 K62      0.100500
     70 H12         1.6310    2.6380   -4.3040 h1        1 K62      0.110500
     71 H12A        1.0890    1.8310   -5.5620 h1        1 K62      0.110500
     72 H13        -0.9590    2.9250   -4.0480 hc        1 K62      0.089000
     73 H15        -0.6340    5.1670   -4.7370 hc        1 K62      0.076667
     74 H15A        0.7500    4.7350   -5.4450 hc        1 K62      0.076667
     75 H15B        0.6300    4.6820   -3.8460 hc        1 K62      0.076667
     76 H14        -1.1890    1.9030   -6.3060 hc        1 K62      0.076667
     77 H14A       -1.9470    3.3300   -6.1250 hc        1 K62      0.076667
     78 H14B       -0.5210    3.2690   -6.8740 hc        1 K62      0.076667
     79 H6          2.2600   -0.1150   -6.7900 ha        1 K62      0.163000
     80 H7          1.6560   -0.7120   -9.0290 ha        1 K62      0.164000
     81 H4         -1.2270   -1.8940   -5.4170 ha        1 K62      0.181000
     82 H18        -1.9460   -3.5800   -9.7570 h2        1 K62      0.118000
     83 H18A       -2.7740   -2.2000   -9.8590 h2        1 K62      0.118000
@<TRIPOS>BOND
     1    1    2 1   
     2    2    4 1   
     3    3   47 1   
     4    3   48 1   
     5    3   49 1   
     6    4    5 1   
     7    4    8 1   
     8    5    6 1   
     9    5   50 1   
    10    6   51 1   
    11    7    9 1   
    12    7   52 1   
    13    8   53 1   
    14    9   10 1   
    15   10   11 1   
    16   10   14 1   
    17   11   12 1   
    18   11   13 1   
    19   13   15 1   
    20   14   15 1   
    21   14   54 1   
    22   14   55 1   
    23   15   16 1   
    24   15   56 1   
    25   16   17 1   
    26   16   18 1   
    27   18   19 1   
    28   18   57 1   
    29   19   20 1   
    30   19   27 1   
    31   19   58 1   
    32   20   21 1   
    33   20   59 1   
    34   20   60 1   
    35   21   22 1   
    36   21   26 1   
    37   22   23 1   
    38   22   61 1   
    39   23   62 1   
    40   24   25 1   
    41   24   63 1   
    42   25   64 1   
    43   26   65 1   
    44   27   28 1   
    45   27   29 1   
    46   27   66 1   
    47   28   67 1   
    48   29   30 1   
    49   29   68 1   
    50   29   69 1   
    51   30   31 1   
    52   30   35 1   
    53   31   32 1   
    54   31   70 1   
    55   31   71 1   
    56   32   33 1   
    57   32   34 1   
    58   32   72 1   
    59   33   73 1   
    60   33   74 1   
    61   33   75 1   
    62   34   76 1   
    63   34   77 1   
    64   34   78 1   
    65   35   36 1   
    66   35   37 1   
    67   38   39 1   
    68   38   41 1   
    69   39   40 1   
    70   39   79 1   
    71   40   80 1   
    72   41   81 1   
    73   42   43 1   
    74   42   44 1   
    75   43   46 1   
    76   44   45 1   
    77   45   46 1   
    78   46   82 1   
    79   46   83 1   
@<TRIPOS>SUBSTRUCTURE
     1 K62         1 TEMP              0 ****  ****    0 ROOT
