@<TRIPOS>MOLECULE
K64
   80    83     1     0     0
SMALL
bcc


@<TRIPOS>ATOM
      1 C1         -1.1820    0.9620    1.2740 ca        1 K64     -0.146000
      2 C2          0.0760    1.5440    1.1050 ca        1 K64     -0.077000
      3 C3          1.0070    1.5140    2.1350 ca        1 K64     -0.144000
      4 C4          0.6800    0.9030    3.3600 ca        1 K64     -0.184600
      5 C5         -0.5770    0.3170    3.5690 ca        1 K64     -0.009300
      6 C6         -1.5030    0.3540    2.4930 ca        1 K64      0.136100
      7 C9         -0.9900   -0.3300    4.8330 c3        1 K64     -0.073800
      8 C13         1.6560    0.9240    4.4540 c         1 K64      0.595700
      9 N14         3.0550    0.4720    4.0310 ny        1 K64     -0.685800
     10 C15         3.9510    0.0750    5.1670 c3        1 K64      0.034500
     11 C16         4.9720   -0.9920    4.7280 c3        1 K64     -0.037100
     12 C17         4.7020    1.2650    5.7530 c         1 K64      0.580100
     13 C19         5.2400    1.1300    7.1970 c3        1 K64      0.330300
     14 N20         6.7040    1.1790    7.1820 n3        1 K64     -0.785600
     15 C21         7.3290    2.3060    7.8570 c3        1 K64      0.150500
     16 C22         8.3790    1.8570    8.9230 c3        1 K64     -0.001900
     17 S23         8.2900    0.0600    8.9760 ss        1 K64     -0.223200
     18 C24         7.4280   -0.0520    7.4100 c3        1 K64      0.228900
     19 C27         4.3040   -2.1680    4.1120 ca        1 K64     -0.168300
     20 C30         4.3150   -2.3330    2.7200 ca        1 K64     -0.131000
     21 C31         3.7240   -3.4570    2.1450 ca        1 K64     -0.112000
     22 C32         3.1190   -4.4210    2.9530 ca        1 K64     -0.092000
     23 C33         3.1090   -4.2610    4.3400 ca        1 K64     -0.112000
     24 C34         3.7000   -3.1390    4.9190 ca        1 K64     -0.131000
     25 O41         4.8560    2.3170    5.1330 o         1 K64     -0.509100
     26 O44         4.7070   -0.0780    7.7130 oh        1 K64     -0.600800
     27 C45         9.8020    2.2430    8.5890 c3        1 K64     -0.106600
     28 C49         8.0000    2.3940   10.2860 c3        1 K64     -0.106600
     29 C53         8.0230    3.1970    6.8050 c         1 K64      0.535100
     30 N55         8.1430    4.6520    7.1940 ny        1 K64     -0.683800
     31 C56         9.3740    5.3170    6.6310 c3        1 K64      0.180100
     32 O57         8.4620    2.8780    5.7150 o         1 K64     -0.384100
     33 O60        -2.7120   -0.2410    2.7360 oh        1 K64     -0.473100
     34 O62         1.5310    1.2410    5.6250 o         1 K64     -0.423100
     35 C63         9.4230    6.7490    7.0300 ca        1 K64     -0.202300
     36 C66         8.9460    7.7140    6.1310 ca        1 K64     -0.095000
     37 C67         9.0290    9.0670    6.4450 ca        1 K64     -0.120000
     38 C68         9.5880    9.4640    7.6610 ca        1 K64     -0.066000
     39 C69        10.0620    8.5080    8.5590 ca        1 K64     -0.118000
     40 C70         9.9870    7.1430    8.2560 ca        1 K64     -0.047300
     41 C75        10.5270    6.1530    9.2190 c3        1 K64     -0.068800
     42 H33        -1.9180    0.9860    0.4540 ha        1 K64      0.172000
     43 H32         0.3260    2.0340    0.1490 ha        1 K64      0.169000
     44 H31         1.9790    2.0070    1.9900 ha        1 K64      0.130000
     45 H35        -1.4770   -1.3170    4.6170 hc        1 K64      0.073367
     46 H36        -1.7540    0.3130    5.3460 hc        1 K64      0.073367
     47 H37        -0.1350   -0.4920    5.5310 hc        1 K64      0.073367
     48 H30         3.4940    1.2400    3.5070 hn        1 K64      0.472800
     49 H22         3.2900   -0.3680    5.9790 hx        1 K64      0.157700
     50 H23         5.5240   -1.3040    5.6590 hc        1 K64      0.088700
     51 H24         5.7180   -0.5420    4.0190 hc        1 K64      0.088700
     52 H20         4.8130    2.0110    7.7730 h2        1 K64      0.080700
     53 H11         6.5410    2.9390    8.3710 h1        1 K64      0.087700
     54 H12         8.1670   -0.1770    6.5730 h2        1 K64      0.111700
     55 H13         6.7600   -0.9540    7.4360 h2        1 K64      0.111700
     56 H25         4.8260   -1.5990    2.0780 ha        1 K64      0.136000
     57 H26         3.7480   -3.5910    1.0520 ha        1 K64      0.160000
     58 H27         2.6620   -5.3150    2.4980 ha        1 K64      0.164000
     59 H28         2.6440   -5.0290    4.9800 ha        1 K64      0.160000
     60 H29         3.7070   -3.0260    6.0140 ha        1 K64      0.136000
     61 H21         4.8000   -0.0710    8.6770 ho        1 K64      0.452000
     62 H14         9.9790    3.3370    8.7420 hc        1 K64      0.065533
     63 H15        10.5030    1.6960    9.2740 hc        1 K64      0.065533
     64 H16        10.0700    1.9610    7.5410 hc        1 K64      0.065533
     65 H17         6.9630    2.0890   10.5690 hc        1 K64      0.065533
     66 H18         8.7030    1.9940   11.0600 hc        1 K64      0.065533
     67 H19         8.0670    3.5100   10.3010 hc        1 K64      0.065533
     68 H10         8.1660    4.7320    8.2180 hn        1 K64      0.457800
     69 H8          9.3360    5.2030    5.5080 hx        1 K64      0.115200
     70 H9         10.2680    4.7480    7.0210 hx        1 K64      0.115200
     71 H34        -3.2750   -0.1380    1.9510 ho        1 K64      0.449000
     72 H7          8.5250    7.4040    5.1610 ha        1 K64      0.138000
     73 H6          8.6630    9.8230    5.7310 ha        1 K64      0.164000
     74 H5          9.6610   10.5360    7.9110 ha        1 K64      0.168000
     75 H4         10.5110    8.8310    9.5130 ha        1 K64      0.163000
     76 H1         11.3740    5.5800    8.7620 hc        1 K64      0.052367
     77 H2          9.7370    5.4290    9.5390 hc        1 K64      0.052367
     78 H3         10.9170    6.6590   10.1390 hc        1 K64      0.052367
     79 H142        2.9520   -0.3390    3.3960 hn        1 K64      0.472800
     80 H552        7.3170    5.1570    6.8530 hn        1 K64      0.457800
@<TRIPOS>BOND
     1    1    2 ar  
     2    1    6 ar  
     3    1   42 1   
     4    2    3 ar  
     5    2   43 1   
     6    3    4 ar  
     7    3   44 1   
     8    4    5 ar  
     9    4    8 1   
    10    5    6 ar  
    11    5    7 1   
    12    6   33 1   
    13    7   45 1   
    14    7   46 1   
    15    7   47 1   
    16    8    9 1   
    17    8   34 2   
    18    9   10 1   
    19    9   48 1   
    20    9   79 1   
    21   10   11 1   
    22   10   12 1   
    23   10   49 1   
    24   11   19 1   
    25   11   50 1   
    26   11   51 1   
    27   12   13 1   
    28   12   25 2   
    29   13   14 1   
    30   13   26 1   
    31   13   52 1   
    32   14   15 1   
    33   14   18 1   
    34   15   16 1   
    35   15   29 1   
    36   15   53 1   
    37   16   17 1   
    38   16   27 1   
    39   16   28 1   
    40   17   18 1   
    41   18   54 1   
    42   18   55 1   
    43   19   20 ar  
    44   19   24 ar  
    45   20   21 ar  
    46   20   56 1   
    47   21   22 ar  
    48   21   57 1   
    49   22   23 ar  
    50   22   58 1   
    51   23   24 ar  
    52   23   59 1   
    53   24   60 1   
    54   26   61 1   
    55   27   62 1   
    56   27   63 1   
    57   27   64 1   
    58   28   65 1   
    59   28   66 1   
    60   28   67 1   
    61   29   30 1   
    62   29   32 2   
    63   30   31 1   
    64   30   68 1   
    65   30   80 1   
    66   31   35 1   
    67   31   69 1   
    68   31   70 1   
    69   33   71 1   
    70   35   36 ar  
    71   35   40 ar  
    72   36   37 ar  
    73   36   72 1   
    74   37   38 ar  
    75   37   73 1   
    76   38   39 ar  
    77   38   74 1   
    78   39   40 ar  
    79   39   75 1   
    80   40   41 1   
    81   41   76 1   
    82   41   77 1   
    83   41   78 1   
@<TRIPOS>SUBSTRUCTURE
     1 K64         1 TEMP              0 ****  ****    0 ROOT
