@<TRIPOS>MOLECULE
K64
   80    83     1     0     0
SMALL
bcc


@<TRIPOS>ATOM
      1 C1         -1.3440    1.0010    1.4430 ca        1 K64     -0.146000
      2 C2         -0.1040    1.6130    1.2470 ca        1 K64     -0.077000
      3 C3          0.8720    1.5510    2.2330 ca        1 K64     -0.144000
      4 C4          0.6080    0.8790    3.4410 ca        1 K64     -0.185600
      5 C5         -0.6290    0.2620    3.6760 ca        1 K64     -0.011300
      6 C6         -1.6020    0.3330    2.6440 ca        1 K64      0.136100
      7 C9         -0.9760   -0.4510    4.9240 c3        1 K64     -0.073800
      8 C13         1.6320    0.8680    4.4900 c         1 K64      0.596700
      9 N14         3.0070    0.4230    3.9910 n4        1 K64     -0.685800
     10 C15         3.9720    0.0410    5.0750 c3        1 K64      0.033500
     11 C16         4.9780   -1.0170    4.5810 c3        1 K64     -0.038100
     12 C17         4.7420    1.2430    5.6110 c         1 K64      0.580100
     13 C19         5.3390    1.1280    7.0320 c3        1 K64      0.323300
     14 N20         6.7900    1.3260    6.9770 n3        1 K64     -0.769600
     15 C21         7.3290    2.4130    7.7880 c3        1 K64      0.138500
     16 C22         8.0610    1.8690    9.0520 c3        1 K64     -0.004900
     17 S23         8.4990    0.1650    8.6610 ss        1 K64     -0.240200
     18 C24         7.6340    0.1550    7.0810 c3        1 K64      0.222900
     19 C27         4.2910   -2.1950    3.9900 ca        1 K64     -0.168300
     20 C30         4.2280   -2.3470    2.5980 ca        1 K64     -0.130500
     21 C31         3.6200   -3.4730    2.0450 ca        1 K64     -0.112500
     22 C32         3.0720   -4.4520    2.8760 ca        1 K64     -0.092000
     23 C33         3.1360   -4.3050    4.2620 ca        1 K64     -0.112500
     24 C34         3.7440   -3.1810    4.8190 ca        1 K64     -0.130500
     25 O41         4.8520    2.2880    4.9720 o         1 K64     -0.502100
     26 O44         4.9420   -0.1380    7.5340 oh        1 K64     -0.602800
     27 C45         9.3170    2.6140    9.4270 c3        1 K64     -0.101600
     28 C49         7.0950    1.8680   10.2200 c3        1 K64     -0.101600
     29 C53         8.3210    3.2110    6.9140 c         1 K64      0.534100
     30 N55         8.4000    4.6850    7.2220 n4        1 K64     -0.683800
     31 C56         9.5810    5.3710    6.5780 c3        1 K64      0.182100
     32 O57         9.0270    2.7920    6.0150 o         1 K64     -0.379100
     33 O60        -2.7890   -0.2940    2.9120 oh        1 K64     -0.473100
     34 O62         1.5610    1.1530    5.6740 o         1 K64     -0.424100
     35 C63         9.6380    6.7980    6.9930 ca        1 K64     -0.204300
     36 C66         8.9820    7.7550    6.2060 ca        1 K64     -0.100000
     37 C67         9.0590    9.1040    6.5320 ca        1 K64     -0.121000
     38 C68         9.7950    9.5070    7.6500 ca        1 K64     -0.066000
     39 C69        10.4490    8.5590    8.4350 ca        1 K64     -0.120000
     40 C70        10.3810    7.1960    8.1180 ca        1 K64     -0.040300
     41 C75        11.1220    6.2200    8.9510 c3        1 K64     -0.069800
     42 H33        -2.1160    1.0510    0.6570 ha        1 K64      0.172000
     43 H32         0.0960    2.1510    0.3050 ha        1 K64      0.169000
     44 H31         1.8290    2.0670    2.0700 ha        1 K64      0.131000
     45 H35        -1.7600    0.1310    5.4780 hc        1 K64      0.073367
     46 H36        -0.0980   -0.5930    5.5970 hc        1 K64      0.073367
     47 H37        -1.4170   -1.4530    4.6810 hc        1 K64      0.073367
     48 H30         2.8740   -0.3920    3.3680 hn        1 K64      0.473300
     49 H22         3.3650   -0.4080    5.9250 hx        1 K64      0.156700
     50 H23         5.5750   -1.3310    5.4830 hc        1 K64      0.089200
     51 H24         5.6850   -0.5580    3.8400 hc        1 K64      0.089200
     52 H20         4.8470    1.9490    7.6440 h2        1 K64      0.084700
     53 H11         6.4990    3.1100    8.1090 h1        1 K64      0.096700
     54 H12         8.3930    0.2050    6.2530 h2        1 K64      0.113700
     55 H13         7.0590   -0.8040    6.9900 h2        1 K64      0.113700
     56 H25         4.6950   -1.6010    1.9370 ha        1 K64      0.136500
     57 H26         3.5860   -3.5970    0.9510 ha        1 K64      0.160000
     58 H27         2.6020   -5.3480    2.4370 ha        1 K64      0.164000
     59 H28         2.7170   -5.0850    4.9190 ha        1 K64      0.160000
     60 H29         3.8110   -3.0790    5.9130 ha        1 K64      0.136500
     61 H21         5.1090   -0.1610    8.4890 ho        1 K64      0.450000
     62 H14        10.0240    2.7080    8.5660 hc        1 K64      0.063867
     63 H15         9.0790    3.6270    9.8380 hc        1 K64      0.063867
     64 H16         9.8530    2.0490   10.2350 hc        1 K64      0.063867
     65 H17         6.1420    1.3520    9.9470 hc        1 K64      0.063867
     66 H18         7.5500    1.3290   11.0880 hc        1 K64      0.063867
     67 H19         6.8580    2.9120   10.5430 hc        1 K64      0.063867
     68 H10         7.5400    5.1420    6.8990 hn        1 K64      0.459300
     69 H8         10.5080    4.8080    6.8890 hx        1 K64      0.115700
     70 H9          9.4610    5.2690    5.4600 hx        1 K64      0.115700
     71 H34        -3.3890   -0.1640    2.1580 ho        1 K64      0.449000
     72 H7          8.4220    7.4420    5.3110 ha        1 K64      0.135000
     73 H6          8.5520    9.8550    5.9060 ha        1 K64      0.163000
     74 H5          9.8650   10.5770    7.9080 ha        1 K64      0.167000
     75 H4         11.0360    8.8850    9.3100 ha        1 K64      0.163000
     76 H1         10.5010    5.3170    9.1780 hc        1 K64      0.054367
     77 H2         12.0500    5.8870    8.4170 hc        1 K64      0.054367
     78 H3         11.4340    6.6760    9.9250 hc        1 K64      0.054367
     79 H142        3.4090    1.1910    3.4370 hn        1 K64      0.473300
     80 H552        8.4640    4.8120    8.2410 hn        1 K64      0.459300
@<TRIPOS>BOND
     1    1    2 ar  
     2    1    6 ar  
     3    1   42 1   
     4    2    3 ar  
     5    2   43 1   
     6    3    4 ar  
     7    3   44 1   
     8    4    5 ar  
     9    4    8 1   
    10    5    6 ar  
    11    5    7 1   
    12    6   33 1   
    13    7   45 1   
    14    7   46 1   
    15    7   47 1   
    16    8    9 1   
    17    8   34 2   
    18    9   10 1   
    19    9   48 1   
    20    9   79 1   
    21   10   11 1   
    22   10   12 1   
    23   10   49 1   
    24   11   19 1   
    25   11   50 1   
    26   11   51 1   
    27   12   13 1   
    28   12   25 2   
    29   13   14 1   
    30   13   26 1   
    31   13   52 1   
    32   14   15 1   
    33   14   18 1   
    34   15   16 1   
    35   15   29 1   
    36   15   53 1   
    37   16   17 1   
    38   16   27 1   
    39   16   28 1   
    40   17   18 1   
    41   18   54 1   
    42   18   55 1   
    43   19   20 ar  
    44   19   24 ar  
    45   20   21 ar  
    46   20   56 1   
    47   21   22 ar  
    48   21   57 1   
    49   22   23 ar  
    50   22   58 1   
    51   23   24 ar  
    52   23   59 1   
    53   24   60 1   
    54   26   61 1   
    55   27   62 1   
    56   27   63 1   
    57   27   64 1   
    58   28   65 1   
    59   28   66 1   
    60   28   67 1   
    61   29   30 1   
    62   29   32 2   
    63   30   31 1   
    64   30   68 1   
    65   30   80 1   
    66   31   35 1   
    67   31   69 1   
    68   31   70 1   
    69   33   71 1   
    70   35   36 ar  
    71   35   40 ar  
    72   36   37 ar  
    73   36   72 1   
    74   37   38 ar  
    75   37   73 1   
    76   38   39 ar  
    77   38   74 1   
    78   39   40 ar  
    79   39   75 1   
    80   40   41 1   
    81   41   76 1   
    82   41   77 1   
    83   41   78 1   
@<TRIPOS>SUBSTRUCTURE
     1 K64         1 TEMP              0 ****  ****    0 ROOT
