@<TRIPOS>MOLECULE
K64
   78    74     1     0     0
SMALL
bcc


@<TRIPOS>ATOM
      1 C1         -7.2570   -0.0210    1.0010 c1        1 K64     -0.192000
      2 C2         -6.4810    0.4570   -0.0520 c1        1 K64     -0.124333
      3 C3         -5.2180   -0.0640   -0.2780 c1        1 K64     -0.124333
      4 C4         -4.7180   -1.0690    0.5490 c1        1 K64     -0.094000
      5 C5         -5.4840   -1.5480    1.5960 c1        1 K64     -0.037000
      6 C6         -6.7670   -1.0180    1.8250 c1        1 K64      0.070000
      7 C9         -4.8920   -2.6530    2.5790 c3        1 K64     -0.189000
      8 C13        -3.3440   -1.6440    0.2860 c2        1 K64      0.362000
      9 N14        -2.5520   -1.1440   -0.8320 n         1 K64     -0.364000
     10 C15        -1.3280   -1.7720   -1.1710 c3        1 K64     -0.013000
     11 C16        -1.4680   -2.4510   -2.5190 c3        1 K64     -0.133000
     12 C17        -0.2360   -0.7390   -1.2420 c2        1 K64      0.187000
     13 C19         0.8140   -0.6680   -0.1480 c3        1 K64      0.084000
     14 N20         1.9360    0.1170   -0.6080 n3        1 K64     -0.230000
     15 C21         3.0110    0.4640    0.7360 c3        1 K64     -0.022000
     16 C22         3.7870   -0.7160    0.8540 c3        1 K64     -0.128000
     17 S23         3.8100   -1.3930   -0.6570 ss        1 K64     -0.001000
     18 C24         2.6490   -0.5920   -1.5210 c3        1 K64     -0.148000
     19 C27        -2.0130   -3.8930   -2.3200 c2        1 K64     -0.083000
     20 C30        -3.2770   -4.2340   -2.8160 c2        1 K64     -0.131000
     21 C31        -3.7160   -5.5750   -2.7700 c1        1 K64     -0.127000
     22 C32        -2.8890   -6.5610   -2.2290 c1        1 K64     -0.124333
     23 C33        -1.6180   -6.2190   -1.7300 c1        1 K64     -0.124333
     24 C34        -1.1830   -4.8880   -1.7760 c1        1 K64     -0.120000
     25 O41        -0.1700    0.0080   -2.1960 o         1 K64     -0.251000
     26 O44         1.2410   -1.9500    0.1680 oh        1 K64     -0.362000
     27 C45         5.2030   -0.3720    1.2980 c3        1 K64     -0.212000
     28 C49         3.1450   -1.6700    1.8470 c3        1 K64     -0.212000
     29 C53         3.7750    1.6390    0.5690 c2        1 K64      0.305000
     30 N55         3.5580    2.7690    1.4390 n         1 K64     -0.361000
     31 C56         4.3660    4.0120    1.2580 c3        1 K64     -0.002000
     32 O57         4.5640    1.7140   -0.3210 o         1 K64     -0.343000
     33 O60        -7.6060   -1.5850    2.8380 oh        1 K64     -0.247000
     34 O62        -2.8640   -2.4660    1.0570 o         1 K64     -0.394000
     35 C63         3.5570    5.0320    0.4750 c2        1 K64     -0.122000
     36 C66         2.4420    4.6220   -0.2500 c2        1 K64     -0.105000
     37 C67         1.7810    5.5290   -1.0960 c1        1 K64     -0.135000
     38 C68         2.2450    6.8480   -1.2090 c1        1 K64     -0.124333
     39 C69         3.3590    7.2580   -0.4850 c1        1 K64     -0.124333
     40 C70         4.0200    6.3530    0.3600 c1        1 K64     -0.060000
     41 C75         5.2130    6.8180    1.1920 c3        1 K64     -0.179000
     42 H33        -8.1580    0.3530    1.1590 ha        1 K64      0.138000
     43 H32        -6.8230    1.1500   -0.6240 ha        1 K64      0.136000
     44 H31        -4.6660    0.2790   -1.0310 ha        1 K64      0.136000
     45 H35        -3.9950   -2.3860    2.8700 hc        1 K64      0.100333
     46 H36        -5.4810   -2.7410    3.3670 hc        1 K64      0.100333
     47 H37        -4.8410   -3.5190    2.1090 hc        1 K64      0.100333
     48 H30        -2.8430   -0.3840   -1.3150 hn        1 K64      0.242000
     49 H22        -1.1070   -2.4300   -0.5010 h1        1 K64      0.143000
     50 H23        -2.0830   -1.9470   -3.0720 hc        1 K64      0.110500
     51 H24        -0.5920   -2.4900   -2.9580 hc        1 K64      0.110500
     52 H20         0.4250   -0.2450    0.6510 h2        1 K64      0.116000
     53 H11         2.5250    0.6610    1.5470 h1        1 K64      0.118000
     54 H12         2.0580   -1.2410   -1.9870 h2        1 K64      0.124000
     55 H13         3.0700    0.0180   -2.1750 h2        1 K64      0.124000
     56 H25        -3.8300   -3.5740   -3.1770 ha        1 K64      0.130000
     57 H26        -4.5960   -5.8130   -3.1160 ha        1 K64      0.133000
     58 H27        -3.1870   -7.4710   -2.1980 ha        1 K64      0.136000
     59 H28        -1.0440   -6.9030   -1.3550 ha        1 K64      0.136000
     60 H29        -0.3290   -4.6600   -1.4400 ha        1 K64      0.139000
     61 H21         0.8710   -2.2030    0.9120 ho        1 K64      0.246000
     62 H14         5.6230    0.2500    0.6270 hc        1 K64      0.092667
     63 H15         5.7410   -1.2040    1.3610 hc        1 K64      0.092667
     64 H16         5.1740    0.0640    2.1740 hc        1 K64      0.092667
     65 H17         3.8240   -1.9530    2.5210 hc        1 K64      0.092667
     66 H18         2.3910   -1.2130    2.3060 hc        1 K64      0.092667
     67 H19         2.8160   -2.4400    1.3810 hc        1 K64      0.092667
     68 H10         2.9760    2.6860    2.1900 hn        1 K64      0.212000
     69 H8          5.1880    3.8010    0.7670 h1        1 K64      0.110500
     70 H9          4.5950    4.3800    2.1290 h1        1 K64      0.110500
     71 H34        -8.0990   -0.9330    3.2170 ho        1 K64      0.220000
     72 H7          2.1150    3.6940   -0.1710 ha        1 K64      0.153000
     73 H6          1.0100    5.2440   -1.5970 ha        1 K64      0.135000
     74 H5          1.7760    7.4940   -1.8100 ha        1 K64      0.136000
     75 H4          3.6900    8.2040   -0.5680 ha        1 K64      0.136000
     76 H1          5.0810    6.5580    2.1210 hc        1 K64      0.082667
     77 H2          6.0400    6.3980    0.8460 hc        1 K64      0.082667
     78 H3          5.2910    7.7760    1.1340 hc        1 K64      0.082667
@<TRIPOS>BOND
     1    1    6 1   
     2    1   42 1   
     3    2    3 1   
     4    2   43 1   
     5    3   44 1   
     6    4    5 1   
     7    4    8 1   
     8    5    7 1   
     9    6   33 1   
    10    7   45 1   
    11    7   46 1   
    12    7   47 1   
    13    8    9 1   
    14    8   34 1   
    15    9   10 1   
    16    9   48 1   
    17   10   11 1   
    18   10   12 1   
    19   10   49 1   
    20   11   19 1   
    21   11   50 1   
    22   11   51 1   
    23   12   13 1   
    24   12   25 1   
    25   13   14 1   
    26   13   26 1   
    27   13   52 1   
    28   14   15 1   
    29   14   18 1   
    30   15   16 1   
    31   15   29 1   
    32   15   53 1   
    33   16   17 1   
    34   16   27 1   
    35   16   28 1   
    36   17   18 1   
    37   18   54 1   
    38   18   55 1   
    39   19   20 1   
    40   19   24 1   
    41   20   21 1   
    42   20   56 1   
    43   21   57 1   
    44   22   23 1   
    45   22   58 1   
    46   23   59 1   
    47   24   60 1   
    48   26   61 1   
    49   27   62 1   
    50   27   63 1   
    51   27   64 1   
    52   28   65 1   
    53   28   66 1   
    54   28   67 1   
    55   29   30 1   
    56   29   32 1   
    57   30   31 1   
    58   30   68 1   
    59   31   35 1   
    60   31   69 1   
    61   31   70 1   
    62   33   71 1   
    63   35   36 1   
    64   35   40 1   
    65   36   37 1   
    66   36   72 1   
    67   37   73 1   
    68   38   39 1   
    69   38   74 1   
    70   39   75 1   
    71   40   41 1   
    72   41   76 1   
    73   41   77 1   
    74   41   78 1   
@<TRIPOS>SUBSTRUCTURE
     1 K64         1 TEMP              0 ****  ****    0 ROOT
