@<TRIPOS>MOLECULE
K64
   78    81     1     0     0
SMALL
bcc


@<TRIPOS>ATOM
      1 C1         -2.7170   -3.8530    1.5340 ca        1 K64     -0.139000
      2 C2         -1.7010   -2.9700    1.8820 ca        1 K64     -0.105000
      3 C3         -1.4870   -1.8100    1.1370 ca        1 K64     -0.133000
      4 C4         -2.2970   -1.5370    0.0320 ca        1 K64     -0.108600
      5 C5         -3.3230   -2.4090   -0.3560 ca        1 K64     -0.117300
      6 C6         -3.5220   -3.5700    0.4170 ca        1 K64      0.117100
      7 C9         -4.1690   -2.1400   -1.5420 c3        1 K64     -0.065800
      8 C13        -2.0180   -0.2920   -0.7440 c         1 K64      0.687700
      9 N14        -2.5220    0.8810   -0.2180 n         1 K64     -0.556900
     10 C15        -2.2800    2.1650   -0.8250 c3        1 K64      0.007700
     11 C16        -3.4620    3.1360   -0.6630 c3        1 K64     -0.044100
     12 C17        -1.0050    2.8360   -0.2810 c         1 K64      0.555100
     13 C19         0.2750    2.0520   -0.6120 c3        1 K64      0.287300
     14 N20         1.4630    2.5280    0.0820 n3        1 K64     -0.708600
     15 C21         2.6350    1.6550   -0.0940 c3        1 K64      0.111500
     16 C22         3.8850    2.3650    0.4810 c3        1 K64      0.055100
     17 S23         3.5660    4.1260    0.2020 ss        1 K64     -0.332200
     18 C24         1.8230    3.9130   -0.1640 c3        1 K64      0.251900
     19 C27        -4.7020    2.6370   -1.3120 ca        1 K64     -0.084300
     20 C30        -5.8060    2.2640   -0.5370 ca        1 K64     -0.125000
     21 C31        -6.9770    1.8190   -1.1500 ca        1 K64     -0.128000
     22 C32        -7.0550    1.7440   -2.5400 ca        1 K64     -0.130000
     23 C33        -5.9580    2.1160   -3.3180 ca        1 K64     -0.128000
     24 C34        -4.7870    2.5620   -2.7080 ca        1 K64     -0.125000
     25 O41        -1.0400    3.9040    0.3220 o         1 K64     -0.499100
     26 O44         0.4270    2.0970   -2.0350 oh        1 K64     -0.631800
     27 C45         4.0460    2.1290    1.9640 c3        1 K64     -0.090100
     28 C49         5.1490    2.0160   -0.2670 c3        1 K64     -0.090100
     29 C53         2.4380    0.2720    0.5660 c         1 K64      0.667100
     30 N55         3.3610   -0.6890    0.2150 n         1 K64     -0.572900
     31 C56         3.3220   -2.0060    0.8020 c3        1 K64      0.142300
     32 O57         1.4890   -0.0110    1.3250 o         1 K64     -0.611100
     33 O60        -4.5030   -4.4980    0.1480 oh        1 K64     -0.498100
     34 O62        -1.3320   -0.2860   -1.7890 o         1 K64     -0.632100
     35 C63         4.4700   -2.8720    0.3720 ca        1 K64     -0.116300
     36 C66         4.2700   -3.7960   -0.6580 ca        1 K64     -0.107000
     37 C67         5.3050   -4.6360   -1.0640 ca        1 K64     -0.137000
     38 C68         6.5500   -4.5530   -0.4410 ca        1 K64     -0.116000
     39 C69         6.7560   -3.6320    0.5840 ca        1 K64     -0.134000
     40 C70         5.7230   -2.7830    1.0000 ca        1 K64     -0.061300
     41 C75         5.9640   -1.8190    2.0990 c3        1 K64     -0.058800
     42 H33        -2.9030   -4.7690    2.1120 ha        1 K64      0.153000
     43 H32        -1.0620   -3.1860    2.7510 ha        1 K64      0.143000
     44 H31        -0.6690   -1.1190    1.4090 ha        1 K64      0.171000
     45 H35        -5.2350   -1.9850   -1.2360 hc        1 K64      0.053700
     46 H36        -3.8260   -1.2270   -2.0900 hc        1 K64      0.053700
     47 H37        -4.1250   -3.0020   -2.2560 hc        1 K64      0.053700
     48 H30        -3.0750    0.8570    0.6050 hn        1 K64      0.328500
     49 H22        -2.0940    2.0030   -1.9350 h1        1 K64      0.101700
     50 H23        -3.6350    3.3380    0.4280 hc        1 K64      0.072200
     51 H24        -3.1560    4.1120   -1.1310 hc        1 K64      0.072200
     52 H20         0.1230    0.9820   -0.2630 h2        1 K64      0.100700
     53 H11         2.8030    1.4720   -1.2030 h1        1 K64      0.067700
     54 H12         1.6400    4.2330   -1.2240 h2        1 K64      0.087200
     55 H13         1.2110    4.5560    0.5230 h2        1 K64      0.087200
     56 H25        -5.7530    2.3270    0.5600 ha        1 K64      0.133000
     57 H26        -7.8410    1.5310   -0.5340 ha        1 K64      0.133000
     58 H27        -7.9790    1.3950   -3.0230 ha        1 K64      0.132000
     59 H28        -6.0170    2.0610   -4.4150 ha        1 K64      0.133000
     60 H29        -3.9240    2.8590   -3.3230 ha        1 K64      0.133000
     61 H21         0.1450    1.2360   -2.3750 ho        1 K64      0.440000
     62 H14         3.0800    2.3090    2.4970 hc        1 K64      0.051533
     63 H15         4.3700    1.0770    2.1660 hc        1 K64      0.051533
     64 H16         4.8200    2.8210    2.3780 hc        1 K64      0.051533
     65 H17         5.9150    2.8160   -0.1020 hc        1 K64      0.051533
     66 H18         5.5830    1.0530    0.1010 hc        1 K64      0.051533
     67 H19         4.9630    1.9330   -1.3650 hc        1 K64      0.051533
     68 H10         4.1430   -0.4460   -0.3430 hn        1 K64      0.318500
     69 H8          2.3440   -2.4930    0.5130 h1        1 K64      0.058200
     70 H9          3.3200   -1.9080    1.9290 h1        1 K64      0.058200
     71 H34        -4.9840   -4.2190   -0.6430 ho        1 K64      0.423000
     72 H7          3.2860   -3.8610   -1.1490 ha        1 K64      0.139000
     73 H6          5.1390   -5.3630   -1.8730 ha        1 K64      0.136000
     74 H5          7.3700   -5.2150   -0.7570 ha        1 K64      0.134000
     75 H4          7.7390   -3.5710    1.0730 ha        1 K64      0.134000
     76 H1          5.7170   -0.7770    1.7730 hc        1 K64      0.047367
     77 H2          5.3220   -2.0690    2.9820 hc        1 K64      0.047367
     78 H3          7.0320   -1.8390    2.4280 hc        1 K64      0.047367
@<TRIPOS>BOND
     1    1    2 ar  
     2    1    6 ar  
     3    1   42 1   
     4    2    3 ar  
     5    2   43 1   
     6    3    4 ar  
     7    3   44 1   
     8    4    5 ar  
     9    4    8 1   
    10    5    6 ar  
    11    5    7 1   
    12    6   33 1   
    13    7   45 1   
    14    7   46 1   
    15    7   47 1   
    16    8    9 1   
    17    8   34 2   
    18    9   10 1   
    19    9   48 1   
    20   10   11 1   
    21   10   12 1   
    22   10   49 1   
    23   11   19 1   
    24   11   50 1   
    25   11   51 1   
    26   12   13 1   
    27   12   25 2   
    28   13   14 1   
    29   13   26 1   
    30   13   52 1   
    31   14   15 1   
    32   14   18 1   
    33   15   16 1   
    34   15   29 1   
    35   15   53 1   
    36   16   17 1   
    37   16   27 1   
    38   16   28 1   
    39   17   18 1   
    40   18   54 1   
    41   18   55 1   
    42   19   20 ar  
    43   19   24 ar  
    44   20   21 ar  
    45   20   56 1   
    46   21   22 ar  
    47   21   57 1   
    48   22   23 ar  
    49   22   58 1   
    50   23   24 ar  
    51   23   59 1   
    52   24   60 1   
    53   26   61 1   
    54   27   62 1   
    55   27   63 1   
    56   27   64 1   
    57   28   65 1   
    58   28   66 1   
    59   28   67 1   
    60   29   30 1   
    61   29   32 2   
    62   30   31 1   
    63   30   68 1   
    64   31   35 1   
    65   31   69 1   
    66   31   70 1   
    67   33   71 1   
    68   35   36 ar  
    69   35   40 ar  
    70   36   37 ar  
    71   36   72 1   
    72   37   38 ar  
    73   37   73 1   
    74   38   39 ar  
    75   38   74 1   
    76   39   40 ar  
    77   39   75 1   
    78   40   41 1   
    79   41   76 1   
    80   41   77 1   
    81   41   78 1   
@<TRIPOS>SUBSTRUCTURE
     1 K64         1 TEMP              0 ****  ****    0 ROOT
