@<TRIPOS>MOLECULE
K64
   80    83     1     0     0
SMALL
bcc


@<TRIPOS>ATOM
      1 C1         -1.1730    0.9870    1.2760 ca        1 K64     -0.146000
      2 C2          0.0740    1.5980    1.1330 ca        1 K64     -0.077000
      3 C3          1.0010    1.5490    2.1650 ca        1 K64     -0.144000
      4 C4          0.6800    0.8910    3.3670 ca        1 K64     -0.184600
      5 C5         -0.5670    0.2750    3.5500 ca        1 K64     -0.010300
      6 C6         -1.4890    0.3330    2.4710 ca        1 K64      0.136100
      7 C9         -0.9740   -0.4220    4.7880 c3        1 K64     -0.073800
      8 C13         1.6510    0.8930    4.4650 c         1 K64      0.595700
      9 N14         3.0550    0.4630    4.0350 n4        1 K64     -0.685800
     10 C15         3.9590    0.0670    5.1650 c3        1 K64      0.033500
     11 C16         4.9930   -0.9830    4.7120 c3        1 K64     -0.037100
     12 C17         4.6960    1.2590    5.7630 c         1 K64      0.580100
     13 C19         5.2420    1.1150    7.2020 c3        1 K64      0.330300
     14 N20         6.7050    1.1720    7.1810 n3        1 K64     -0.785600
     15 C21         7.3270    2.2990    7.8610 c3        1 K64      0.150500
     16 C22         8.4020    1.8500    8.9010 c3        1 K64     -0.001900
     17 S23         8.3130    0.0530    8.9560 ss        1 K64     -0.222200
     18 C24         7.4380   -0.0560    7.3970 c3        1 K64      0.228900
     19 C27         4.3380   -2.1610    4.0860 ca        1 K64     -0.168300
     20 C30         4.3470   -2.3120    2.6930 ca        1 K64     -0.131000
     21 C31         3.7690   -3.4380    2.1090 ca        1 K64     -0.112500
     22 C32         3.1800   -4.4180    2.9090 ca        1 K64     -0.092000
     23 C33         3.1720   -4.2720    4.2980 ca        1 K64     -0.112500
     24 C34         3.7510   -3.1480    4.8860 ca        1 K64     -0.131000
     25 O41         4.8330    2.3210    5.1550 o         1 K64     -0.509100
     26 O44         4.7180   -0.1010    7.7100 oh        1 K64     -0.599800
     27 C45         9.8160    2.2360    8.5300 c3        1 K64     -0.106600
     28 C49         8.0570    2.3870   10.2730 c3        1 K64     -0.106600
     29 C53         7.9890    3.2150    6.8100 c         1 K64      0.535100
     30 N55         8.1030    4.6630    7.2240 n4        1 K64     -0.684800
     31 C56         9.3100    5.3550    6.6400 c3        1 K64      0.180100
     32 O57         8.4080    2.9210    5.7050 o         1 K64     -0.384100
     33 O60        -2.6870   -0.2920    2.6880 oh        1 K64     -0.473100
     34 O62         1.5190    1.1790    5.6440 o         1 K64     -0.422100
     35 C63         9.3560    6.7780    7.0680 ca        1 K64     -0.202300
     36 C66         8.8410    7.7560    6.2060 ca        1 K64     -0.095000
     37 C67         8.9180    9.1040    6.5480 ca        1 K64     -0.120000
     38 C68         9.5100    9.4800    7.7550 ca        1 K64     -0.066000
     39 C69        10.0230    8.5110    8.6150 ca        1 K64     -0.118000
     40 C70         9.9540    7.1520    8.2850 ca        1 K64     -0.046300
     41 C75        10.5350    6.1470    9.2080 c3        1 K64     -0.068800
     42 H33        -1.9070    1.0260    0.4530 ha        1 K64      0.172000
     43 H32         0.3190    2.1250    0.1950 ha        1 K64      0.169000
     44 H31         1.9650    2.0640    2.0420 ha        1 K64      0.131000
     45 H35        -1.4210   -1.4200    4.5360 hc        1 K64      0.073700
     46 H36        -0.1230   -0.5740    5.4950 hc        1 K64      0.073700
     47 H37        -1.7680    0.1760    5.3080 hc        1 K64      0.073700
     48 H30         3.4830    1.2420    3.5180 hn        1 K64      0.472800
     49 H22         3.3060   -0.3950    5.9740 hx        1 K64      0.157700
     50 H23         5.7300   -0.5160    4.0060 hc        1 K64      0.088700
     51 H24         5.5530   -1.2960    5.6380 hc        1 K64      0.088700
     52 H20         4.8130    1.9880    7.7890 h2        1 K64      0.079700
     53 H11         6.5390    2.9140    8.3970 h1        1 K64      0.087700
     54 H12         6.7750   -0.9620    7.4250 h2        1 K64      0.111700
     55 H13         8.1690   -0.1740    6.5520 h2        1 K64      0.111700
     56 H25         4.8460   -1.5650    2.0570 ha        1 K64      0.136000
     57 H26         3.7910   -3.5610    1.0140 ha        1 K64      0.160000
     58 H27         2.7330   -5.3130    2.4460 ha        1 K64      0.164000
     59 H28         2.7200   -5.0520    4.9310 ha        1 K64      0.160000
     60 H29         3.7590   -3.0460    5.9820 ha        1 K64      0.136000
     61 H21         4.8120   -0.1010    8.6750 ho        1 K64      0.452000
     62 H14        10.0550    1.9560    7.4750 hc        1 K64      0.065367
     63 H15        10.5350    1.6880    9.1950 hc        1 K64      0.065367
     64 H16         9.9970    3.3300    8.6800 hc        1 K64      0.065367
     65 H17         8.7810    1.9870   11.0290 hc        1 K64      0.065367
     66 H18         7.0280    2.0810   10.5820 hc        1 K64      0.065367
     67 H19         8.1240    3.5030   10.2870 hc        1 K64      0.065367
     68 H10         7.2620    5.1660    6.9160 hn        1 K64      0.457800
     69 H8         10.2210    4.7880    6.9900 hx        1 K64      0.114700
     70 H9          9.2400    5.2640    5.5160 hx        1 K64      0.114700
     71 H34        -3.2500   -0.1720    1.9050 ho        1 K64      0.449000
     72 H7          8.3930    7.4630    5.2440 ha        1 K64      0.138000
     73 H6          8.5210    9.8710    5.8630 ha        1 K64      0.164000
     74 H5          9.5790   10.5470    8.0250 ha        1 K64      0.168000
     75 H4         10.4980    8.8180    9.5620 ha        1 K64      0.163000
     76 H1         10.9440    6.6360   10.1290 hc        1 K64      0.052367
     77 H2          9.7640    5.4040    9.5320 hc        1 K64      0.052367
     78 H3         11.3770    5.5980    8.7130 hc        1 K64      0.052367
     79 H142        2.9620   -0.3420    3.3930 hn        1 K64      0.472800
     80 H552        8.1550    4.7250    8.2480 hn        1 K64      0.457800
@<TRIPOS>BOND
     1    1    2 ar  
     2    1    6 ar  
     3    1   42 1   
     4    2    3 ar  
     5    2   43 1   
     6    3    4 ar  
     7    3   44 1   
     8    4    5 ar  
     9    4    8 1   
    10    5    6 ar  
    11    5    7 1   
    12    6   33 1   
    13    7   45 1   
    14    7   46 1   
    15    7   47 1   
    16    8    9 1   
    17    8   34 2   
    18    9   10 1   
    19    9   48 1   
    20    9   79 1   
    21   10   11 1   
    22   10   12 1   
    23   10   49 1   
    24   11   19 1   
    25   11   50 1   
    26   11   51 1   
    27   12   13 1   
    28   12   25 2   
    29   13   14 1   
    30   13   26 1   
    31   13   52 1   
    32   14   15 1   
    33   14   18 1   
    34   15   16 1   
    35   15   29 1   
    36   15   53 1   
    37   16   17 1   
    38   16   27 1   
    39   16   28 1   
    40   17   18 1   
    41   18   54 1   
    42   18   55 1   
    43   19   20 ar  
    44   19   24 ar  
    45   20   21 ar  
    46   20   56 1   
    47   21   22 ar  
    48   21   57 1   
    49   22   23 ar  
    50   22   58 1   
    51   23   24 ar  
    52   23   59 1   
    53   24   60 1   
    54   26   61 1   
    55   27   62 1   
    56   27   63 1   
    57   27   64 1   
    58   28   65 1   
    59   28   66 1   
    60   28   67 1   
    61   29   30 1   
    62   29   32 2   
    63   30   31 1   
    64   30   68 1   
    65   30   80 1   
    66   31   35 1   
    67   31   69 1   
    68   31   70 1   
    69   33   71 1   
    70   35   36 ar  
    71   35   40 ar  
    72   36   37 ar  
    73   36   72 1   
    74   37   38 ar  
    75   37   73 1   
    76   38   39 ar  
    77   38   74 1   
    78   39   40 ar  
    79   39   75 1   
    80   40   41 1   
    81   41   76 1   
    82   41   77 1   
    83   41   78 1   
@<TRIPOS>SUBSTRUCTURE
     1 K64         1 TEMP              0 ****  ****    0 ROOT
