@<TRIPOS>MOLECULE
K66
   28    29     1     0     0
SMALL
bcc


@<TRIPOS>ATOM
      1 C1         -0.1220    0.3940    0.0670 ca        1 K66      0.038100
      2 C2          1.2750    0.2820    0.0380 ca        1 K66      0.106400
      3 C3          2.0210    0.0080    1.2670 ca        1 K66     -0.035200
      4 C4          1.3330   -0.1620    2.4790 ca        1 K66      0.024100
      5 C5         -0.0590   -0.0400    2.4670 ca        1 K66     -0.006900
      6 C6         -0.7770    0.2340    1.2850 ca        1 K66     -0.011900
      7 Br13        2.2030   -0.5550    4.0820 br        1 K66     -0.030100
      8 Br15       -1.0120   -0.2480    4.0700 br        1 K66     -0.075100
      9 Br17       -2.6440    0.3870    1.3480 br        1 K66     -0.080100
     10 Br19       -1.0640    0.7520   -1.5060 br        1 K66     -0.068100
     11 N21         2.1520    0.3990   -1.0370 nc        1 K66     -0.620100
     12 N23         3.3710    0.0040    0.9100 na        1 K66     -0.066300
     13 C25         3.4040    0.2160   -0.5010 cd        1 K66      0.602700
     14 N28         4.6380    0.3230   -1.2140 nh        1 K66     -0.669600
     15 C30         5.2940   -0.9510   -1.4400 c3        1 K66      0.151600
     16 C32         4.5550    1.1450   -2.4030 c3        1 K66      0.151600
     17 C34         4.5150   -0.2590    1.7400 c3        1 K66     -0.129700
     18 C36         4.9080   -1.7550    1.9890 c         1 K66      0.915600
     19 O38         5.6310   -1.9380    3.0020 o         1 K66     -0.811300
     20 O40         4.5420   -2.6370    1.1700 o         1 K66     -0.811300
     21 H30         6.3790   -0.7350   -1.6260 h1        1 K66      0.049033
     22 H30A        5.1950   -1.6160   -0.5340 h1        1 K66      0.049033
     23 H30B        4.8760   -1.4920   -2.3320 h1        1 K66      0.049033
     24 H32         5.6050    1.3200   -2.7600 h1        1 K66      0.049033
     25 H32A        4.0860    2.1300   -2.1470 h1        1 K66      0.049033
     26 H32B        3.9670    0.6700   -3.2340 h1        1 K66      0.049033
     27 H34         4.3410    0.2260    2.7400 h1        1 K66      0.065700
     28 H34A        5.4110    0.2290    1.2660 h1        1 K66      0.065700
@<TRIPOS>BOND
     1    1    2 ar  
     2    1    6 ar  
     3    1   10 1   
     4    2    3 ar  
     5    2   11 1   
     6    3    4 ar  
     7    3   12 1   
     8    4    5 ar  
     9    4    7 1   
    10    5    6 ar  
    11    5    8 1   
    12    6    9 1   
    13   11   13 2   
    14   12   13 1   
    15   12   17 1   
    16   13   14 1   
    17   14   15 1   
    18   14   16 1   
    19   15   21 1   
    20   15   22 1   
    21   15   23 1   
    22   16   24 1   
    23   16   25 1   
    24   16   26 1   
    25   17   18 1   
    26   17   27 1   
    27   17   28 1   
    28   18   19 1   
    29   18   20 1   
@<TRIPOS>SUBSTRUCTURE
     1 K66         1 TEMP              0 ****  ****    0 ROOT
