@<TRIPOS>MOLECULE
K66
   29    30     1     0     0
SMALL
bcc


@<TRIPOS>ATOM
      1 C1         -0.1310   -0.1330    0.0320 ca        1 K66      0.053100
      2 C2          1.2690   -0.0740    0.0050 ca        1 K66      0.096400
      3 C3          2.0270    0.0410    1.2400 ca        1 K66     -0.029200
      4 C4          1.3650    0.0910    2.4760 ca        1 K66     -0.007900
      5 C5         -0.0320    0.0320    2.4690 ca        1 K66      0.023100
      6 C6         -0.7690   -0.0760    1.2700 ca        1 K66     -0.012900
      7 BR13        2.2800    0.2170    4.0970 br        1 K66     -0.027100
      8 BR15       -0.9550    0.0970    4.0960 br        1 K66     -0.022100
      9 BR17       -2.6360   -0.1480    1.3380 br        1 K66     -0.025100
     10 BR19       -1.0890   -0.2810   -1.5590 br        1 K66     -0.015100
     11 N21         2.1410   -0.1040   -1.0950 nc        1 K66     -0.551100
     12 N23         3.3770    0.0800    0.8610 na        1 K66     -0.160300
     13 C25         3.3890   -0.0190   -0.5750 cd        1 K66      0.563700
     14 N28         4.6400   -0.0550   -1.2790 nh        1 K66     -0.682600
     15 C30         5.0680    1.2660   -1.7060 c3        1 K66      0.152600
     16 C32         4.6550   -1.0400   -2.3450 c3        1 K66      0.152600
     17 C34         4.5350    0.2220    1.6840 c3        1 K66     -0.056700
     18 C36         5.2090   -1.0640    2.1380 c         1 K66      0.614100
     19 O38         5.7770   -1.1830    3.2230 o         1 K66     -0.480000
     20 O40         5.2840   -2.1670    1.3480 oh        1 K66     -0.564100
     21 H30         4.4330    1.6880   -2.5310 h1        1 K66      0.053033
     22 H30A        6.1250    1.1750   -2.0700 h1        1 K66      0.053033
     23 H30B        5.0400    1.9690   -0.8330 h1        1 K66      0.053033
     24 H32         4.3160   -2.0290   -1.9390 h1        1 K66      0.053033
     25 H32A        4.0020   -0.7630   -3.2160 h1        1 K66      0.053033
     26 H32B        5.7160   -1.1310   -2.6990 h1        1 K66      0.053033
     27 H34         5.3200    0.8150    1.1250 h1        1 K66      0.110700
     28 H34A        4.2610    0.8010    2.6180 h1        1 K66      0.110700
     29 H281        4.8680   -2.0090    0.4890 ho        1 K66      0.438000
@<TRIPOS>BOND
     1    1    2 ar  
     2    1    6 ar  
     3    1   10 1   
     4    2    3 ar  
     5    2   11 1   
     6    3    4 ar  
     7    3   12 1   
     8    4    5 ar  
     9    4    7 1   
    10    5    6 ar  
    11    5    8 1   
    12    6    9 1   
    13   11   13 2   
    14   12   13 1   
    15   12   17 1   
    16   13   14 1   
    17   14   15 1   
    18   14   16 1   
    19   15   21 1   
    20   15   22 1   
    21   15   23 1   
    22   16   24 1   
    23   16   25 1   
    24   16   26 1   
    25   17   18 1   
    26   17   27 1   
    27   17   28 1   
    28   18   19 2   
    29   18   20 1   
    30   20   29 1   
@<TRIPOS>SUBSTRUCTURE
     1 K66         1 TEMP              0 ****  ****    0 ROOT
