@<TRIPOS>MOLECULE
K66
   28    29     1     0     0
SMALL
bcc


@<TRIPOS>ATOM
      1 C1         -1.1000   -1.3450   -0.3960 ca        1 K66      0.038100
      2 C2          0.3000   -1.3740   -0.4130 ca        1 K66      0.106400
      3 C3          1.0680   -0.1380   -0.2480 ca        1 K66     -0.035200
      4 C4          0.3970    1.0800   -0.0560 ca        1 K66      0.024100
      5 C5         -1.0000    1.0670   -0.0480 ca        1 K66     -0.006900
      6 C6         -1.7390   -0.1210   -0.2160 ca        1 K66     -0.011900
      7 BR13        1.2980    2.6930    0.2030 br        1 K66     -0.030100
      8 BR15       -1.9310    2.6780    0.1950 br        1 K66     -0.075100
      9 BR17       -3.6130   -0.0590   -0.1980 br        1 K66     -0.080100
     10 BR19       -2.0710   -2.9280   -0.6140 br        1 K66     -0.068100
     11 N21         1.1640   -2.4540   -0.5750 nc        1 K66     -0.620100
     12 N23         2.4130   -0.4980   -0.3580 na        1 K66     -0.066300
     13 C25         2.4270   -1.9150   -0.5260 cd        1 K66      0.602700
     14 N28         3.6460   -2.6340   -0.7230 nh        1 K66     -0.669600
     15 C30         4.4180   -2.8200    0.4910 c3        1 K66      0.151600
     16 C32         3.4890   -3.8490   -1.4950 c3        1 K66      0.151600
     17 C34         3.5750    0.3380   -0.2290 c3        1 K66     -0.129700
     18 C36         4.1040    0.6350    1.2160 c         1 K66      0.915600
     19 O38         4.8400    1.6510    1.2980 o         1 K66     -0.811300
     20 O40         3.8220   -0.1550    2.1540 o         1 K66     -0.811300
     21 H30         4.0520   -3.6930    1.0980 h1        1 K66      0.049033
     22 H30A        5.4780   -3.0150    0.1830 h1        1 K66      0.049033
     23 H30B        4.3790   -1.8930    1.1330 h1        1 K66      0.049033
     24 H32         2.9300   -3.6240   -2.4410 h1        1 K66      0.049033
     25 H32A        4.5180   -4.2130   -1.7540 h1        1 K66      0.049033
     26 H32B        2.9480   -4.6620   -0.9410 h1        1 K66      0.049033
     27 H34         4.4230   -0.1530   -0.7820 h1        1 K66      0.065700
     28 H34A        3.3570    1.3220   -0.7280 h1        1 K66      0.065700
@<TRIPOS>BOND
     1    1    2 ar  
     2    1    6 ar  
     3    1   10 1   
     4    2    3 ar  
     5    2   11 1   
     6    3    4 ar  
     7    3   12 1   
     8    4    5 ar  
     9    4    7 1   
    10    5    6 ar  
    11    5    8 1   
    12    6    9 1   
    13   11   13 2   
    14   12   13 1   
    15   12   17 1   
    16   13   14 1   
    17   14   15 1   
    18   14   16 1   
    19   15   21 1   
    20   15   22 1   
    21   15   23 1   
    22   16   24 1   
    23   16   25 1   
    24   16   26 1   
    25   17   18 1   
    26   17   27 1   
    27   17   28 1   
    28   18   19 1   
    29   18   20 1   
@<TRIPOS>SUBSTRUCTURE
     1 K66         1 TEMP              0 ****  ****    0 ROOT
