@<TRIPOS>MOLECULE
K66
   28    22     1     0     0
SMALL
bcc


@<TRIPOS>ATOM
      1 C1         -2.9640    0.0430   -0.2830 c1        1 K66     -0.102000
      2 C2         -1.5730    0.0100   -0.3290 c1        1 K66     -0.011500
      3 C3         -0.8540   -0.0920    0.8320 c1        1 K66     -0.011500
      4 C4         -1.5140   -0.1620    2.0590 c1        1 K66     -0.116000
      5 C5         -2.8970   -0.1290    2.1060 c1        1 K66     -0.147000
      6 C6         -3.6220   -0.0270    0.9440 c2        1 K66     -0.152000
      7 BR13       -1.2270   -0.2650    3.9220 br        1 K66      0.110000
      8 BR15       -3.8860    0.0070    3.7460 br        1 K66      0.065000
      9 BR17       -5.5050   -0.2570    1.3250 br        1 K66      0.060000
     10 BR19       -3.9680   -0.1850   -1.8580 br        1 K66      0.072000
     11 N21        -0.6890    0.0470   -1.3690 n1        1 K66     -0.142500
     12 N23         0.4880   -0.1170    0.5030 n1        1 K66     -0.142500
     13 C25         0.5890   -0.0320   -0.8470 c1        1 K66      0.124000
     14 N28         1.3970    0.1830   -1.9930 n2        1 K66     -0.201000
     15 C30         1.7730   -0.8960   -2.7920 c3        1 K66     -0.124500
     16 C32         1.8620    1.5060   -2.3070 c3        1 K66     -0.124500
     17 C34         1.3810   -0.7620    1.5140 c2        1 K66     -0.139000
     18 C36         2.0690    0.3160    2.3530 c2        1 K66      0.335000
     19 O38         1.7900    1.5190    2.1750 o         1 K66     -0.546000
     20 O40         2.8810   -0.0150    3.2590 o         1 K66     -0.546000
     21 H30         1.7900   -0.6100   -3.7500 h1        1 K66      0.088333
     22 H30A        2.6840   -1.2110   -2.5200 h1        1 K66      0.088333
     23 H30B        1.1250   -1.6290   -2.6800 h1        1 K66      0.088333
     24 H32         2.0640    1.9930   -1.4660 h1        1 K66      0.088333
     25 H32A        1.1650    1.9900   -2.8070 h1        1 K66      0.088333
     26 H32B        2.7050    1.4430   -2.8740 h1        1 K66      0.088333
     27 H34         2.0910   -1.3240    1.0330 ha        1 K66      0.105000
     28 H34A        0.8450   -1.3440    2.1030 ha        1 K66      0.105000
@<TRIPOS>BOND
     1    1    6 1   
     2    1   10 1   
     3    2    3 1   
     4    4    5 1   
     5    4    7 1   
     6    5    6 1   
     7    6    9 1   
     8   11   13 1   
     9   12   13 1   
    10   14   15 1   
    11   14   16 1   
    12   15   21 1   
    13   15   22 1   
    14   15   23 1   
    15   16   24 1   
    16   16   25 1   
    17   16   26 1   
    18   17   18 1   
    19   17   27 1   
    20   17   28 1   
    21   18   19 1   
    22   18   20 1   
@<TRIPOS>SUBSTRUCTURE
     1 K66         1 TEMP              0 ****  ****    0 ROOT
