@<TRIPOS>MOLECULE
K66
   28    29     1     0     0
SMALL
bcc


@<TRIPOS>ATOM
      1 C1         -0.1270    0.3650    0.0720 ca        1 K66      0.038100
      2 C2          1.2700    0.2640    0.0380 ca        1 K66      0.106400
      3 C3          2.0240    0.0160    1.2690 ca        1 K66     -0.035200
      4 C4          1.3430   -0.1380    2.4860 ca        1 K66      0.024100
      5 C5         -0.0510   -0.0280    2.4780 ca        1 K66     -0.006900
      6 C6         -0.7760    0.2210    1.2960 ca        1 K66     -0.011900
      7 BR13        2.2230   -0.4960    4.0930 br        1 K66     -0.030100
      8 BR15       -0.9950   -0.2150    4.0890 br        1 K66     -0.075100
      9 BR17       -2.6440    0.3590    1.3640 br        1 K66     -0.080100
     10 BR19       -1.0790    0.6880   -1.5030 br        1 K66     -0.068100
     11 N21         2.1420    0.3680   -1.0420 nc        1 K66     -0.620100
     12 N23         3.3730    0.0170    0.9050 na        1 K66     -0.066300
     13 C25         3.3970    0.2050   -0.5090 cd        1 K66      0.602700
     14 N28         4.6280    0.3090   -1.2280 nh        1 K66     -0.669600
     15 C30         5.2930   -0.9630   -1.4360 c3        1 K66      0.151600
     16 C32         4.5330    1.1100   -2.4320 c3        1 K66      0.151600
     17 C34         4.5220   -0.2220    1.7360 c3        1 K66     -0.129700
     18 C36         4.9280   -1.7100    2.0090 c         1 K66      0.915600
     19 O38         5.6570   -1.8690    3.0220 o         1 K66     -0.811300
     20 O40         4.5660   -2.6100    1.2070 o         1 K66     -0.811300
     21 H30         4.8760   -1.5230   -2.3160 h1        1 K66      0.049033
     22 H30A        5.2030   -1.6130   -0.5180 h1        1 K66      0.049033
     23 H30B        6.3760   -0.7420   -1.6300 h1        1 K66      0.049033
     24 H32         4.0560    2.0950   -2.1910 h1        1 K66      0.049033
     25 H32A        3.9450    0.6160   -3.2510 h1        1 K66      0.049033
     26 H32B        5.5800    1.2870   -2.7960 h1        1 K66      0.049033
     27 H34         5.4120    0.2650    1.2490 h1        1 K66      0.065700
     28 H34A        4.3490    0.2780    2.7280 h1        1 K66      0.065700
@<TRIPOS>BOND
     1    1    2 ar  
     2    1    6 ar  
     3    1   10 1   
     4    2    3 ar  
     5    2   11 1   
     6    3    4 ar  
     7    3   12 1   
     8    4    5 ar  
     9    4    7 1   
    10    5    6 ar  
    11    5    8 1   
    12    6    9 1   
    13   11   13 2   
    14   12   13 1   
    15   12   17 1   
    16   13   14 1   
    17   14   15 1   
    18   14   16 1   
    19   15   21 1   
    20   15   22 1   
    21   15   23 1   
    22   16   24 1   
    23   16   25 1   
    24   16   26 1   
    25   17   18 1   
    26   17   27 1   
    27   17   28 1   
    28   18   19 1   
    29   18   20 1   
@<TRIPOS>SUBSTRUCTURE
     1 K66         1 TEMP              0 ****  ****    0 ROOT
