@<TRIPOS>MOLECULE
K68
   20    14     1     0     0
SMALL
bcc


@<TRIPOS>ATOM
      1 C1         -2.1680   -0.1400   -1.3930 c1        1 K68     -0.096000
      2 C2         -0.7610   -0.1080   -1.2740 c1        1 K68     -0.029000
      3 C3         -0.1810   -0.1140   -0.0390 c1        1 K68     -0.029000
      4 C4         -0.9880   -0.1510    1.1180 c1        1 K68     -0.128000
      5 C5         -2.3800   -0.1820    1.0000 c1        1 K68     -0.141000
      6 C6         -2.9650   -0.1760   -0.2440 c2        1 K68     -0.158000
      7 BR13       -3.1520   -0.1610   -3.0470 br        1 K68      0.079000
      8 BR15       -4.8250   -0.0550   -0.5420 br        1 K68      0.063000
      9 BR17       -3.7280   -0.2250    2.3970 br        1 K68      0.066000
     10 BR19       -0.9140   -0.2760    3.0040 br        1 K68      0.081000
     11 N21         0.2380   -0.1230   -2.2100 n1        1 K68     -0.155500
     12 C23         1.4350   -0.1370   -1.5520 c1        1 K68      0.018000
     13 N25         1.1770   -0.1310   -0.2080 n1        1 K68     -0.155500
     14 C28         2.2780   -0.3200    0.6550 c2        1 K68     -0.134000
     15 C30         3.0440    0.9660    0.7750 c2        1 K68      0.346000
     16 O32         2.4720    2.0180    1.2620 o         1 K68     -0.549000
     17 O34         4.2310    1.0110    0.4290 o         1 K68     -0.549000
     18 H23         2.3500   -0.0440   -1.9800 DU        1 K68      0.274000
     19 H28         1.9440   -0.6060    1.5760 ha        1 K68      0.098000
     20 H28A        2.8920   -1.0480    0.2730 ha        1 K68      0.098000
@<TRIPOS>BOND
     1    1    6 1   
     2    1    7 1   
     3    2    3 1   
     4    4    5 1   
     5    4   10 1   
     6    5    6 1   
     7    6    8 1   
     8   11   12 1   
     9   12   13 1   
    10   14   15 1   
    11   14   19 1   
    12   14   20 1   
    13   15   16 1   
    14   15   17 1   
@<TRIPOS>SUBSTRUCTURE
     1 K68         1 TEMP              0 ****  ****    0 ROOT
