@<TRIPOS>MOLECULE
K68
   20    21     1     0     0
SMALL
bcc


@<TRIPOS>ATOM
      1 C1         -1.4100    1.1990    0.1050 ca        1 K68      0.044100
      2 C2         -0.1170    1.7260    0.0260 ca        1 K68      0.100400
      3 C3          1.0480    0.8490    0.1980 ca        1 K68     -0.064200
      4 C4          0.8650   -0.5180    0.4400 ca        1 K68      0.012100
      5 C5         -0.4440   -1.0060    0.5110 ca        1 K68     -0.000900
      6 C6         -1.5620   -0.1660    0.3470 ca        1 K68     -0.017900
      7 BR13       -2.8900    2.3170   -0.1140 br        1 K68     -0.061100
      8 BR15       -3.2870   -0.8900    0.4560 br        1 K68     -0.077100
      9 BR17       -0.7230   -2.8330    0.8350 br        1 K68     -0.074100
     10 BR19        2.3010   -1.6920    0.6680 br        1 K68     -0.059100
     11 N21         0.3180    3.0370   -0.2030 nc        1 K68     -0.612100
     12 C23         1.6660    2.9730   -0.1750 cd        1 K68      0.473700
     13 N25         2.1660    1.6810    0.0620 na        1 K68     -0.100300
     14 C28         3.5490    1.2990    0.1480 c3        1 K68     -0.124700
     15 C30         4.6480    2.3970   -0.0350 c         1 K68      0.926600
     16 O32         4.3410    3.5990   -0.2550 o         1 K68     -0.814300
     17 O34         5.8200    1.9500    0.0600 o         1 K68     -0.814300
     18 H23         2.3680    3.8240   -0.3190 h5        1 K68      0.144800
     19 H28         3.7270    0.8420    1.1620 h1        1 K68      0.058700
     20 H28A        3.7490    0.5200   -0.6410 h1        1 K68      0.058700
@<TRIPOS>BOND
     1    1    2 ar  
     2    1    6 ar  
     3    1    7 1   
     4    2    3 ar  
     5    2   11 1   
     6    3    4 ar  
     7    3   13 1   
     8    4    5 ar  
     9    4   10 1   
    10    5    6 ar  
    11    5    9 1   
    12    6    8 1   
    13   11   12 2   
    14   12   13 1   
    15   12   18 1   
    16   13   14 1   
    17   14   15 1   
    18   14   19 1   
    19   14   20 1   
    20   15   16 1   
    21   15   17 1   
@<TRIPOS>SUBSTRUCTURE
     1 K68         1 TEMP              0 ****  ****    0 ROOT
