@<TRIPOS>MOLECULE
K68
   20    21     1     0     0
SMALL
bcc


@<TRIPOS>ATOM
      1 C1         -0.1290    0.0080    0.0190 ca        1 K68      0.044100
      2 C2          1.2400   -0.2640    0.1080 ca        1 K68      0.100400
      3 C3          1.9340   -0.1370    1.3960 ca        1 K68     -0.064200
      4 C4          1.2240    0.2570    2.5370 ca        1 K68      0.012100
      5 C5         -0.1430    0.5200    2.4060 ca        1 K68     -0.000900
      6 C6         -0.8100    0.3980    1.1720 ca        1 K68     -0.017900
      7 Br13       -1.0100   -0.1550   -1.6200 br        1 K68     -0.061100
      8 Br15       -2.6440    0.7670    1.0720 br        1 K68     -0.077100
      9 Br17       -1.1220    1.0500    3.9160 br        1 K68     -0.074100
     10 Br19        2.0430    0.4390    4.2070 br        1 K68     -0.059100
     11 N21         2.1530   -0.6680   -0.8740 nc        1 K68     -0.612100
     12 C23         3.3340   -0.7820   -0.2330 cd        1 K68      0.473700
     13 N25         3.2680   -0.4750    1.1370 na        1 K68     -0.100300
     14 C28         4.3540   -0.5050    2.0760 c3        1 K68     -0.124700
     15 C30         5.7780   -0.9130    1.5710 c         1 K68      0.926600
     16 O32         5.9800   -1.2230    0.3680 o         1 K68     -0.814300
     17 O34         6.6520   -0.8930    2.4750 o         1 K68     -0.814300
     18 H23         4.3030   -1.0860   -0.6890 h5        1 K68      0.144800
     19 H28         4.4620    0.5220    2.5250 h1        1 K68      0.058700
     20 H28A        4.0930   -1.2320    2.8960 h1        1 K68      0.058700
@<TRIPOS>BOND
     1    1    2 ar  
     2    1    6 ar  
     3    1    7 1   
     4    2    3 ar  
     5    2   11 1   
     6    3    4 ar  
     7    3   13 1   
     8    4    5 ar  
     9    4   10 1   
    10    5    6 ar  
    11    5    9 1   
    12    6    8 1   
    13   11   12 2   
    14   12   13 1   
    15   12   18 1   
    16   13   14 1   
    17   14   15 1   
    18   14   19 1   
    19   14   20 1   
    20   15   16 1   
    21   15   17 1   
@<TRIPOS>SUBSTRUCTURE
     1 K68         1 TEMP              0 ****  ****    0 ROOT
