@<TRIPOS>MOLECULE
K68
   20    21     1     0     0
SMALL
bcc


@<TRIPOS>ATOM
      1 C1         -0.1110    0.0050   -0.0130 ca        1 K68      0.044100
      2 C2          1.2580   -0.2580    0.0930 ca        1 K68      0.100400
      3 C3          1.9320   -0.1390    1.3920 ca        1 K68     -0.064200
      4 C4          1.2040    0.2380    2.5260 ca        1 K68      0.012100
      5 C5         -0.1630    0.4930    2.3790 ca        1 K68     -0.000900
      6 C6         -0.8110    0.3790    1.1340 ca        1 K68     -0.017900
      7 BR13       -0.9670   -0.1460   -1.6670 br        1 K68     -0.061100
      8 BR15       -2.6470    0.7360    1.0110 br        1 K68     -0.077100
      9 BR17       -1.1680    1.0010    3.8800 br        1 K68     -0.074100
     10 BR19        1.9970    0.4090    4.2100 br        1 K68     -0.059100
     11 N21         2.1880   -0.6450   -0.8800 nc        1 K68     -0.612100
     12 C23         3.3610   -0.7580   -0.2230 cd        1 K68      0.473700
     13 N25         3.2720   -0.4660    1.1490 na        1 K68     -0.100300
     14 C28         4.3450   -0.4990    2.1040 c3        1 K68     -0.124700
     15 C30         5.7780   -0.8940    1.6160 c         1 K68      0.926600
     16 O32         6.0020   -1.1810    0.4100 o         1 K68     -0.814300
     17 O34         6.6360   -0.8900    2.5350 o         1 K68     -0.814300
     18 H23         4.3380   -1.0500   -0.6680 h5        1 K68      0.144800
     19 H28         4.4410    0.5250    2.5630 h1        1 K68      0.058700
     20 H28A        4.0750   -1.2340    2.9140 h1        1 K68      0.058700
@<TRIPOS>BOND
     1    1    2 ar  
     2    1    6 ar  
     3    1    7 1   
     4    2    3 ar  
     5    2   11 1   
     6    3    4 ar  
     7    3   13 1   
     8    4    5 ar  
     9    4   10 1   
    10    5    6 ar  
    11    5    9 1   
    12    6    8 1   
    13   11   12 2   
    14   12   13 1   
    15   12   18 1   
    16   13   14 1   
    17   14   15 1   
    18   14   19 1   
    19   14   20 1   
    20   15   16 1   
    21   15   17 1   
@<TRIPOS>SUBSTRUCTURE
     1 K68         1 TEMP              0 ****  ****    0 ROOT
