@<TRIPOS>MOLECULE
K6H
   15    15     1     0     0
SMALL
bcc


@<TRIPOS>ATOM
      1 OAB        -3.5830    0.5110   -0.6160 o         1 K6H     -0.616500
      2 CAI        -2.5450    0.2760   -0.0020 c         1 K6H      0.707800
      3 OAG        -1.4870   -0.2410   -0.7340 os        1 K6H     -0.423900
      4 CAE        -2.1420    0.4100    1.4190 ce        1 K6H     -0.300200
      5 CAF        -0.8690   -0.0230    1.5340 c2        1 K6H     -0.074200
      6 CAK        -0.3650   -0.4830    0.1810 c3        1 K6H      0.148300
      7 CAJ         0.8700    0.2730   -0.2700 c3        1 K6H     -0.063300
      8 CLAD        1.5730   -0.5130   -1.6940 cl        1 K6H     -0.224400
      9 CAH         1.9300    0.3430    0.8730 c         1 K6H      0.921600
     10 OAA         1.9330   -0.5810    1.7310 o         1 K6H     -0.813300
     11 OAC         2.6810    1.3500    0.8780 o         1 K6H     -0.813300
     12 HAE        -2.8170    0.8060    2.1730 ha        1 K6H      0.159000
     13 HAK        -0.1880   -1.5920    0.1780 h1        1 K6H      0.106700
     14 HAF        -0.1980   -0.0770    2.3990 ha        1 K6H      0.208000
     15 HAJ         0.6080    1.3050   -0.6070 h1        1 K6H      0.075700
@<TRIPOS>BOND
     1    1    2 2   
     2    2    3 1   
     3    2    4 1   
     4    3    6 1   
     5    4    5 2   
     6    4   12 1   
     7    5    6 1   
     8    5   14 1   
     9    6    7 1   
    10    6   13 1   
    11    7    8 1   
    12    7    9 1   
    13    7   15 1   
    14    9   10 1   
    15    9   11 1   
@<TRIPOS>SUBSTRUCTURE
     1 K6H         1 TEMP              0 ****  ****    0 ROOT
