@<TRIPOS>MOLECULE
K6H
   15    15     1     0     0
SMALL
bcc


@<TRIPOS>ATOM
      1 OAB         0.5310   -0.2580   -1.7450 o         1 K6H     -0.616500
      2 CAI         1.4530   -0.0870   -0.9510 c         1 K6H      0.707800
      3 OAG         1.4160   -0.8300    0.2200 os        1 K6H     -0.423900
      4 CAE         2.6520    0.7840   -0.9440 ce        1 K6H     -0.300200
      5 CAF         3.3170    0.5700    0.2100 c2        1 K6H     -0.074200
      6 CAK         2.5750   -0.4580    1.0400 c3        1 K6H      0.148300
      7 CAJ         3.4230   -1.6740    1.3590 c3        1 K6H     -0.063300
      8 CLAD        2.6080   -2.6780    2.5700 cl        1 K6H     -0.224400
      9 CAH         4.8310   -1.2520    1.8830 c         1 K6H      0.921600
     10 OAA         4.9320   -0.1380    2.4660 o         1 K6H     -0.813300
     11 OAC         5.7780   -2.0410    1.6410 o         1 K6H     -0.813300
     12 HAE         2.8850    1.4480   -1.7720 ha        1 K6H      0.159000
     13 HAK         2.1630    0.0090    1.9760 h1        1 K6H      0.106700
     14 HAF         4.2500    0.9950    0.5980 ha        1 K6H      0.208000
     15 HAJ         3.5340   -2.3310    0.4630 h1        1 K6H      0.075700
@<TRIPOS>BOND
     1    1    2 2   
     2    2    3 1   
     3    2    4 1   
     4    3    6 1   
     5    4    5 2   
     6    4   12 1   
     7    5    6 1   
     8    5   14 1   
     9    6    7 1   
    10    6   13 1   
    11    7    8 1   
    12    7    9 1   
    13    7   15 1   
    14    9   10 1   
    15    9   11 1   
@<TRIPOS>SUBSTRUCTURE
     1 K6H         1 TEMP              0 ****  ****    0 ROOT
