@<TRIPOS>MOLECULE
K6X
   15    16     1     0     0
SMALL
bcc


@<TRIPOS>ATOM
      1 C1          0.8570    0.5400    0.0000 ca        1 K6X      0.070100
      2 C2          1.0890   -0.8350    0.0010 ca        1 K6X     -0.166900
      3 C3         -0.0280   -1.7510    0.0010 ca        1 K6X     -0.024200
      4 C4         -1.3540   -1.2920    0.0010 ca        1 K6X     -0.018900
      5 C5         -1.5540    0.0860    0.0000 ca        1 K6X      0.041100
      6 C6         -0.4640    0.9920    0.0000 ca        1 K6X     -0.025900
      7 BR13        2.2860    1.7370   -0.0000 br        1 K6X     -0.017100
      8 BR15       -0.8060    2.8290   -0.0000 br        1 K6X     -0.024100
      9 BR17       -3.3020    0.7490    0.0000 br        1 K6X     -0.020100
     10 BR19       -2.7630   -2.5100    0.0010 br        1 K6X     -0.035100
     11 N21         0.5230   -3.0380    0.0010 na        1 K6X      0.004900
     12 N23         1.8550   -3.0070    0.0010 nc        1 K6X     -0.457100
     13 C25         2.2590   -1.7120    0.0010 cd        1 K6X      0.291900
     14 BR28        4.0270   -1.2020    0.0010 br        1 K6X      0.035700
     15 HN21        0.0310   -3.9030    0.0010 hn        1 K6X      0.345700
@<TRIPOS>BOND
     1    1    2 ar  
     2    1    6 ar  
     3    1    7 1   
     4    2    3 ar  
     5    2   13 1   
     6    3    4 ar  
     7    3   11 1   
     8    4    5 ar  
     9    4   10 1   
    10    5    6 ar  
    11    5    9 1   
    12    6    8 1   
    13   11   12 1   
    14   11   15 1   
    15   12   13 2   
    16   13   14 1   
@<TRIPOS>SUBSTRUCTURE
     1 K6X         1 TEMP              0 ****  ****    0 ROOT
