@<TRIPOS>MOLECULE
K74
   30    31     1     0     0
SMALL
bcc


@<TRIPOS>ATOM
      1 C1         -0.0130    0.0010   -0.0590 ca        1 K74      0.050100
      2 C2          1.3920    0.0020   -0.0210 ca        1 K74      0.098400
      3 C3          2.0910    0.0000    1.2530 ca        1 K74     -0.028200
      4 C4          1.3770   -0.0020    2.4620 ca        1 K74     -0.002900
      5 C5         -0.0170   -0.0020    2.3900 ca        1 K74      0.027100
      6 C6         -0.7030   -0.0010    1.1500 ca        1 K74     -0.004900
      7 N13         2.3220    0.0030   -1.0670 nc        1 K74     -0.587100
      8 C15         3.5380    0.0030   -0.4680 cd        1 K74      0.360700
      9 N17         3.4580    0.0010    0.9400 na        1 K74     -0.110300
     10 S20         5.0360    0.0040   -1.2830 ss        1 K74     -0.010300
     11 C22         4.4700    0.0060   -2.9680 c3        1 K74     -0.151300
     12 C24         5.6210    0.0080   -3.9110 c         1 K74      0.566100
     13 N26         5.1920    0.0090   -5.3800 n4        1 K74     -0.679800
     14 O28         6.8210    0.0080   -3.7070 o         1 K74     -0.371100
     15 C30         6.3320    0.0100   -6.3230 c3        1 K74      0.079100
     16 BR32       -0.8970    0.0030   -1.6980 br        1 K74     -0.020100
     17 BR34       -2.5700   -0.0020    1.1350 br        1 K74     -0.002100
     18 BR36       -1.0100   -0.0050    3.9730 br        1 K74      0.003900
     19 BR38        2.2390   -0.0040    4.1150 br        1 K74     -0.021100
     20 C40         4.5870    0.0000    1.8180 c3        1 K74      0.015600
     21 H22         3.8220    0.9100   -3.1460 h1        1 K74      0.142700
     22 H22A        3.8220   -0.8980   -3.1480 h1        1 K74      0.142700
     23 HN26        4.6110   -0.8210   -5.5430 hn        1 K74      0.463800
     24 H30         6.9630   -0.9040   -6.1510 hx        1 K74      0.117033
     25 H30A        6.9630    0.9240   -6.1490 hx        1 K74      0.117033
     26 H30B        5.9390    0.0110   -7.3760 hx        1 K74      0.117033
     27 H40         5.5310    0.0010    1.2050 h1        1 K74      0.075367
     28 H40A        4.5720    0.9170    2.4690 h1        1 K74      0.075367
     29 H40B        4.5720   -0.9180    2.4660 h1        1 K74      0.075367
     30 H262        4.6100    0.8400   -5.5420 hn        1 K74      0.463800
@<TRIPOS>BOND
     1    1    2 ar  
     2    1    6 ar  
     3    1   16 1   
     4    2    3 ar  
     5    2    7 1   
     6    3    4 ar  
     7    3    9 1   
     8    4    5 ar  
     9    4   19 1   
    10    5    6 ar  
    11    5   18 1   
    12    6   17 1   
    13    7    8 2   
    14    8    9 1   
    15    8   10 1   
    16    9   20 1   
    17   10   11 1   
    18   11   12 1   
    19   11   21 1   
    20   11   22 1   
    21   12   13 1   
    22   12   14 2   
    23   13   15 1   
    24   13   23 1   
    25   13   30 1   
    26   15   24 1   
    27   15   25 1   
    28   15   26 1   
    29   20   27 1   
    30   20   28 1   
    31   20   29 1   
@<TRIPOS>SUBSTRUCTURE
     1 K74         1 TEMP              0 ****  ****    0 ROOT
