@<TRIPOS>MOLECULE
K74
   29    23     1     0     0
SMALL
bcc


@<TRIPOS>ATOM
      1 C1         -3.4110   -0.4860    1.0670 c1        1 K74     -0.127500
      2 C2         -2.0230   -0.4280    1.0870 c1        1 K74     -0.009500
      3 C3         -1.3560   -0.3870    2.2860 c1        1 K74     -0.009500
      4 C4         -2.0770   -0.4040    3.4920 c1        1 K74     -0.127500
      5 C5         -3.4690   -0.4620    3.4740 c1        1 K74     -0.127500
      6 C6         -4.1350   -0.5030    2.2820 c1        1 K74     -0.127500
      7 N13        -1.0920   -0.3990    0.0910 n1        1 K74     -0.159000
      8 C15         0.1410   -0.3410    0.6690 c1        1 K74     -0.156000
      9 N17        -0.0270   -0.3340    2.0250 n1        1 K74     -0.159000
     10 S20         1.5360   -0.4530   -0.3840 s         1 K74      0.388000
     11 C22         1.1820    0.3380   -1.9320 c3        1 K74     -0.343000
     12 C24         2.4850    0.3760   -2.8090 c2        1 K74      0.318000
     13 N26         2.4150    0.8020   -4.1700 n         1 K74     -0.379000
     14 O28         3.5620   -0.0580   -2.3440 o         1 K74     -0.358000
     15 C30         3.6300    0.9500   -4.9490 c3        1 K74     -0.077000
     16 BR32       -4.4540   -0.3470   -0.5600 br        1 K74      0.105500
     17 BR34       -6.0350   -0.3830    2.3420 br        1 K74      0.105500
     18 BR36       -4.8250   -0.4820    4.8690 br        1 K74      0.105500
     19 BR38       -1.9650   -0.2970    5.4120 br        1 K74      0.105500
     20 C40         1.1130   -0.4310    2.8780 c2        1 K74     -0.079000
     21 H22         0.8640    1.2740   -1.7640 h1        1 K74      0.147000
     22 H22A        0.5090   -0.1490   -2.3860 h1        1 K74      0.147000
     23 HN26        1.5850    0.9880   -4.5590 hn        1 K74      0.229000
     24 H30         4.2630    1.5510   -4.4670 h1        1 K74      0.088000
     25 H30A        3.4120    1.3370   -5.8190 h1        1 K74      0.088000
     26 H30B        4.0410    0.0800   -5.0770 h1        1 K74      0.088000
     27 H40         1.5100    0.4850    3.0140 ha        1 K74      0.108000
     28 H40A        1.7870   -1.0240    2.4610 ha        1 K74      0.108000
     29 H40B        0.8350   -0.8120    3.7690 ha        1 K74      0.108000
@<TRIPOS>BOND
     1    1    6 1   
     2    1   16 1   
     3    2    3 1   
     4    4    5 1   
     5    4   19 1   
     6    5   18 1   
     7    6   17 1   
     8    7    8 1   
     9    8    9 1   
    10   10   11 1   
    11   11   12 1   
    12   11   21 1   
    13   11   22 1   
    14   12   13 1   
    15   12   14 1   
    16   13   15 1   
    17   13   23 1   
    18   15   24 1   
    19   15   25 1   
    20   15   26 1   
    21   20   27 1   
    22   20   28 1   
    23   20   29 1   
@<TRIPOS>SUBSTRUCTURE
     1 K74         1 TEMP              0 ****  ****    0 ROOT
