@<TRIPOS>MOLECULE
K74
   29    30     1     0     0
SMALL
bcc


@<TRIPOS>ATOM
      1 C1          0.3850    1.3310    0.0970 ca        1 K74      0.047100
      2 C2         -0.5800    0.3160    0.0460 ca        1 K74      0.110400
      3 C3         -0.1710   -1.0810   -0.0100 ca        1 K74     -0.035200
      4 C4          1.1860   -1.4270   -0.0140 ca        1 K74     -0.000900
      5 C5          2.1230   -0.3900    0.0380 ca        1 K74      0.015100
      6 C6          1.7310    0.9650    0.0930 ca        1 K74     -0.010900
      7 N13        -1.9790    0.3980    0.0380 nc        1 K74     -0.584100
      8 C15        -2.4200   -0.8810   -0.0200 cd        1 K74      0.394700
      9 N17        -1.3590   -1.8220   -0.0510 na        1 K74     -0.135300
     10 S20        -4.0370   -1.3950   -0.0550 ss        1 K74     -0.018300
     11 C22        -4.9040    0.1480    0.0040 c3        1 K74     -0.132300
     12 C24        -6.3940   -0.1220   -0.0190 c         1 K74      0.674100
     13 N26        -7.2100    0.9880    0.0220 n         1 K74     -0.569900
     14 O28        -6.8630   -1.2760   -0.0730 o         1 K74     -0.597100
     15 C30        -8.6350    0.9030    0.0070 c3        1 K74      0.078300
     16 BR32       -0.1440    3.1170    0.1690 br        1 K74     -0.027100
     17 BR34        3.0390    2.3000    0.1600 br        1 K74     -0.033100
     18 BR36        3.9460   -0.8090    0.0350 br        1 K74     -0.031100
     19 BR38        1.7540   -3.2040   -0.0850 br        1 K74     -0.047100
     20 C40        -1.5300   -3.2380   -0.1130 c3        1 K74      0.019600
     21 H22        -4.6320    0.7110    0.9340 h1        1 K74      0.107700
     22 H22A       -4.6180    0.7880   -0.8700 h1        1 K74      0.107700
     23 HN26       -6.8000    1.8900    0.0640 hn        1 K74      0.315500
     24 H30        -8.9600   -0.1710   -0.0420 h1        1 K74      0.048700
     25 H30A       -9.0570    1.3700    0.9380 h1        1 K74      0.048700
     26 H30B       -9.0430    1.4490   -0.8870 h1        1 K74      0.048700
     27 H40        -1.0660   -3.7240    0.7870 h1        1 K74      0.068700
     28 H40A       -2.6290   -3.4780   -0.1330 h1        1 K74      0.068700
     29 H40B       -1.0510   -3.6460   -1.0450 h1        1 K74      0.068700
@<TRIPOS>BOND
     1    1    2 ar  
     2    1    6 ar  
     3    1   16 1   
     4    2    3 ar  
     5    2    7 1   
     6    3    4 ar  
     7    3    9 1   
     8    4    5 ar  
     9    4   19 1   
    10    5    6 ar  
    11    5   18 1   
    12    6   17 1   
    13    7    8 2   
    14    8    9 1   
    15    8   10 1   
    16    9   20 1   
    17   10   11 1   
    18   11   12 1   
    19   11   21 1   
    20   11   22 1   
    21   12   13 1   
    22   12   14 2   
    23   13   15 1   
    24   13   23 1   
    25   15   24 1   
    26   15   25 1   
    27   15   26 1   
    28   20   27 1   
    29   20   28 1   
    30   20   29 1   
@<TRIPOS>SUBSTRUCTURE
     1 K74         1 TEMP              0 ****  ****    0 ROOT
