@<TRIPOS>MOLECULE
K74
   30    31     1     0     0
SMALL
bcc


@<TRIPOS>ATOM
      1 C1          0.5770    0.1120   -0.9410 ca        1 K74      0.041100
      2 C2          1.9530    0.1010   -0.6440 ca        1 K74      0.095400
      3 C3          2.4130    0.2500    0.7260 ca        1 K74     -0.031200
      4 C4          1.4870    0.4260    1.7740 ca        1 K74     -0.000900
      5 C5          0.1330    0.4340    1.4460 ca        1 K74      0.030100
      6 C6         -0.3190    0.2780    0.1070 ca        1 K74      0.004100
      7 N13         3.0540   -0.0330   -1.4880 nc        1 K74     -0.636100
      8 C15         4.1470    0.0160   -0.6820 cd        1 K74      0.324700
      9 N17         3.8100    0.1750    0.6740 na        1 K74     -0.075300
     10 S20         5.7420   -0.0960   -1.2720 ss        1 K74     -0.034300
     11 C22         5.6300   -1.4280   -2.4050 c3        1 K74     -0.161300
     12 C24         5.2420   -1.1160   -3.8180 c         1 K74      0.549100
     13 N26         4.4390    0.1400   -4.0500 n4        1 K74     -0.668800
     14 O28         5.5020   -1.7970   -4.7980 o         1 K74     -0.399100
     15 C30         4.6070    0.6970   -5.4100 c3        1 K74      0.082100
     16 BR32        0.0150   -0.0930   -2.7060 br        1 K74     -0.025100
     17 BR34       -2.1510    0.2970   -0.2510 br        1 K74      0.012900
     18 BR36       -1.1320    0.6570    2.8010 br        1 K74      0.018900
     19 BR38        2.0330    0.6440    3.5420 br        1 K74     -0.007100
     20 C40         4.7540    0.3030    1.7430 c3        1 K74     -0.000400
     21 H22         4.9340   -2.2400   -2.0470 h1        1 K74      0.162700
     22 H22A        6.6640   -1.8840   -2.4390 h1        1 K74      0.162700
     23 HN26        4.7220    0.8390   -3.3420 hn        1 K74      0.483800
     24 H30         3.9330    1.5880   -5.5240 hx        1 K74      0.112367
     25 H30A        4.3400   -0.0840   -6.1730 hx        1 K74      0.112367
     26 H30B        5.6760    1.0050   -5.5600 hx        1 K74      0.112367
     27 H40         4.5380   -0.4660    2.5340 h1        1 K74      0.083700
     28 H40A        4.6940    1.3310    2.1930 h1        1 K74      0.083700
     29 H40B        5.7920    0.1340    1.3410 h1        1 K74      0.083700
     30 H262        3.4420   -0.0850   -3.8920 hn        1 K74      0.483800
@<TRIPOS>BOND
     1    1    2 ar  
     2    1    6 ar  
     3    1   16 1   
     4    2    3 ar  
     5    2    7 1   
     6    3    4 ar  
     7    3    9 1   
     8    4    5 ar  
     9    4   19 1   
    10    5    6 ar  
    11    5   18 1   
    12    6   17 1   
    13    7    8 2   
    14    8    9 1   
    15    8   10 1   
    16    9   20 1   
    17   10   11 1   
    18   11   12 1   
    19   11   21 1   
    20   11   22 1   
    21   12   13 1   
    22   12   14 2   
    23   13   15 1   
    24   13   23 1   
    25   13   30 1   
    26   15   24 1   
    27   15   25 1   
    28   15   26 1   
    29   20   27 1   
    30   20   28 1   
    31   20   29 1   
@<TRIPOS>SUBSTRUCTURE
     1 K74         1 TEMP              0 ****  ****    0 ROOT
