@<TRIPOS>MOLECULE
K76
   39    41     1     0     0
SMALL
bcc


@<TRIPOS>ATOM
      1 F3          1.3150   -1.1760   -0.5360 f         1 K76     -0.231967
      2 C13         2.5200   -0.5670   -0.7870 c3        1 K76      0.691200
      3 F5          3.3200   -0.9520    0.2610 f         1 K76     -0.231967
      4 F4          3.0250   -1.2510   -1.8660 f         1 K76     -0.231967
      5 C10         2.4320    0.9410   -0.9950 ca        1 K76     -0.182800
      6 C9          3.4890    1.7570   -0.5910 ca        1 K76     -0.026000
      7 C8          3.3990    3.1340   -0.8020 ca        1 K76     -0.182800
      8 C12         4.5550    4.0370   -0.3830 c3        1 K76      0.691200
      9 F8          4.1760    5.2910    0.0260 f         1 K76     -0.231967
     10 F6          5.3050    3.5510    0.6600 f         1 K76     -0.231967
     11 F7          5.4720    4.2680   -1.3790 f         1 K76     -0.231967
     12 C7          2.2730    3.6960   -1.4070 ca        1 K76     -0.024500
     13 C11         1.2970    1.4840   -1.6010 ca        1 K76     -0.024500
     14 C6          1.2150    2.8680   -1.8100 ca        1 K76     -0.118500
     15 C5          0.0340    3.4480   -2.4450 cc        1 K76      0.578500
     16 N2         -0.2050    4.8510   -2.5110 nc        1 K76     -0.680000
     17 C4         -1.3760    4.9550   -3.1520 cd        1 K76      0.456400
     18 N3         -0.9660    2.7280   -3.0420 nd        1 K76     -0.507800
     19 N1         -1.8570    3.6540   -3.4710 na        1 K76     -0.038600
     20 C3         -2.9910    3.3000   -4.2250 c2        1 K76      0.030900
     21 C2         -4.2030    3.8820   -4.2180 ce        1 K76     -0.262200
     22 C1         -4.6400    5.0470   -3.4170 c         1 K76      0.660300
     23 O          -3.9970    6.1140   -3.3580 o         1 K76     -0.592100
     24 N1'        -5.8960    4.9600   -2.8160 n         1 K76     -0.431800
     25 C1'        -6.3090    5.8380   -1.7150 cy        1 K76      0.027000
     26 C3'        -6.4490    3.7330   -2.2360 cy        1 K76      0.027000
     27 C2'        -6.9690    4.5870   -1.0060 cy        1 K76      0.372600
     28 F2         -8.3190    4.6280   -0.8220 f         1 K76     -0.213800
     29 F1         -6.4730    4.2460    0.2180 f         1 K76     -0.213800
     30 H1          4.3780    1.3220   -0.1020 ha        1 K76      0.172000
     31 H2          2.2260    4.7900   -1.5570 ha        1 K76      0.177500
     32 H3          0.4740    0.8140   -1.9040 ha        1 K76      0.177500
     33 H4         -1.9120    5.8820   -3.4130 h5        1 K76      0.117100
     34 H5         -2.8270    2.4010   -4.8610 h4        1 K76      0.173000
     35 H7         -4.9750    3.4720   -4.8950 ha        1 K76      0.171000
     36 H9         -5.4710    6.3060   -1.1450 h1        1 K76      0.091950
     37 H10        -7.0470    6.6060   -2.0470 h1        1 K76      0.091950
     38 H11        -5.7050    2.9490   -1.9620 h1        1 K76      0.091950
     39 H12        -7.2710    3.3080   -2.8600 h1        1 K76      0.091950
@<TRIPOS>BOND
     1    1    2 1   
     2    2    3 1   
     3    2    4 1   
     4    2    5 1   
     5    5    6 ar  
     6    5   13 ar  
     7    6    7 ar  
     8    6   30 1   
     9    7    8 1   
    10    7   12 ar  
    11    8    9 1   
    12    8   10 1   
    13    8   11 1   
    14   12   14 ar  
    15   12   31 1   
    16   13   14 ar  
    17   13   32 1   
    18   14   15 1   
    19   15   16 1   
    20   15   18 2   
    21   16   17 2   
    22   17   19 1   
    23   17   33 1   
    24   18   19 1   
    25   19   20 1   
    26   20   21 2   
    27   20   34 1   
    28   21   22 1   
    29   21   35 1   
    30   22   23 2   
    31   22   24 1   
    32   24   25 1   
    33   24   26 1   
    34   25   27 1   
    35   25   36 1   
    36   25   37 1   
    37   26   27 1   
    38   26   38 1   
    39   26   39 1   
    40   27   28 1   
    41   27   29 1   
@<TRIPOS>SUBSTRUCTURE
     1 K76         1 TEMP              0 ****  ****    0 ROOT
