@<TRIPOS>MOLECULE
K78
   50    51     1     0     0
SMALL
bcc


@<TRIPOS>ATOM
      1 C1         -0.1570   -0.0150   -0.2230 c3        1 K78     -0.092100
      2 C2          1.3640   -0.1480   -0.1910 c3        1 K78     -0.013700
      3 C3          1.8290   -0.3020    1.2550 c3        1 K78     -0.092100
      4 C4          1.7480   -1.4110   -0.9530 c3        1 K78     -0.092100
      5 C5          1.9840    1.0910   -0.7850 ca        1 K78     -0.073300
      6 C6          1.7270    2.3330   -0.1900 ca        1 K78     -0.054000
      7 C7          2.2730    3.5080   -0.7100 ca        1 K78     -0.211300
      8 C8          3.1080    3.4420   -1.8450 ca        1 K78      0.159100
      9 C9          3.3750    2.2050   -2.4540 ca        1 K78     -0.103900
     10 C10         2.8060    1.0460   -1.9170 ca        1 K78     -0.029000
     11 Br          4.4650    2.0700   -3.9690 br        1 K78     -0.030100
     12 O12         3.6340    4.6420   -2.2620 oh        1 K78     -0.545100
     13 C13         1.9190    4.8300   -0.1240 c3        1 K78      0.191100
     14 N14         3.1260    5.5310    0.4260 ny        1 K78     -0.766000
     15 C15         2.7770    6.8350    1.0610 c3        1 K78      0.100800
     16 C16         3.9980    7.5580    1.6150 c3        1 K78     -0.108400
     17 C17         3.5630    8.8700    2.2470 c3        1 K78     -0.024100
     18 C18         4.7390    9.6050    2.7870 ca        1 K78     -0.112300
     19 C19         5.5310   10.3850    1.9360 ca        1 K78     -0.122000
     20 C20         6.6240   11.0850    2.4420 ca        1 K78     -0.120000
     21 C21         6.9330   11.0120    3.8010 ca        1 K78     -0.110000
     22 C22         6.1440   10.2390    4.6530 ca        1 K78     -0.120000
     23 C23         5.0500    9.5380    4.1490 ca        1 K78     -0.122000
     24 H11C       -0.5140    0.1100   -1.2730 hc        1 K78      0.045478
     25 H12C       -0.6240   -0.9340    0.2050 hc        1 K78      0.045478
     26 H13C       -0.4920    0.8640    0.3780 hc        1 K78      0.045478
     27 H31C        1.3770   -1.2230    1.6980 hc        1 K78      0.045478
     28 H32C        2.9400   -0.3960    1.2980 hc        1 K78      0.045478
     29 H33C        1.5150    0.5740    1.8690 hc        1 K78      0.045478
     30 H41C        1.2670   -2.2970   -0.4700 hc        1 K78      0.045478
     31 H42C        2.8540   -1.5640   -0.9360 hc        1 K78      0.045478
     32 H43C        1.3960   -1.3580   -2.0110 hc        1 K78      0.045478
     33 H6          1.0710    2.3860    0.6960 ha        1 K78      0.151000
     34 H10         3.0180    0.0780   -2.4070 ha        1 K78      0.177000
     35 H131        1.4840    5.4980   -0.9240 hx        1 K78      0.107700
     36 H132        1.1720    4.7170    0.7120 hx        1 K78      0.107700
     37 H12         4.0710    4.5160   -3.1230 ho        1 K78      0.467000
     38 H14         3.5880    4.9260    1.1140 hn        1 K78      0.457300
     39 H151        2.2700    7.4730    0.2820 hx        1 K78      0.102200
     40 H152        2.0400    6.6310    1.8910 hx        1 K78      0.102200
     41 H161        4.7360    7.7700    0.7960 hc        1 K78      0.070200
     42 H162        4.5130    6.9270    2.3870 hc        1 K78      0.070200
     43 H171        3.0420    9.5030    1.4780 hc        1 K78      0.058700
     44 H172        2.8260    8.6650    3.0690 hc        1 K78      0.058700
     45 H19         5.2840   10.4540    0.8660 ha        1 K78      0.129000
     46 H23         4.4250    8.9380    4.8280 ha        1 K78      0.129000
     47 H20         7.2410   11.7010    1.7700 ha        1 K78      0.144500
     48 H21         7.7950   11.5690    4.2010 ha        1 K78      0.147000
     49 H22         6.3820   10.1870    5.7270 ha        1 K78      0.144500
     50 H142        3.7920    5.6910   -0.3440 hn        1 K78      0.457300
@<TRIPOS>BOND
     1    1    2 1   
     2    1   24 1   
     3    1   25 1   
     4    1   26 1   
     5    2    3 1   
     6    2    4 1   
     7    2    5 1   
     8    3   27 1   
     9    3   28 1   
    10    3   29 1   
    11    4   30 1   
    12    4   31 1   
    13    4   32 1   
    14    5    6 ar  
    15    5   10 ar  
    16    6    7 ar  
    17    6   33 1   
    18    7    8 ar  
    19    7   13 1   
    20    8    9 ar  
    21    8   12 1   
    22    9   10 ar  
    23    9   11 1   
    24   10   34 1   
    25   12   37 1   
    26   13   14 1   
    27   13   35 1   
    28   13   36 1   
    29   14   15 1   
    30   14   38 1   
    31   14   50 1   
    32   15   16 1   
    33   15   39 1   
    34   15   40 1   
    35   16   17 1   
    36   16   41 1   
    37   16   42 1   
    38   17   18 1   
    39   17   43 1   
    40   17   44 1   
    41   18   19 ar  
    42   18   23 ar  
    43   19   20 ar  
    44   19   45 1   
    45   20   21 ar  
    46   20   47 1   
    47   21   22 ar  
    48   21   48 1   
    49   22   23 ar  
    50   22   49 1   
    51   23   46 1   
@<TRIPOS>SUBSTRUCTURE
     1 K78         1 TEMP              0 ****  ****    0 ROOT
