@<TRIPOS>MOLECULE
K78
   50    51     1     0     0
SMALL
bcc


@<TRIPOS>ATOM
      1 C1         -0.1570   -0.0150   -0.2170 c3        1 K78     -0.092100
      2 C2          1.3640   -0.1480   -0.1880 c3        1 K78     -0.013700
      3 C3          1.8320   -0.3020    1.2570 c3        1 K78     -0.092100
      4 C4          1.7470   -1.4110   -0.9500 c3        1 K78     -0.092100
      5 C5          1.9830    1.0920   -0.7830 ca        1 K78     -0.073300
      6 C6          1.7270    2.3330   -0.1880 ca        1 K78     -0.054000
      7 C7          2.2710    3.5080   -0.7090 ca        1 K78     -0.211300
      8 C8          3.1040    3.4420   -1.8460 ca        1 K78      0.159100
      9 C9          3.3700    2.2060   -2.4550 ca        1 K78     -0.103900
     10 C10         2.8030    1.0460   -1.9170 ca        1 K78     -0.029000
     11 BR          4.4570    2.0710   -3.9720 br        1 K78     -0.030100
     12 O12         3.6290    4.6430   -2.2640 oh        1 K78     -0.545100
     13 C13         1.9190    4.8300   -0.1230 c3        1 K78      0.191100
     14 N14         3.1270    5.5320    0.4250 n4        1 K78     -0.766000
     15 C15         2.7780    6.8350    1.0610 c3        1 K78      0.100800
     16 C16         4.0000    7.5580    1.6130 c3        1 K78     -0.108400
     17 C17         3.5660    8.8700    2.2460 c3        1 K78     -0.024100
     18 C18         4.7430    9.6040    2.7860 ca        1 K78     -0.113300
     19 C19         5.5330   10.3860    1.9350 ca        1 K78     -0.122000
     20 C20         6.6270   11.0860    2.4410 ca        1 K78     -0.120000
     21 C21         6.9380   11.0100    3.7990 ca        1 K78     -0.110000
     22 C22         6.1510   10.2350    4.6510 ca        1 K78     -0.120000
     23 C23         5.0560    9.5340    4.1470 ca        1 K78     -0.122000
     24 H11C       -0.5160    0.1100   -1.2670 hc        1 K78      0.045478
     25 H12C       -0.6230   -0.9340    0.2120 hc        1 K78      0.045478
     26 H13C       -0.4910    0.8630    0.3840 hc        1 K78      0.045478
     27 H31C        1.5200    0.5750    1.8720 hc        1 K78      0.045478
     28 H32C        1.3810   -1.2220    1.7020 hc        1 K78      0.045478
     29 H33C        2.9440   -0.3950    1.2980 hc        1 K78      0.045478
     30 H41C        2.8530   -1.5630   -0.9360 hc        1 K78      0.045478
     31 H42C        1.3930   -1.3590   -2.0080 hc        1 K78      0.045478
     32 H43C        1.2670   -2.2970   -0.4660 hc        1 K78      0.045478
     33 H6          1.0730    2.3860    0.6990 ha        1 K78      0.151000
     34 H10         3.0140    0.0780   -2.4080 ha        1 K78      0.177000
     35 H131        1.4810    5.4980   -0.9220 hx        1 K78      0.107700
     36 H132        1.1730    4.7170    0.7150 hx        1 K78      0.107700
     37 H12         4.0650    4.5160   -3.1260 ho        1 K78      0.467000
     38 H14         3.7910    5.6920   -0.3470 hn        1 K78      0.457300
     39 H151        2.2700    7.4740    0.2830 hx        1 K78      0.102200
     40 H152        2.0430    6.6310    1.8920 hx        1 K78      0.102200
     41 H161        4.5170    6.9270    2.3840 hc        1 K78      0.070700
     42 H162        4.7370    7.7710    0.7930 hc        1 K78      0.070700
     43 H171        2.8300    8.6650    3.0700 hc        1 K78      0.058700
     44 H172        3.0450    9.5030    1.4790 hc        1 K78      0.058700
     45 H19         5.2840   10.4570    0.8660 ha        1 K78      0.129500
     46 H23         4.4340    8.9320    4.8260 ha        1 K78      0.129500
     47 H20         7.2420   11.7030    1.7680 ha        1 K78      0.144500
     48 H21         7.8000   11.5660    4.1980 ha        1 K78      0.147000
     49 H22         6.3910   10.1800    5.7240 ha        1 K78      0.144500
     50 H142        3.5900    4.9270    1.1120 hn        1 K78      0.457300
@<TRIPOS>BOND
     1    1    2 1   
     2    1   24 1   
     3    1   25 1   
     4    1   26 1   
     5    2    3 1   
     6    2    4 1   
     7    2    5 1   
     8    3   27 1   
     9    3   28 1   
    10    3   29 1   
    11    4   30 1   
    12    4   31 1   
    13    4   32 1   
    14    5    6 ar  
    15    5   10 ar  
    16    6    7 ar  
    17    6   33 1   
    18    7    8 ar  
    19    7   13 1   
    20    8    9 ar  
    21    8   12 1   
    22    9   10 ar  
    23    9   11 1   
    24   10   34 1   
    25   12   37 1   
    26   13   14 1   
    27   13   35 1   
    28   13   36 1   
    29   14   15 1   
    30   14   38 1   
    31   14   50 1   
    32   15   16 1   
    33   15   39 1   
    34   15   40 1   
    35   16   17 1   
    36   16   41 1   
    37   16   42 1   
    38   17   18 1   
    39   17   43 1   
    40   17   44 1   
    41   18   19 ar  
    42   18   23 ar  
    43   19   20 ar  
    44   19   45 1   
    45   20   21 ar  
    46   20   47 1   
    47   21   22 ar  
    48   21   48 1   
    49   22   23 ar  
    50   22   49 1   
    51   23   46 1   
@<TRIPOS>SUBSTRUCTURE
     1 K78         1 TEMP              0 ****  ****    0 ROOT
