@<TRIPOS>MOLECULE
K7I
   47    47     1     0     0
SMALL
bcc


@<TRIPOS>ATOM
      1 CAK        -1.9670   -2.0210    0.7300 ca        1 K7I     -0.126000
      2 CAI        -1.5070   -3.2460    0.2480 ca        1 K7I     -0.124500
      3 CAH        -1.5740   -3.5320   -1.1150 ca        1 K7I     -0.131000
      4 CAJ        -2.1040   -2.5890   -1.9970 ca        1 K7I     -0.124500
      5 CAL        -2.5640   -1.3640   -1.5170 ca        1 K7I     -0.126000
      6 CAR        -2.4980   -1.0710   -0.1500 ca        1 K7I     -0.085300
      7 CAM        -2.9990    0.2320    0.3600 c3        1 K7I     -0.055100
      8 CAV        -1.9970    1.3790    0.1250 c3        1 K7I      0.070700
      9 OAG        -3.8270    2.8900   -0.3540 oh        1 K7I     -0.598800
     10 NAO        -0.7570    1.1870    0.8400 n         1 K7I     -0.549900
     11 CAQ         0.4680    1.4180    0.2550 c         1 K7I      0.634100
     12 OAF         0.5760    1.9290   -0.8790 o         1 K7I     -0.621100
     13 CAU         1.7270    1.0850    1.1000 c3        1 K7I      0.034700
     14 CAC         2.1380    2.3840    1.7960 c3        1 K7I     -0.103100
     15 NAN         2.7700    0.5350    0.2700 n         1 K7I     -0.547900
     16 C           3.1670   -0.7850    0.3690 c         1 K7I      0.612100
     17 O           2.7780   -1.5140    1.3050 o         1 K7I     -0.622100
     18 CA          4.1700   -1.3050   -0.6910 c3        1 K7I      0.109500
     19 CB          3.4300   -1.4200   -2.0230 c3        1 K7I     -0.099100
     20 N           4.8220   -2.5380   -0.3090 n3        1 K7I     -0.883800
     21 CAT        -2.7060    2.7150    0.4990 c3        1 K7I      0.129100
     22 CAB        -1.7690    3.9030    0.4150 c3        1 K7I     -0.132100
     23 HAK        -1.9140   -1.8030    1.8060 ha        1 K7I      0.129500
     24 HAI        -1.0870   -3.9850    0.9460 ha        1 K7I      0.133500
     25 HAH        -1.2120   -4.4980   -1.4940 ha        1 K7I      0.132000
     26 HAJ        -2.1600   -2.8120   -3.0720 ha        1 K7I      0.133500
     27 HAL        -2.9820   -0.6220   -2.2140 ha        1 K7I      0.129500
     28 HAM        -3.9500    0.5130   -0.1710 hc        1 K7I      0.066700
     29 HAMA       -3.2400    0.1560    1.4540 hc        1 K7I      0.066700
     30 HAV        -1.7610    1.4230   -0.9830 h1        1 K7I      0.081700
     31 HOAG       -3.4900    3.0830   -1.2380 ho        1 K7I      0.402000
     32 HNAO       -0.7990    0.6530    1.6750 hn        1 K7I      0.313500
     33 HAU         1.4770    0.3140    1.8910 h1        1 K7I      0.097700
     34 HAC         3.0220    2.2080    2.4550 hc        1 K7I      0.051700
     35 HACA        2.3950    3.1730    1.0490 hc        1 K7I      0.051700
     36 HACB        1.2860    2.7450    2.4210 hc        1 K7I      0.051700
     37 HNAN        2.9690    1.0370   -0.5660 hn        1 K7I      0.324500
     38 HA          4.9900   -0.5310   -0.7970 h1        1 K7I      0.076700
     39 HB          3.0850   -0.4120   -2.3550 hc        1 K7I      0.051367
     40 HBA         4.1090   -1.8360   -2.8060 hc        1 K7I      0.051367
     41 HBB         2.5420   -2.0910   -1.9290 hc        1 K7I      0.051367
     42 HN          5.2060   -2.4530    0.6130 hn        1 K7I      0.360300
     43 HNA         4.1670   -3.2970   -0.3110 hn        1 K7I      0.360300
     44 HAT        -3.1600    2.6350    1.5260 h1        1 K7I      0.072700
     45 HAB        -1.1230    3.8320   -0.4940 hc        1 K7I      0.050700
     46 HABA       -2.3620    4.8480    0.3670 hc        1 K7I      0.050700
     47 HABB       -1.1090    3.9400    1.3140 hc        1 K7I      0.050700
@<TRIPOS>BOND
     1    1    2 ar  
     2    1    6 ar  
     3    1   23 1   
     4    2    3 ar  
     5    2   24 1   
     6    3    4 ar  
     7    3   25 1   
     8    4    5 ar  
     9    4   26 1   
    10    5    6 ar  
    11    5   27 1   
    12    6    7 1   
    13    7    8 1   
    14    7   28 1   
    15    7   29 1   
    16    8   10 1   
    17    8   21 1   
    18    8   30 1   
    19    9   21 1   
    20    9   31 1   
    21   10   11 1   
    22   10   32 1   
    23   11   12 2   
    24   11   13 1   
    25   13   14 1   
    26   13   15 1   
    27   13   33 1   
    28   14   34 1   
    29   14   35 1   
    30   14   36 1   
    31   15   16 1   
    32   15   37 1   
    33   16   17 2   
    34   16   18 1   
    35   18   19 1   
    36   18   20 1   
    37   18   38 1   
    38   19   39 1   
    39   19   40 1   
    40   19   41 1   
    41   20   42 1   
    42   20   43 1   
    43   21   22 1   
    44   21   44 1   
    45   22   45 1   
    46   22   46 1   
    47   22   47 1   
@<TRIPOS>SUBSTRUCTURE
     1 K7I         1 TEMP              0 ****  ****    0 ROOT
