@<TRIPOS>MOLECULE
K7I
   50    50     1     0     0
SMALL
bcc


@<TRIPOS>ATOM
      1 CAK        -0.2770    0.7620   -0.0090 ca        1 K7I     -0.142000
      2 CAI         1.0230    1.2590   -0.0600 ca        1 K7I     -0.102500
      3 CAH         1.7730    1.3810    1.1140 ca        1 K7I     -0.082000
      4 CAJ         1.2170    1.0070    2.3370 ca        1 K7I     -0.102500
      5 CAL        -0.0860    0.5080    2.3930 ca        1 K7I     -0.142000
      6 CAR        -0.8390    0.3810    1.2200 ca        1 K7I     -0.186300
      7 CAM        -2.2530   -0.0740    1.2790 c3        1 K7I     -0.054100
      8 CAV        -2.3570   -1.6020    1.1800 c3        1 K7I      0.133500
      9 OAG        -3.7790   -3.5020    1.0300 oh        1 K7I     -0.695800
     10 NAO        -1.6070   -2.0850   -0.0660 ny        1 K7I     -0.654800
     11 CAQ        -1.3180   -3.5300   -0.0120 c         1 K7I      0.542100
     12 OAF        -0.7850   -4.0060    0.9860 o         1 K7I     -0.409100
     13 CAU        -1.6400   -4.4040   -1.2460 c3        1 K7I      0.075500
     14 CAC        -2.9330   -4.0010   -1.9370 c3        1 K7I     -0.170100
     15 NAN        -1.6790   -5.8680   -0.8210 ny        1 K7I     -0.672800
     16 C          -1.0530   -6.8210   -1.8020 c         1 K7I      0.510100
     17 O          -0.4660   -6.3680   -2.7700 o         1 K7I     -0.357100
     18 CA         -1.2080   -8.3210   -1.4860 c3        1 K7I      0.077500
     19 CB         -0.6810   -8.6330   -0.0890 c3        1 K7I     -0.171100
     20 N          -0.5180   -9.1530   -2.5310 nz        1 K7I     -0.843600
     21 CAT        -3.8220   -2.0800    1.1930 c3        1 K7I      0.120100
     22 CAB        -4.7050   -1.4700    0.1250 c3        1 K7I     -0.143100
     23 HAK        -0.8890    0.7550   -0.9240 ha        1 K7I      0.136000
     24 HAI         1.4520    1.5890   -1.0210 ha        1 K7I      0.170500
     25 HAH         2.7940    1.7980    1.0750 ha        1 K7I      0.177000
     26 HAJ         1.7980    1.1270    3.2680 ha        1 K7I      0.170500
     27 HAL        -0.5280    0.2460    3.3680 ha        1 K7I      0.136000
     28 HAM        -2.7170    0.2170    2.2650 hc        1 K7I      0.109200
     29 HAMA       -2.8560    0.4190    0.4690 hc        1 K7I      0.109200
     30 HAV        -1.8120   -2.0690    2.0590 hx        1 K7I      0.134700
     31 HOAG       -4.5230   -3.8670    1.5300 ho        1 K7I      0.464000
     32 HNAO       -0.7080   -1.5440   -0.0900 hn        1 K7I      0.492800
     33 HAU        -0.7630   -4.2800   -1.9660 hx        1 K7I      0.169700
     34 HAC        -3.2600   -4.7680   -2.6860 hc        1 K7I      0.115700
     35 HACA       -3.7640   -3.8370   -1.2000 hc        1 K7I      0.115700
     36 HACB       -2.7670   -3.0560   -2.5210 hc        1 K7I      0.115700
     37 HNAN       -2.6680   -6.1310   -0.6730 hn        1 K7I      0.497300
     38 HA         -2.3180   -8.5810   -1.5460 hx        1 K7I      0.166700
     39 HB          0.3530   -8.2360    0.0710 hc        1 K7I      0.119367
     40 HBA        -1.3710   -8.2080    0.6850 hc        1 K7I      0.119367
     41 HBB        -0.6560   -9.7430    0.0970 hc        1 K7I      0.119367
     42 HN         -0.7530  -10.1490   -2.3720 hn        1 K7I      0.500133
     43 HNA         0.5060   -9.0480   -2.4670 hn        1 K7I      0.500133
     44 HAT        -4.2270   -1.8170    2.2160 h1        1 K7I      0.124700
     45 HAB        -5.7240   -1.9340    0.1730 hc        1 K7I      0.073033
     46 HABA       -4.3000   -1.6360   -0.9010 hc        1 K7I      0.073033
     47 HABB       -4.8270   -0.3700    0.2970 hc        1 K7I      0.073033
     48 HAO2       -2.1640   -1.8440   -0.8940 hn        1 K7I      0.492800
     49 HAN2       -1.1800   -5.9730    0.0870 hn        1 K7I      0.497300
     50 HN3        -0.8180   -8.8860   -3.4810 hn        1 K7I      0.500133
@<TRIPOS>BOND
     1    1    2 ar  
     2    1    6 ar  
     3    1   23 1   
     4    2    3 ar  
     5    2   24 1   
     6    3    4 ar  
     7    3   25 1   
     8    4    5 ar  
     9    4   26 1   
    10    5    6 ar  
    11    5   27 1   
    12    6    7 1   
    13    7    8 1   
    14    7   28 1   
    15    7   29 1   
    16    8   10 1   
    17    8   21 1   
    18    8   30 1   
    19    9   21 1   
    20    9   31 1   
    21   10   11 1   
    22   10   32 1   
    23   10   48 1   
    24   11   12 2   
    25   11   13 1   
    26   13   14 1   
    27   13   15 1   
    28   13   33 1   
    29   14   34 1   
    30   14   35 1   
    31   14   36 1   
    32   15   16 1   
    33   15   37 1   
    34   15   49 1   
    35   16   17 2   
    36   16   18 1   
    37   18   19 1   
    38   18   20 1   
    39   18   38 1   
    40   19   39 1   
    41   19   40 1   
    42   19   41 1   
    43   20   42 1   
    44   20   43 1   
    45   20   50 1   
    46   21   22 1   
    47   21   44 1   
    48   22   45 1   
    49   22   46 1   
    50   22   47 1   
@<TRIPOS>SUBSTRUCTURE
     1 K7I         1 TEMP              0 ****  ****    0 ROOT
