@<TRIPOS>MOLECULE
K7I
   50    50     1     0     0
SMALL
bcc


@<TRIPOS>ATOM
      1 CAK        -0.2660    0.7580    0.0310 ca        1 K7I     -0.142000
      2 CAI         1.0360    1.2530   -0.0040 ca        1 K7I     -0.102500
      3 CAH         1.7760    1.3650    1.1770 ca        1 K7I     -0.082000
      4 CAJ         1.2080    0.9830    2.3930 ca        1 K7I     -0.102500
      5 CAL        -0.0970    0.4870    2.4330 ca        1 K7I     -0.142000
      6 CAR        -0.8390    0.3700    1.2530 ca        1 K7I     -0.186300
      7 CAM        -2.2550   -0.0820    1.2960 c3        1 K7I     -0.054100
      8 CAV        -2.3610   -1.6090    1.1850 c3        1 K7I      0.133500
      9 OAG        -3.7870   -3.5040    1.0080 oh        1 K7I     -0.695800
     10 NAO        -1.6020   -2.0850   -0.0580 n4        1 K7I     -0.654800
     11 CAQ        -1.3170   -3.5300   -0.0120 c         1 K7I      0.542100
     12 OAF        -0.7930   -4.0160    0.9860 o         1 K7I     -0.409100
     13 CAU        -1.6310   -4.3960   -1.2550 c3        1 K7I      0.075500
     14 CAC        -2.9160   -3.9820   -1.9550 c3        1 K7I     -0.170100
     15 NAN        -1.6800   -5.8620   -0.8400 n4        1 K7I     -0.672800
     16 C          -1.0530   -6.8110   -1.8230 c         1 K7I      0.510100
     17 O          -0.4590   -6.3550   -2.7850 o         1 K7I     -0.357100
     18 CA         -1.2150   -8.3130   -1.5160 c3        1 K7I      0.077500
     19 CB         -0.6950   -8.6350   -0.1190 c3        1 K7I     -0.171100
     20 N          -0.5230   -9.1410   -2.5630 n4        1 K7I     -0.843600
     21 CAT        -3.8280   -2.0830    1.1810 c3        1 K7I      0.120100
     22 CAB        -4.7000   -1.4630    0.1110 c3        1 K7I     -0.143100
     23 HAK        -0.8690    0.7600   -0.8890 ha        1 K7I      0.136000
     24 HAI         1.4740    1.5880   -0.9590 ha        1 K7I      0.170500
     25 HAH         2.7980    1.7800    1.1500 ha        1 K7I      0.177000
     26 HAJ         1.7810    1.0950    3.3300 ha        1 K7I      0.170500
     27 HAL        -0.5470    0.2190    3.4020 ha        1 K7I      0.136000
     28 HAM        -2.8500    0.4180    0.4840 hc        1 K7I      0.109200
     29 HAMA       -2.7270    0.2030    2.2800 hc        1 K7I      0.109200
     30 HAV        -1.8250   -2.0840    2.0650 hx        1 K7I      0.134700
     31 HOAG       -4.5360   -3.8710    1.4980 ho        1 K7I      0.464000
     32 HNAO       -2.1510   -1.8370   -0.8890 hn        1 K7I      0.492800
     33 HAU        -0.7470   -4.2710   -1.9660 hx        1 K7I      0.169700
     34 HAC        -3.7530   -3.8210   -1.2240 hc        1 K7I      0.115367
     35 HACA       -2.7410   -3.0340   -2.5310 hc        1 K7I      0.115367
     36 HACB       -3.2380   -4.7430   -2.7130 hc        1 K7I      0.115367
     37 HNAN       -1.1880   -5.9750    0.0700 hn        1 K7I      0.497300
     38 HA         -2.3250   -8.5680   -1.5830 hx        1 K7I      0.166700
     39 HB         -0.6750   -9.7460    0.0600 hc        1 K7I      0.119367
     40 HBA        -1.3870   -8.2120    0.6540 hc        1 K7I      0.119367
     41 HBB         0.3400   -8.2430    0.0480 hc        1 K7I      0.119367
     42 HN         -0.7620  -10.1370   -2.4110 hn        1 K7I      0.500133
     43 HNA        -0.8180   -8.8680   -3.5130 hn        1 K7I      0.500133
     44 HAT        -4.2410   -1.8270    2.2030 h1        1 K7I      0.124700
     45 HAB        -4.8220   -0.3650    0.2900 hc        1 K7I      0.073033
     46 HABA       -4.2860   -1.6220   -0.9130 hc        1 K7I      0.073033
     47 HABB       -5.7200   -1.9260    0.1450 hc        1 K7I      0.073033
     48 HAO2       -0.7010   -1.5460   -0.0700 hn        1 K7I      0.492800
     49 HAN2       -2.6710   -6.1210   -0.7000 hn        1 K7I      0.497300
     50 HN3         0.5010   -9.0400   -2.4950 hn        1 K7I      0.500133
@<TRIPOS>BOND
     1    1    2 ar  
     2    1    6 ar  
     3    1   23 1   
     4    2    3 ar  
     5    2   24 1   
     6    3    4 ar  
     7    3   25 1   
     8    4    5 ar  
     9    4   26 1   
    10    5    6 ar  
    11    5   27 1   
    12    6    7 1   
    13    7    8 1   
    14    7   28 1   
    15    7   29 1   
    16    8   10 1   
    17    8   21 1   
    18    8   30 1   
    19    9   21 1   
    20    9   31 1   
    21   10   11 1   
    22   10   32 1   
    23   10   48 1   
    24   11   12 2   
    25   11   13 1   
    26   13   14 1   
    27   13   15 1   
    28   13   33 1   
    29   14   34 1   
    30   14   35 1   
    31   14   36 1   
    32   15   16 1   
    33   15   37 1   
    34   15   49 1   
    35   16   17 2   
    36   16   18 1   
    37   18   19 1   
    38   18   20 1   
    39   18   38 1   
    40   19   39 1   
    41   19   40 1   
    42   19   41 1   
    43   20   42 1   
    44   20   43 1   
    45   20   50 1   
    46   21   22 1   
    47   21   44 1   
    48   22   45 1   
    49   22   46 1   
    50   22   47 1   
@<TRIPOS>SUBSTRUCTURE
     1 K7I         1 TEMP              0 ****  ****    0 ROOT
