@<TRIPOS>MOLECULE
K7I
   50    50     1     0     0
SMALL
bcc


@<TRIPOS>ATOM
      1 CAK        -0.2790    0.7640   -0.0430 ca        1 K7I     -0.142000
      2 CAI         1.0200    1.2620   -0.1100 ca        1 K7I     -0.102500
      3 CAH         1.7820    1.3910    1.0540 ca        1 K7I     -0.082000
      4 CAJ         1.2410    1.0220    2.2860 ca        1 K7I     -0.102500
      5 CAL        -0.0610    0.5230    2.3580 ca        1 K7I     -0.142000
      6 CAR        -0.8270    0.3890    1.1950 ca        1 K7I     -0.186300
      7 CAM        -2.2400   -0.0660    1.2720 c3        1 K7I     -0.054100
      8 CAV        -2.3440   -1.5950    1.1820 c3        1 K7I      0.133500
      9 OAG        -3.7670   -3.4960    1.0570 oh        1 K7I     -0.695800
     10 NAO        -1.6090   -2.0830   -0.0700 n4        1 K7I     -0.654800
     11 CAQ        -1.3180   -3.5270   -0.0130 c         1 K7I      0.542100
     12 OAF        -0.7740   -3.9990    0.9810 o         1 K7I     -0.409100
     13 CAU        -1.6520   -4.4080   -1.2400 c3        1 K7I      0.075500
     14 CAC        -2.9540   -4.0090   -1.9170 c3        1 K7I     -0.170100
     15 NAN        -1.6840   -5.8700   -0.8080 n4        1 K7I     -0.672800
     16 C          -1.0670   -6.8250   -1.7910 c         1 K7I      0.510100
     17 O          -0.4890   -6.3760   -2.7670 o         1 K7I     -0.357100
     18 CA         -1.2170   -8.3250   -1.4680 c3        1 K7I      0.077500
     19 CB         -0.6760   -8.6310   -0.0760 c3        1 K7I     -0.171100
     20 N          -0.5370   -9.1600   -2.5170 n4        1 K7I     -0.843600
     21 CAT        -3.8090   -2.0730    1.2140 c3        1 K7I      0.120100
     22 CAB        -4.7050   -1.4690    0.1530 c3        1 K7I     -0.143100
     23 HAK        -0.9020    0.7530   -0.9510 ha        1 K7I      0.136000
     24 HAI         1.4370    1.5870   -1.0780 ha        1 K7I      0.170500
     25 HAH         2.8030    1.8080    1.0010 ha        1 K7I      0.177000
     26 HAJ         1.8320    1.1470    3.2090 ha        1 K7I      0.170500
     27 HAL        -0.4910    0.2650    3.3390 ha        1 K7I      0.136000
     28 HAM        -2.8530    0.4220    0.4670 hc        1 K7I      0.109200
     29 HAMA       -2.6930    0.2290    2.2620 hc        1 K7I      0.109200
     30 HAV        -1.7890   -2.0580    2.0570 hx        1 K7I      0.134700
     31 HOAG       -4.5050   -3.8590    1.5670 ho        1 K7I      0.464000
     32 HNAO       -2.1750   -1.8470   -0.8930 hn        1 K7I      0.492800
     33 HAU        -0.7850   -4.2850   -1.9700 hx        1 K7I      0.169700
     34 HAC        -2.7970   -3.0670   -2.5070 hc        1 K7I      0.115700
     35 HACA       -3.7770   -3.8440   -1.1700 hc        1 K7I      0.115700
     36 HACB       -3.2890   -4.7800   -2.6590 hc        1 K7I      0.115700
     37 HNAN       -2.6700   -6.1340   -0.6480 hn        1 K7I      0.497300
     38 HA         -2.3270   -8.5860   -1.5160 hx        1 K7I      0.166700
     39 HB         -0.6480   -9.7400    0.1140 hc        1 K7I      0.119367
     40 HBA        -1.3580   -8.2040    0.7030 hc        1 K7I      0.119367
     41 HBB         0.3600   -8.2330    0.0720 hc        1 K7I      0.119367
     42 HN         -0.7680  -10.1560   -2.3520 hn        1 K7I      0.500133
     43 HNA        -0.8470   -8.8970   -3.4650 hn        1 K7I      0.500133
     44 HAT        -4.2020   -1.8050    2.2400 h1        1 K7I      0.123700
     45 HAB        -4.8250   -0.3690    0.3200 hc        1 K7I      0.073033
     46 HABA       -5.7220   -1.9330    0.2150 hc        1 K7I      0.073033
     47 HABB       -4.3110   -1.6410   -0.8770 hc        1 K7I      0.073033
     48 HAO2       -0.7100   -1.5410   -0.1070 hn        1 K7I      0.492800
     49 HAN2       -1.1750   -5.9700    0.0950 hn        1 K7I      0.497300
     50 HN3         0.4880   -9.0530   -2.4650 hn        1 K7I      0.500133
@<TRIPOS>BOND
     1    1    2 ar  
     2    1    6 ar  
     3    1   23 1   
     4    2    3 ar  
     5    2   24 1   
     6    3    4 ar  
     7    3   25 1   
     8    4    5 ar  
     9    4   26 1   
    10    5    6 ar  
    11    5   27 1   
    12    6    7 1   
    13    7    8 1   
    14    7   28 1   
    15    7   29 1   
    16    8   10 1   
    17    8   21 1   
    18    8   30 1   
    19    9   21 1   
    20    9   31 1   
    21   10   11 1   
    22   10   32 1   
    23   10   48 1   
    24   11   12 2   
    25   11   13 1   
    26   13   14 1   
    27   13   15 1   
    28   13   33 1   
    29   14   34 1   
    30   14   35 1   
    31   14   36 1   
    32   15   16 1   
    33   15   37 1   
    34   15   49 1   
    35   16   17 2   
    36   16   18 1   
    37   18   19 1   
    38   18   20 1   
    39   18   38 1   
    40   19   39 1   
    41   19   40 1   
    42   19   41 1   
    43   20   42 1   
    44   20   43 1   
    45   20   50 1   
    46   21   22 1   
    47   21   44 1   
    48   22   45 1   
    49   22   46 1   
    50   22   47 1   
@<TRIPOS>SUBSTRUCTURE
     1 K7I         1 TEMP              0 ****  ****    0 ROOT
