@<TRIPOS>MOLECULE
K7J
   71    68     1     0     0
SMALL
bcc


@<TRIPOS>ATOM
      1 CAF         1.7360   -1.3590   -3.1210 c2        1 K7J      0.162000
      2 OAU         1.8750   -1.6310   -4.3400 o         1 K7J     -0.511000
      3 CAE         4.3940    0.2980   -0.8960 c3        1 K7J     -0.253000
      4 CAD         3.3660   -0.7090   -0.9850 c1        1 K7J     -0.104000
      5 CAB         2.5580   -1.0880    0.2000 c2        1 K7J      0.299000
      6 OAA         3.0740   -1.8510    1.0650 o         1 K7J     -0.559500
      7 OAC         1.3650   -0.6510    0.2370 o         1 K7J     -0.559500
      8 N           0.4990   -1.2100   -2.5510 n         1 K7J     -0.384000
      9 CA         -0.7380   -1.5050   -3.2190 c3        1 K7J      0.020000
     10 C          -1.2330   -0.3970   -4.1810 c2        1 K7J      0.287000
     11 O          -2.4530   -0.1300   -4.2990 o         1 K7J     -0.444000
     12 CB         -1.8700   -1.8330   -2.2450 c3        1 K7J     -0.212000
     13 NAJ        -0.3240    0.2600   -4.9610 n         1 K7J     -0.422000
     14 CAK        -3.3220    0.8100   -7.2740 c2        1 K7J     -0.247000
     15 CAL        -2.1960    1.0690   -8.1830 c2        1 K7J      0.288000
     16 OAY        -1.0110    0.8950   -7.8780 o         1 K7J     -0.298000
     17 CAX        -4.5910    0.6650   -7.6560 c2        1 K7J     -0.113000
     18 NAM        -2.5110    1.5780   -9.5560 n4        1 K7J      0.096000
     19 CAN        -1.3010    2.1020  -10.3410 c3        1 K7J     -0.110000
     20 CAO        -1.0840    3.5950  -10.1590 c2        1 K7J      0.239000
     21 OBC        -2.1930    4.3310  -10.3070 os        1 K7J     -0.172000
     22 CBB        -1.5720    1.7550  -11.8160 c3        1 K7J     -0.165000
     23 CBA        -2.7720    0.7910  -11.8150 c3        1 K7J     -0.060000
     24 CAZ        -3.1350    0.5900  -10.3920 c2        1 K7J     -0.632000
     25 CAR         2.5280    2.6780   -9.6320 c1        1 K7J     -0.022000
     26 OAE         3.2910    3.6760   -9.9540 oh        1 K7J     -0.158000
     27 CAQ         3.0830    1.3840   -9.3460 c2        1 K7J     -0.351000
     28 NAP         0.1090    4.1180   -9.9210 n3        1 K7J     -0.293000
     29 CBD         2.3240    0.3870   -8.8350 c2        1 K7J      0.070000
     30 CBG         2.8120   -0.9440   -8.5560 c2        1 K7J     -0.151000
     31 CBF         2.0240   -1.7110   -7.5090 c3        1 K7J     -0.110000
     32 CBH         3.8700   -1.4900   -9.2270 c2        1 K7J     -0.060000
     33 CBI         2.8780   -2.8190   -6.9570 c2        1 K7J     -0.063000
     34 CBK         4.1150   -2.9250   -9.0660 c2        1 K7J     -0.147000
     35 CBJ         3.6400   -3.3550   -7.9000 c1        1 K7J     -0.157000
     36 HAE         4.7240    0.6620   -1.9010 hc        1 K7J      0.099667
     37 HAEA        2.6280   -1.1920   -2.3570 h5        1 K7J      0.274000
     38 HAD         5.2710   -0.1980   -0.3890 hc        1 K7J      0.099667
     39 HADA        4.0980    1.1810   -0.2720 hc        1 K7J      0.099667
     40 HN          0.4550   -0.9940   -1.5690 hn        1 K7J      0.285000
     41 HA         -0.5700   -2.4010   -3.8970 h1        1 K7J      0.102000
     42 HB         -1.5900   -2.7050   -1.6080 hc        1 K7J      0.089333
     43 HBC        -2.7910   -2.0780   -2.8260 hc        1 K7J      0.089333
     44 HBE        -2.0900   -0.9590   -1.5860 hc        1 K7J      0.089333
     45 HNAJ        0.6330    0.0010   -4.9580 hn        1 K7J      0.229500
     46 HAK        -0.6400    0.8970   -5.6500 hn        1 K7J      0.229500
     47 HAX        -5.3770    0.4490   -6.9150 ha        1 K7J      0.144000
     48 HAXA       -3.0080    0.7040   -6.2110 ha        1 K7J      0.211000
     49 HAXB       -4.9280    0.7230   -8.7050 ha        1 K7J      0.144000
     50 HAN        -3.1680    2.3620   -9.4560 hn        1 K7J      0.248000
     51 HBB        -3.2170   -0.4210   -9.9880 hx        1 K7J      0.126000
     52 HBBA       -0.3950    1.5380   -9.9710 hx        1 K7J      0.149000
     53 HBA        -1.8050    2.6780  -12.4000 hc        1 K7J      0.099000
     54 HBAA       -0.6680    1.2700  -12.2570 hc        1 K7J      0.099000
     55 HAZ        -2.5130   -0.1760  -12.3160 hc        1 K7J      0.068000
     56 HAZA       -3.6190    1.2500  -12.3870 hc        1 K7J      0.068000
     57 HOAE        4.2550    3.4920   -9.9710 ho        1 K7J      0.172000
     58 HAQ         0.1670    5.1140   -9.7840 hn        1 K7J      0.300000
     59 HNAP        0.9480    3.5320   -9.7940 hn        1 K7J      0.300000
     60 HBD         4.1590    1.2200   -9.5460 ha        1 K7J      0.114000
     61 HBDA        1.2580    0.5710   -8.5830 ha        1 K7J      0.161000
     62 HBF         1.0550   -2.0550   -7.9550 hc        1 K7J      0.135000
     63 HBH         4.4470   -0.9330   -9.9770 ha        1 K7J      0.130000
     64 HBI         1.7830   -1.0400   -6.6350 hc        1 K7J      0.135000
     65 HBK         4.5170   -3.5180   -9.8900 ha        1 K7J      0.152000
     66 HBJ         2.8870   -2.9980   -5.8730 ha        1 K7J      0.206000
     67 CAS        -2.0300    5.7370  -10.0300 c2        1 K7J     -0.369000
     68 CL1        -1.3970    6.5780  -11.4580 cl        1 K7J     -0.257000
     69 HAS         3.0400    6.0860  -10.1220 ha        1 K7J      0.001500
     70 HASA        2.3940    5.9070  -10.0200 ha        1 K7J      0.001500
     71 HAR        -3.0710    6.0820   -9.8700 h5        1 K7J      0.072000
@<TRIPOS>BOND
     1    1    2 1   
     2    1    8 1   
     3    1   37 1   
     4    3    4 1   
     5    3   36 1   
     6    3   38 1   
     7    3   39 1   
     8    4    5 1   
     9    5    6 1   
    10    5    7 1   
    11    8    9 1   
    12    8   40 1   
    13    9   10 1   
    14    9   12 1   
    15    9   41 1   
    16   10   11 1   
    17   10   13 1   
    18   12   42 1   
    19   12   43 1   
    20   12   44 1   
    21   13   45 1   
    22   13   46 1   
    23   14   15 1   
    24   14   17 1   
    25   14   48 1   
    26   15   16 1   
    27   15   18 1   
    28   17   47 1   
    29   17   49 1   
    30   18   19 1   
    31   18   24 1   
    32   18   50 1   
    33   19   20 1   
    34   19   22 1   
    35   19   52 1   
    36   20   21 1   
    37   20   28 1   
    38   21   67 1   
    39   22   23 1   
    40   22   53 1   
    41   22   54 1   
    42   23   24 1   
    43   23   55 1   
    44   23   56 1   
    45   24   51 1   
    46   25   26 1   
    47   25   27 1   
    48   26   57 1   
    49   27   29 1   
    50   27   60 1   
    51   28   58 1   
    52   28   59 1   
    53   29   30 1   
    54   29   61 1   
    55   30   31 1   
    56   30   32 1   
    57   31   33 1   
    58   31   62 1   
    59   31   64 1   
    60   32   34 1   
    61   32   63 1   
    62   33   35 1   
    63   33   66 1   
    64   34   35 1   
    65   34   65 1   
    66   67   68 1   
    67   67   71 1   
    68   69   70 1   
@<TRIPOS>SUBSTRUCTURE
     1 K7J         1 TEMP              0 ****  ****    0 ROOT
