@<TRIPOS>MOLECULE
K80
   32    33     1     0     0
SMALL
bcc


@<TRIPOS>ATOM
      1 CAJ         0.0470   -0.1770    0.0670 ca        1 K80     -0.112000
      2 CAK         1.4360   -0.2590    0.0900 ca        1 K80     -0.135500
      3 CAL         2.1380   -0.0770    1.2880 ca        1 K80     -0.075300
      4 CAO         3.6150   -0.1760    1.3130 c3        1 K80     -0.053800
      5 CAM         1.4220    0.1880    2.4590 ca        1 K80     -0.135500
      6 CAN         0.0300    0.2670    2.4390 ca        1 K80     -0.112000
      7 CAI        -0.6690    0.0840    1.2440 ca        1 K80     -0.082300
      8 CAC        -2.1710    0.1510    1.1540 c3        1 K80      0.210800
      9 NAD        -2.7930    0.9700    2.2000 n3        1 K80     -0.795200
     10 CAE        -3.5000    0.0980    3.1410 c3        1 K80      0.128500
     11 CAF        -4.8400    0.6320    3.6180 c3        1 K80     -0.102100
     12 CAA        -3.6310   -1.3230    2.5180 c3        1 K80      0.083100
     13 OAH        -4.9550   -1.7010    2.2160 oh        1 K80     -0.593800
     14 CAB        -2.7630   -1.2900    1.2380 c3        1 K80      0.084100
     15 OAG        -3.5690   -1.4690    0.0860 oh        1 K80     -0.604800
     16 H1         -0.4930   -0.3200   -0.8810 ha        1 K80      0.138500
     17 H2          1.9870   -0.4640   -0.8400 ha        1 K80      0.130500
     18 H3          4.0550    0.1700    0.3450 hc        1 K80      0.043700
     19 H4          4.0450    0.4430    2.1380 hc        1 K80      0.043700
     20 H5          3.9230   -1.2400    1.4760 hc        1 K80      0.043700
     21 H6          1.9620    0.3390    3.4060 ha        1 K80      0.130500
     22 H7         -0.5100    0.4840    3.3740 ha        1 K80      0.138500
     23 H8         -2.4310    0.5760    0.1360 h1        1 K80      0.074700
     24 H9         -3.4250    1.6280    1.7830 hn        1 K80      0.361800
     25 H11        -2.8180    0.0050    4.0390 h1        1 K80      0.068700
     26 H12        -5.3320   -0.1410    4.2580 hc        1 K80      0.046367
     27 H13        -4.6970    1.5640    4.2150 hc        1 K80      0.046367
     28 H14        -5.5200    0.8600    2.7610 hc        1 K80      0.046367
     29 H15        -3.2760   -2.1060    3.2400 h1        1 K80      0.088700
     30 H16        -5.3110   -1.0490    1.5980 ho        1 K80      0.411000
     31 H17        -1.9550   -2.0660    1.2680 h1        1 K80      0.065700
     32 H18        -3.9800   -2.3410    0.1670 ho        1 K80      0.415000
@<TRIPOS>BOND
     1    1    2 ar  
     2    1    7 ar  
     3    1   16 1   
     4    2    3 ar  
     5    2   17 1   
     6    3    4 1   
     7    3    5 ar  
     8    4   18 1   
     9    4   19 1   
    10    4   20 1   
    11    5    6 ar  
    12    5   21 1   
    13    6    7 ar  
    14    6   22 1   
    15    7    8 1   
    16    8    9 1   
    17    8   14 1   
    18    8   23 1   
    19    9   10 1   
    20    9   24 1   
    21   10   11 1   
    22   10   12 1   
    23   10   25 1   
    24   11   26 1   
    25   11   27 1   
    26   11   28 1   
    27   12   13 1   
    28   12   14 1   
    29   12   29 1   
    30   13   30 1   
    31   14   15 1   
    32   14   31 1   
    33   15   32 1   
@<TRIPOS>SUBSTRUCTURE
     1 K80         1 TEMP              0 ****  ****    0 ROOT
