@<TRIPOS>MOLECULE
K80
   32    33     1     0     0
SMALL
bcc


@<TRIPOS>ATOM
      1 CAJ         1.8210    0.9890    0.9290 ca        1 K80     -0.117500
      2 CAK         3.1800    0.8280    0.6710 ca        1 K80     -0.130000
      3 CAL         3.6270   -0.1870   -0.1820 ca        1 K80     -0.072300
      4 CAO         5.0730   -0.3680   -0.4410 c3        1 K80     -0.055800
      5 CAM         2.6880   -1.0370   -0.7780 ca        1 K80     -0.130000
      6 CAN         1.3280   -0.8760   -0.5230 ca        1 K80     -0.117500
      7 CAI         0.8830    0.1380    0.3330 ca        1 K80     -0.113300
      8 CAC        -0.5810    0.3310    0.6190 c3        1 K80      0.206800
      9 NAD        -1.3180   -0.8830    0.9800 n3        1 K80     -0.805200
     10 CAE        -2.2480   -1.2360   -0.1000 c3        1 K80      0.133500
     11 CAF        -3.5670   -1.7810    0.4250 c3        1 K80     -0.081100
     12 CAA        -2.4540    0.0300   -0.9770 c3        1 K80      0.101100
     13 OAH        -3.6930    0.6700   -0.7720 oh        1 K80     -0.594800
     14 CAB        -1.2880    0.9790   -0.6090 c3        1 K80      0.099100
     15 OAG        -1.7680    2.2430   -0.1920 oh        1 K80     -0.594800
     16 H1          1.4820    1.7910    1.6020 ha        1 K80      0.133000
     17 H2          3.9090    1.5050    1.1420 ha        1 K80      0.133000
     18 H3          5.5140   -1.0560    0.3250 hc        1 K80      0.045700
     19 H4          5.2480   -0.8120   -1.4510 hc        1 K80      0.045700
     20 H5          5.6150    0.6080   -0.3850 hc        1 K80      0.045700
     21 H6          3.0270   -1.8370   -1.4530 ha        1 K80      0.133000
     22 H7          0.6020   -1.5480   -1.0040 ha        1 K80      0.133000
     23 H8         -0.6920    1.0340    1.5010 h1        1 K80      0.095700
     24 H9         -0.6950   -1.6430    1.1730 hn        1 K80      0.369800
     25 H11        -1.7960   -2.0290   -0.7720 h1        1 K80      0.026700
     26 H12        -4.0190   -1.0970    1.1830 hc        1 K80      0.044033
     27 H13        -4.2790   -1.8850   -0.4290 hc        1 K80      0.044033
     28 H14        -3.4130   -2.7790    0.9000 hc        1 K80      0.044033
     29 H15        -2.4520   -0.2350   -2.0670 h1        1 K80      0.082700
     30 H16        -3.7520    0.8900    0.1680 ho        1 K80      0.421000
     31 H17        -0.5800    1.1070   -1.4690 h1        1 K80      0.057700
     32 H18        -2.3850    2.5470   -0.8720 ho        1 K80      0.416000
@<TRIPOS>BOND
     1    1    2 ar  
     2    1    7 ar  
     3    1   16 1   
     4    2    3 ar  
     5    2   17 1   
     6    3    4 1   
     7    3    5 ar  
     8    4   18 1   
     9    4   19 1   
    10    4   20 1   
    11    5    6 ar  
    12    5   21 1   
    13    6    7 ar  
    14    6   22 1   
    15    7    8 1   
    16    8    9 1   
    17    8   14 1   
    18    8   23 1   
    19    9   10 1   
    20    9   24 1   
    21   10   11 1   
    22   10   12 1   
    23   10   25 1   
    24   11   26 1   
    25   11   27 1   
    26   11   28 1   
    27   12   13 1   
    28   12   14 1   
    29   12   29 1   
    30   13   30 1   
    31   14   15 1   
    32   14   31 1   
    33   15   32 1   
@<TRIPOS>SUBSTRUCTURE
     1 K80         1 TEMP              0 ****  ****    0 ROOT
