@<TRIPOS>MOLECULE
K80
   32    33     1     0     0
SMALL
bcc


@<TRIPOS>ATOM
      1 CAJ         0.0790    0.0390    0.0110 ca        1 K80     -0.117500
      2 CAK         1.4720    0.0150    0.0400 ca        1 K80     -0.130000
      3 CAL         2.1560   -0.0770    1.2570 ca        1 K80     -0.072300
      4 CAO         3.6360   -0.0830    1.2880 c3        1 K80     -0.055800
      5 CAM         1.4210   -0.1510    2.4460 ca        1 K80     -0.130000
      6 CAN         0.0290   -0.1310    2.4170 ca        1 K80     -0.117500
      7 CAI        -0.6540   -0.0350    1.2000 ca        1 K80     -0.113300
      8 CAC        -2.1570   -0.0140    1.1470 c3        1 K80      0.206800
      9 NAD        -2.8070    0.9170    2.0720 n7        1 K80     -0.805200
     10 CAE        -3.5090    0.1630    3.1190 c3        1 K80      0.133500
     11 CAF        -4.8300    0.8090    3.5130 c3        1 K80     -0.081100
     12 CAA        -3.7080   -1.2880    2.6030 c3        1 K80      0.101100
     13 OAH        -5.0250   -1.5710    2.1890 oh        1 K80     -0.594800
     14 CAB        -2.7240   -1.4400    1.4170 c3        1 K80      0.099100
     15 OAG        -3.3970   -1.8480    0.2410 oh        1 K80     -0.594800
     16 H1         -0.4470    0.1130   -0.9540 ha        1 K80      0.133000
     17 H2          2.0390    0.0710   -0.9010 ha        1 K80      0.133000
     18 H3          4.0200    0.9680    1.3330 hc        1 K80      0.045700
     19 H4          4.0170   -0.6330    2.1830 hc        1 K80      0.045700
     20 H5          4.0530   -0.5680    0.3700 hc        1 K80      0.045700
     21 H6          1.9470   -0.2270    3.4090 ha        1 K80      0.133000
     22 H7         -0.5350   -0.1960    3.3610 ha        1 K80      0.133000
     23 H8         -2.4820    0.3040    0.1090 h1        1 K80      0.095700
     24 H9         -2.1460    1.5510    2.4770 hn        1 K80      0.369800
     25 H11        -2.8740    0.0930    4.0550 h1        1 K80      0.026700
     26 H12        -5.4680    1.0110    2.6190 hc        1 K80      0.044033
     27 H13        -5.3800    0.1160    4.1930 hc        1 K80      0.044033
     28 H14        -4.6460    1.7760    4.0400 hc        1 K80      0.044033
     29 H15        -3.5030   -2.0330    3.4170 h1        1 K80      0.082700
     30 H16        -5.2570   -0.9280    1.5040 ho        1 K80      0.421000
     31 H17        -1.9060   -2.1680    1.6580 h1        1 K80      0.057700
     32 H18        -3.9270   -2.6230    0.4760 ho        1 K80      0.416000
@<TRIPOS>BOND
     1    1    2 ar  
     2    1    7 ar  
     3    1   16 1   
     4    2    3 ar  
     5    2   17 1   
     6    3    4 1   
     7    3    5 ar  
     8    4   18 1   
     9    4   19 1   
    10    4   20 1   
    11    5    6 ar  
    12    5   21 1   
    13    6    7 ar  
    14    6   22 1   
    15    7    8 1   
    16    8    9 1   
    17    8   14 1   
    18    8   23 1   
    19    9   10 1   
    20    9   24 1   
    21   10   11 1   
    22   10   12 1   
    23   10   25 1   
    24   11   26 1   
    25   11   27 1   
    26   11   28 1   
    27   12   13 1   
    28   12   14 1   
    29   12   29 1   
    30   13   30 1   
    31   14   15 1   
    32   14   31 1   
    33   15   32 1   
@<TRIPOS>SUBSTRUCTURE
     1 K80         1 TEMP              0 ****  ****    0 ROOT
