@<TRIPOS>MOLECULE
K80
   32    33     1     0     0
SMALL
bcc


@<TRIPOS>ATOM
      1 CAJ        -0.0050    0.3470    0.1440 ca        1 K80     -0.118500
      2 CAK         1.3820    0.2880    0.0370 ca        1 K80     -0.129000
      3 CAL         2.1600   -0.1420    1.1180 ca        1 K80     -0.070300
      4 CAO         3.6360   -0.1880    1.0110 c3        1 K80     -0.056800
      5 CAM         1.5250   -0.5150    2.3090 ca        1 K80     -0.129000
      6 CAN         0.1380   -0.4580    2.4150 ca        1 K80     -0.118500
      7 CAI        -0.6380   -0.0300    1.3330 ca        1 K80     -0.108300
      8 CAC        -2.1350    0.0270    1.4360 c3        1 K80      0.170800
      9 NAD        -2.6350    0.9680    2.4440 n3        1 K80     -0.785200
     10 CAE        -3.7000    0.3180    3.2200 c3        1 K80      0.127500
     11 CAF        -5.0800    0.8470    2.8490 c3        1 K80     -0.085100
     12 CAA        -3.6020   -1.2230    2.9910 c3        1 K80      0.132100
     13 OAH        -4.8450   -1.8680    2.9070 oh        1 K80     -0.577800
     14 CAB        -2.7270   -1.3890    1.7270 c3        1 K80      0.084100
     15 OAG        -3.5740   -1.8080    0.6740 oh        1 K80     -0.596800
     16 H1         -0.6040    0.6970   -0.7110 ha        1 K80      0.132500
     17 H2          1.8710    0.5850   -0.9020 ha        1 K80      0.134000
     18 H3          4.0730    0.7870    1.3470 hc        1 K80      0.046367
     19 H4          3.9560   -0.3680   -0.0450 hc        1 K80      0.046367
     20 H5          4.0600   -1.0000    1.6520 hc        1 K80      0.046367
     21 H6          2.1270   -0.8550    3.1650 ha        1 K80      0.134000
     22 H7         -0.3510   -0.7570    3.3550 ha        1 K80      0.132500
     23 H8         -2.5620    0.3820    0.4490 h1        1 K80      0.079700
     24 H9         -1.8920    1.2550    3.0540 hn        1 K80      0.358800
     25 H11        -3.5450    0.5230    4.3190 h1        1 K80      0.048700
     26 H12        -5.8460    0.3240    3.4700 hc        1 K80      0.044700
     27 H13        -5.3020    0.6630    1.7700 hc        1 K80      0.044700
     28 H14        -5.1410    1.9440    3.0410 hc        1 K80      0.044700
     29 H15        -3.0960   -1.7080    3.8720 h1        1 K80      0.073700
     30 H16        -5.2590   -1.6140    2.0700 ho        1 K80      0.423000
     31 H17        -1.9150   -2.1440    1.8940 h1        1 K80      0.056700
     32 H18        -3.0100   -1.9560   -0.0950 ho        1 K80      0.412000
@<TRIPOS>BOND
     1    1    2 ar  
     2    1    7 ar  
     3    1   16 1   
     4    2    3 ar  
     5    2   17 1   
     6    3    4 1   
     7    3    5 ar  
     8    4   18 1   
     9    4   19 1   
    10    4   20 1   
    11    5    6 ar  
    12    5   21 1   
    13    6    7 ar  
    14    6   22 1   
    15    7    8 1   
    16    8    9 1   
    17    8   14 1   
    18    8   23 1   
    19    9   10 1   
    20    9   24 1   
    21   10   11 1   
    22   10   12 1   
    23   10   25 1   
    24   11   26 1   
    25   11   27 1   
    26   11   28 1   
    27   12   13 1   
    28   12   14 1   
    29   12   29 1   
    30   13   30 1   
    31   14   15 1   
    32   14   31 1   
    33   15   32 1   
@<TRIPOS>SUBSTRUCTURE
     1 K80         1 TEMP              0 ****  ****    0 ROOT
