@<TRIPOS>MOLECULE
K83
   73    74     1     0     0
SMALL
bcc


@<TRIPOS>ATOM
      1 C21        -0.9290    0.1950   -0.2320 c         1 K83      0.593700
      2 O22        -1.1350    1.1830   -0.9290 o         1 K83     -0.475100
      3 C22        -1.0380    0.0790    1.2240 ca        1 K83     -0.171600
      4 C27        -0.8310    1.2510    1.9720 ca        1 K83     -0.153000
      5 C26        -0.9370    1.1930    3.3670 ca        1 K83      0.146100
      6 C25        -1.2580   -0.0190    4.0170 ca        1 K83     -0.073000
      7 C24        -1.4710   -1.1610    3.2540 ca        1 K83     -0.088000
      8 C23        -1.3610   -1.1250    1.8620 ca        1 K83     -0.125000
      9 O27        -0.7440    2.2750    4.1800 oh        1 K83     -0.458100
     10 N11        -0.6170    0.6340   -5.6320 n3        1 K83     -0.912200
     11 C12        -2.0100    0.3780   -5.9980 c3        1 K83      0.120800
     12 C13        -2.4940    1.1660   -7.2250 c3        1 K83     -0.067700
     13 C14        -1.7460    0.7650   -8.4780 c3        1 K83     -0.107100
     14 C15        -3.9800    0.9210   -7.3940 c3        1 K83     -0.107100
     15 C16        -0.0560   -0.3800   -4.7400 c3        1 K83      0.096800
     16 C17        -0.7950   -0.5290   -3.3960 c3        1 K83      0.127100
     17 O18        -1.7060   -1.6150   -3.4140 oh        1 K83     -0.616800
     18 C19         0.2180   -0.8340   -2.2600 c3        1 K83      0.142500
     19 N20        -0.4970   -1.0640   -0.9530 n4        1 K83     -0.678800
     20 C32         1.0900   -2.0540   -2.6030 c3        1 K83     -0.054100
     21 C33         1.6660   -3.5960   -0.7180 ca        1 K83     -0.132000
     22 C34         2.5180   -4.0040    0.3080 ca        1 K83     -0.113000
     23 C35         3.6760   -3.2770    0.5860 ca        1 K83     -0.092000
     24 C36         3.9830   -2.1410   -0.1650 ca        1 K83     -0.113000
     25 C37         3.1340   -1.7320   -1.1920 ca        1 K83     -0.132000
     26 C38         1.9690   -2.4560   -1.4730 ca        1 K83     -0.171300
     27 S8          0.0550    2.8740   -4.7980 s4        1 K83      1.691300
     28 O9          0.8250    3.0060   -5.9090 o         1 K83     -0.448900
     29 O10         0.5290    2.2780   -3.6650 o         1 K83     -0.448900
     30 C5         -1.2560    3.6630   -4.7070 ca        1 K83     -0.688500
     31 C4         -2.0490    3.6680   -3.5140 ca        1 K83      0.063000
     32 C6         -1.7220    4.4750   -5.7870 ca        1 K83      0.063000
     33 C3         -3.1820    4.4250   -3.3940 ca        1 K83     -0.215500
     34 C7         -2.8520    5.2470   -5.6900 ca        1 K83     -0.215500
     35 C2         -3.6030    5.2430   -4.4870 ca        1 K83      0.305100
     36 O1         -4.7170    5.9600   -4.2700 os        1 K83     -0.265900
     37 C1         -5.1900    6.8290   -5.3160 c3        1 K83      0.096700
     38 H27        -0.5910    2.1990    1.4660 ha        1 K83      0.160000
     39 H25        -1.3390   -0.0360    5.1170 ha        1 K83      0.192000
     40 H24        -1.7340   -2.1090    3.7550 ha        1 K83      0.175000
     41 H23        -1.5640   -2.0460    1.2980 ha        1 K83      0.134000
     42 HO27       -0.5370    3.0500    3.6350 ho        1 K83      0.439000
     43 H12        -2.6490    0.6510   -5.1110 h1        1 K83      0.056200
     44 H12A       -2.1710   -0.7200   -6.2120 h1        1 K83      0.056200
     45 H13        -2.3320    2.2660   -7.0400 hc        1 K83      0.032700
     46 H14        -2.2400    1.2150   -9.3760 hc        1 K83      0.054700
     47 H14A       -1.7480   -0.3450   -8.6040 hc        1 K83      0.054700
     48 H14B       -0.6880    1.1230   -8.4580 hc        1 K83      0.054700
     49 H15        -4.1810   -0.1570   -7.6060 hc        1 K83      0.054700
     50 H15A       -4.5380    1.2150   -6.4730 hc        1 K83      0.054700
     51 H15B       -4.3690    1.5230   -8.2520 hc        1 K83      0.054700
     52 H16         1.0090   -0.0640   -4.5360 h1        1 K83      0.088700
     53 H16A       -0.0320   -1.3970   -5.2310 h1        1 K83      0.088700
     54 H17        -1.3480    0.4210   -3.1330 h1        1 K83      0.062700
     55 HO18       -2.3140   -1.4880   -4.1560 ho        1 K83      0.443000
     56 H19         0.8690    0.0840   -2.1290 hx        1 K83      0.127700
     57 HN20       -1.3310   -1.6380   -1.1400 hn        1 K83      0.478800
     58 H32         1.7250   -1.7800   -3.4880 hc        1 K83      0.091700
     59 H32A        0.4260   -2.9060   -2.9170 hc        1 K83      0.091700
     60 H33         0.7780   -4.2010   -0.9600 ha        1 K83      0.135500
     61 H34         2.2850   -4.9130    0.8860 ha        1 K83      0.160000
     62 H35         4.3560   -3.6080    1.3890 ha        1 K83      0.164000
     63 H36         4.9060   -1.5750    0.0440 ha        1 K83      0.160000
     64 H37         3.3940   -0.8500   -1.7980 ha        1 K83      0.135500
     65 H4         -1.7170    3.0410   -2.6620 ha        1 K83      0.174000
     66 H6         -1.1350    4.4870   -6.7280 ha        1 K83      0.174000
     67 H3         -3.7820    4.4310   -2.4680 ha        1 K83      0.191000
     68 H7         -3.1730    5.8720   -6.5410 ha        1 K83      0.191000
     69 H1         -6.0990    7.2930   -4.8490 h1        1 K83      0.084700
     70 H1A        -4.4190    7.6010   -5.5510 h1        1 K83      0.084700
     71 H1B        -5.4620    6.2280   -6.2160 h1        1 K83      0.084700
     72 H111       -0.0580    0.6360   -6.4790 hn        1 K83      0.411800
     73 H202        0.1330   -1.6010   -0.3310 hn        1 K83      0.478800
@<TRIPOS>BOND
     1    1    2 2   
     2    1    3 1   
     3    1   19 1   
     4    3    4 ar  
     5    3    8 ar  
     6    4    5 ar  
     7    4   38 1   
     8    5    6 ar  
     9    5    9 1   
    10    6    7 ar  
    11    6   39 1   
    12    7    8 ar  
    13    7   40 1   
    14    8   41 1   
    15    9   42 1   
    16   10   11 1   
    17   10   15 1   
    18   10   72 1   
    19   11   12 1   
    20   11   43 1   
    21   11   44 1   
    22   12   13 1   
    23   12   14 1   
    24   12   45 1   
    25   13   46 1   
    26   13   47 1   
    27   13   48 1   
    28   14   49 1   
    29   14   50 1   
    30   14   51 1   
    31   15   16 1   
    32   15   52 1   
    33   15   53 1   
    34   16   17 1   
    35   16   18 1   
    36   16   54 1   
    37   17   55 1   
    38   18   19 1   
    39   18   20 1   
    40   18   56 1   
    41   19   57 1   
    42   19   73 1   
    43   20   26 1   
    44   20   58 1   
    45   20   59 1   
    46   21   22 ar  
    47   21   26 ar  
    48   21   60 1   
    49   22   23 ar  
    50   22   61 1   
    51   23   24 ar  
    52   23   62 1   
    53   24   25 ar  
    54   24   63 1   
    55   25   26 ar  
    56   25   64 1   
    57   27   28 1   
    58   27   29 1   
    59   27   30 1   
    60   30   31 ar  
    61   30   32 ar  
    62   31   33 ar  
    63   31   65 1   
    64   32   34 ar  
    65   32   66 1   
    66   33   35 ar  
    67   33   67 1   
    68   34   35 ar  
    69   34   68 1   
    70   35   36 1   
    71   36   37 1   
    72   37   69 1   
    73   37   70 1   
    74   37   71 1   
@<TRIPOS>SUBSTRUCTURE
     1 K83         1 TEMP              0 ****  ****    0 ROOT
