@<TRIPOS>MOLECULE
K83
   71    73     1     0     0
SMALL
bcc


@<TRIPOS>ATOM
      1 C21        -2.1680    0.8590   -0.2610 c         1 K83      0.675700
      2 O22        -1.4090    1.1910    0.6750 o         1 K83     -0.623100
      3 C22        -3.1460    1.8180   -0.8530 ca        1 K83     -0.098600
      4 C27        -3.8310    2.6710    0.0170 ca        1 K83     -0.165000
      5 C26        -4.7470    3.5900   -0.5120 ca        1 K83      0.120100
      6 C25        -4.9760    3.6660   -1.8970 ca        1 K83     -0.137000
      7 C24        -4.2740    2.8150   -2.7440 ca        1 K83     -0.104000
      8 C23        -3.3610    1.8900   -2.2310 ca        1 K83     -0.142000
      9 O27        -5.4660    4.4580    0.2760 oh        1 K83     -0.495100
     10 N11         2.5420   -1.5480   -0.1310 n3        1 K83     -0.799500
     11 C12         3.2810   -1.4780   -1.3650 c3        1 K83      0.220800
     12 C13         4.3120   -2.5990   -1.5860 c3        1 K83     -0.095700
     13 C14         3.6490   -3.9500   -1.7350 c3        1 K83     -0.087100
     14 C15         5.1220   -2.2680   -2.8230 c3        1 K83     -0.087100
     15 C16         1.2230   -2.1080   -0.1920 c3        1 K83      0.191800
     16 C17         0.1830   -1.2360   -0.9330 c3        1 K83      0.084100
     17 O18         0.1680   -1.5090   -2.3210 oh        1 K83     -0.593800
     18 C19        -1.2220   -1.4170   -0.2910 c3        1 K83      0.078700
     19 N20        -2.1650   -0.4280   -0.7590 n         1 K83     -0.549900
     20 C32        -1.7320   -2.8500   -0.5180 c3        1 K83     -0.049100
     21 C33        -4.1800   -3.3610   -0.3590 ca        1 K83     -0.123500
     22 C34        -5.3170   -3.6610    0.3900 ca        1 K83     -0.126000
     23 C35        -5.2360   -3.7530    1.7790 ca        1 K83     -0.127000
     24 C36        -4.0140   -3.5450    2.4180 ca        1 K83     -0.126000
     25 C37        -2.8760   -3.2470    1.6720 ca        1 K83     -0.123500
     26 C38        -2.9520   -3.1520    0.2770 ca        1 K83     -0.084300
     27 S8          3.1690   -0.9580    1.2650 sy        1 K83      1.510200
     28 O9          4.5410   -1.2880    1.3550 o         1 K83     -0.657800
     29 O10         2.3590   -1.3850    2.3430 o         1 K83     -0.657800
     30 C5          3.0340    0.7030    1.0820 ca        1 K83     -0.435500
     31 C4          1.7900    1.3480    1.1810 ca        1 K83      0.018000
     32 C6          4.1740    1.4880    0.8650 ca        1 K83      0.018000
     33 C3          1.6780    2.7240    1.0670 ca        1 K83     -0.208500
     34 C7          4.0950    2.8700    0.7500 ca        1 K83     -0.208500
     35 C2          2.8410    3.4910    0.8510 ca        1 K83      0.186100
     36 O1          2.6340    4.8470    0.7500 os        1 K83     -0.318900
     37 C1          3.7910    5.6540    0.5520 c3        1 K83      0.110700
     38 H27        -3.6370    2.6220    1.0990 ha        1 K83      0.157000
     39 H25        -5.6990    4.3960   -2.2880 ha        1 K83      0.154000
     40 H24        -4.4380    2.8730   -3.8300 ha        1 K83      0.140000
     41 H23        -2.8040    1.2400   -2.9220 ha        1 K83      0.139000
     42 HO27       -5.1940    4.3220    1.1960 ho        1 K83      0.424000
     43 H12         2.5590   -1.4740   -2.2330 h1        1 K83      0.055200
     44 H12A        3.8350   -0.4920   -1.3790 h1        1 K83      0.055200
     45 H13         5.0080   -2.6310   -0.6980 hc        1 K83      0.080700
     46 H14         4.4050   -4.7190   -2.0260 hc        1 K83      0.033533
     47 H14A        3.1820   -4.2680   -0.7720 hc        1 K83      0.033533
     48 H14B        2.8580   -3.9170   -2.5230 hc        1 K83      0.033533
     49 H15         5.6410   -1.2870   -2.7010 hc        1 K83      0.033533
     50 H15A        5.8940   -3.0560   -2.9970 hc        1 K83      0.033533
     51 H15B        4.4630   -2.2120   -3.7230 hc        1 K83      0.033533
     52 H16         1.2750   -3.1100   -0.7130 h1        1 K83      0.067200
     53 H16A        0.8630   -2.2870    0.8650 h1        1 K83      0.067200
     54 H17         0.4650   -0.1430   -0.8760 h1        1 K83      0.100700
     55 HO18        0.0290   -2.4580   -2.4320 ho        1 K83      0.396000
     56 H19        -1.0950   -1.2500    0.8240 h1        1 K83      0.092700
     57 HN20       -2.6900   -0.6410   -1.5730 hn        1 K83      0.317500
     58 H32        -1.9310   -3.0170   -1.6110 hc        1 K83      0.054700
     59 H32A       -0.9110   -3.5550   -0.2140 hc        1 K83      0.054700
     60 H33        -4.2510   -3.2910   -1.4550 ha        1 K83      0.132500
     61 H34        -6.2790   -3.8240   -0.1170 ha        1 K83      0.134000
     62 H35        -6.1340   -3.9880    2.3690 ha        1 K83      0.133000
     63 H36        -3.9460   -3.6170    3.5140 ha        1 K83      0.134000
     64 H37        -1.9120   -3.0830    2.1790 ha        1 K83      0.132500
     65 H4          0.8720    0.7550    1.3580 ha        1 K83      0.162000
     66 H6          5.1610    0.9930    0.7950 ha        1 K83      0.162000
     67 H3          0.6970    3.2180    1.1400 ha        1 K83      0.156000
     68 H7          5.0080    3.4590    0.5850 ha        1 K83      0.156000
     69 H1          4.5000    5.5420    1.4080 h1        1 K83      0.049033
     70 H1A         4.2920    5.3930   -0.4110 h1        1 K83      0.049033
     71 H1B         3.3760    6.6940    0.5140 h1        1 K83      0.049033
@<TRIPOS>BOND
     1    1    2 2   
     2    1    3 1   
     3    1   19 1   
     4    3    4 ar  
     5    3    8 ar  
     6    4    5 ar  
     7    4   38 1   
     8    5    6 ar  
     9    5    9 1   
    10    6    7 ar  
    11    6   39 1   
    12    7    8 ar  
    13    7   40 1   
    14    8   41 1   
    15    9   42 1   
    16   10   11 1   
    17   10   15 1   
    18   10   27 1   
    19   11   12 1   
    20   11   43 1   
    21   11   44 1   
    22   12   13 1   
    23   12   14 1   
    24   12   45 1   
    25   13   46 1   
    26   13   47 1   
    27   13   48 1   
    28   14   49 1   
    29   14   50 1   
    30   14   51 1   
    31   15   16 1   
    32   15   52 1   
    33   15   53 1   
    34   16   17 1   
    35   16   18 1   
    36   16   54 1   
    37   17   55 1   
    38   18   19 1   
    39   18   20 1   
    40   18   56 1   
    41   19   57 1   
    42   20   26 1   
    43   20   58 1   
    44   20   59 1   
    45   21   22 ar  
    46   21   26 ar  
    47   21   60 1   
    48   22   23 ar  
    49   22   61 1   
    50   23   24 ar  
    51   23   62 1   
    52   24   25 ar  
    53   24   63 1   
    54   25   26 ar  
    55   25   64 1   
    56   27   28 2   
    57   27   29 2   
    58   27   30 1   
    59   30   31 ar  
    60   30   32 ar  
    61   31   33 ar  
    62   31   65 1   
    63   32   34 ar  
    64   32   66 1   
    65   33   35 ar  
    66   33   67 1   
    67   34   35 ar  
    68   34   68 1   
    69   35   36 1   
    70   36   37 1   
    71   37   69 1   
    72   37   70 1   
    73   37   71 1   
@<TRIPOS>SUBSTRUCTURE
     1 K83         1 TEMP              0 ****  ****    0 ROOT
