@<TRIPOS>MOLECULE
K83
   73    74     1     0     0
SMALL
bcc


@<TRIPOS>ATOM
      1 C21        -1.0390    0.1080   -0.2980 c         1 K83      0.595700
      2 O22        -1.3140    1.0700   -1.0070 o         1 K83     -0.474100
      3 C22        -1.0940    0.0240    1.1640 ca        1 K83     -0.174600
      4 C27        -0.9280    1.2230    1.8690 ca        1 K83     -0.087000
      5 C26        -0.9850    1.1980    3.2750 ca        1 K83      0.145100
      6 C25        -1.2160   -0.0040    3.9610 ca        1 K83     -0.138000
      7 C24        -1.3930   -1.1830    3.2360 ca        1 K83     -0.073000
      8 C23        -1.3310   -1.1810    1.8450 ca        1 K83     -0.135000
      9 O27        -0.8050    2.4030    3.8960 oh        1 K83     -0.472100
     10 N11        -0.5880    0.6480   -5.6430 n7        1 K83     -0.912200
     11 C12        -1.9700    0.4010   -6.0530 c3        1 K83      0.121800
     12 C13        -2.4270    1.2340   -7.2610 c3        1 K83     -0.067700
     13 C14        -1.6480    0.8810   -8.5100 c3        1 K83     -0.107100
     14 C15        -3.9080    0.9930   -7.4740 c3        1 K83     -0.107100
     15 C16        -0.0460   -0.3980   -4.7760 c3        1 K83      0.096800
     16 C17        -0.8180   -0.5930   -3.4560 c3        1 K83      0.127100
     17 O18        -1.7000   -1.7000   -3.5210 oh        1 K83     -0.615800
     18 C19         0.1700   -0.8940   -2.2980 c3        1 K83      0.142500
     19 N20        -0.5750   -1.1430   -1.0100 ny        1 K83     -0.678800
     20 C32         1.0650   -2.1010   -2.6280 c3        1 K83     -0.055100
     21 C33         1.6300   -3.6530   -0.7480 ca        1 K83     -0.131500
     22 C34         2.4670   -4.0550    0.2920 ca        1 K83     -0.113500
     23 C35         3.6030   -3.3060    0.6060 ca        1 K83     -0.093000
     24 C36         3.9010   -2.1540   -0.1230 ca        1 K83     -0.113500
     25 C37         3.0680   -1.7510   -1.1650 ca        1 K83     -0.131500
     26 C38         1.9260   -2.4970   -1.4820 ca        1 K83     -0.170300
     27 S8          0.0530    2.8540   -4.6950 s4        1 K83      1.692300
     28 O9          0.8640    3.0260   -5.7710 o         1 K83     -0.450400
     29 O10         0.4860    2.2120   -3.5710 o         1 K83     -0.450400
     30 C5         -1.2570    3.6440   -4.6220 ca        1 K83     -0.688500
     31 C4         -2.0910    3.6130   -3.4580 ca        1 K83      0.063500
     32 C6         -1.6830    4.4960   -5.6880 ca        1 K83      0.063500
     33 C3         -3.2240    4.3710   -3.3490 ca        1 K83     -0.215500
     34 C7         -2.8130    5.2700   -5.6030 ca        1 K83     -0.215500
     35 C2         -3.6050    5.2290   -4.4260 ca        1 K83      0.305100
     36 O1         -4.7210    5.9450   -4.2230 os        1 K83     -0.264900
     37 C1         -5.1540    6.8520   -5.2540 c3        1 K83      0.096700
     38 H27        -0.7550    2.1780    1.3480 ha        1 K83      0.176000
     39 H25        -1.2630   -0.0170    5.0630 ha        1 K83      0.175000
     40 H24        -1.5870   -2.1270    3.7730 ha        1 K83      0.173000
     41 H23        -1.5030   -2.1260    1.3090 ha        1 K83      0.134000
     42 HO27       -0.8720    2.2760    4.8570 ho        1 K83      0.451000
     43 H12        -2.6330    0.6380   -5.1730 h1        1 K83      0.056700
     44 H12A       -2.1220   -0.6890   -6.3120 h1        1 K83      0.056700
     45 H13        -2.2720    2.3270   -7.0310 hc        1 K83      0.032700
     46 H14        -1.6460   -0.2230   -8.6780 hc        1 K83      0.054867
     47 H14A       -2.1210    1.3650   -9.4010 hc        1 K83      0.054867
     48 H14B       -0.5920    1.2380   -8.4500 hc        1 K83      0.054867
     49 H15        -4.4890    1.2520   -6.5570 hc        1 K83      0.054867
     50 H15A       -4.2770    1.6260   -8.3180 hc        1 K83      0.054867
     51 H15B       -4.1010   -0.0770   -7.7310 hc        1 K83      0.054867
     52 H16         1.0140   -0.0900   -4.5380 h1        1 K83      0.088700
     53 H16A       -0.0110   -1.3970   -5.3030 h1        1 K83      0.088700
     54 H17        -1.4030    0.3380   -3.1920 h1        1 K83      0.064700
     55 HO18       -2.2900   -1.5720   -4.2760 ho        1 K83      0.442000
     56 H19         0.8060    0.0310   -2.1430 hx        1 K83      0.127700
     57 HN20        0.0480   -1.6750   -0.3770 hn        1 K83      0.478300
     58 H32         1.7140   -1.8140   -3.4990 hc        1 K83      0.092200
     59 H32A        0.4190   -2.9600   -2.9600 hc        1 K83      0.092200
     60 H33         0.7620   -4.2730   -1.0180 ha        1 K83      0.136000
     61 H34         2.2420   -4.9760    0.8540 ha        1 K83      0.159500
     62 H35         4.2710   -3.6320    1.4200 ha        1 K83      0.163000
     63 H36         4.8060   -1.5710    0.1140 ha        1 K83      0.159500
     64 H37         3.3220   -0.8560   -1.7540 ha        1 K83      0.136000
     65 H4         -1.7920    2.9540   -2.6160 ha        1 K83      0.174500
     66 H6         -1.0650    4.5370   -6.6080 ha        1 K83      0.174500
     67 H3         -3.8540    4.3490   -2.4440 ha        1 K83      0.191500
     68 H7         -3.1030    5.9260   -6.4420 ha        1 K83      0.191500
     69 H1         -6.0760    7.3060   -4.8010 h1        1 K83      0.084367
     70 H1A        -4.3710    7.6270   -5.4350 h1        1 K83      0.084367
     71 H1B        -5.3990    6.2840   -6.1830 h1        1 K83      0.084367
     72 H111       -0.0080    0.6850   -6.4750 hn        1 K83      0.411800
     73 H202       -1.3960   -1.7270   -1.2230 hn        1 K83      0.478300
@<TRIPOS>BOND
     1    1    2 2   
     2    1    3 1   
     3    1   19 1   
     4    3    4 ar  
     5    3    8 ar  
     6    4    5 ar  
     7    4   38 1   
     8    5    6 ar  
     9    5    9 1   
    10    6    7 ar  
    11    6   39 1   
    12    7    8 ar  
    13    7   40 1   
    14    8   41 1   
    15    9   42 1   
    16   10   11 1   
    17   10   15 1   
    18   10   72 1   
    19   11   12 1   
    20   11   43 1   
    21   11   44 1   
    22   12   13 1   
    23   12   14 1   
    24   12   45 1   
    25   13   46 1   
    26   13   47 1   
    27   13   48 1   
    28   14   49 1   
    29   14   50 1   
    30   14   51 1   
    31   15   16 1   
    32   15   52 1   
    33   15   53 1   
    34   16   17 1   
    35   16   18 1   
    36   16   54 1   
    37   17   55 1   
    38   18   19 1   
    39   18   20 1   
    40   18   56 1   
    41   19   57 1   
    42   19   73 1   
    43   20   26 1   
    44   20   58 1   
    45   20   59 1   
    46   21   22 ar  
    47   21   26 ar  
    48   21   60 1   
    49   22   23 ar  
    50   22   61 1   
    51   23   24 ar  
    52   23   62 1   
    53   24   25 ar  
    54   24   63 1   
    55   25   26 ar  
    56   25   64 1   
    57   27   28 1   
    58   27   29 1   
    59   27   30 1   
    60   30   31 ar  
    61   30   32 ar  
    62   31   33 ar  
    63   31   65 1   
    64   32   34 ar  
    65   32   66 1   
    66   33   35 ar  
    67   33   67 1   
    68   34   35 ar  
    69   34   68 1   
    70   35   36 1   
    71   36   37 1   
    72   37   69 1   
    73   37   70 1   
    74   37   71 1   
@<TRIPOS>SUBSTRUCTURE
     1 K83         1 TEMP              0 ****  ****    0 ROOT
