@<TRIPOS>MOLECULE
K83
   71    62     1     0     0
SMALL
bcc


@<TRIPOS>ATOM
      1 C21         0.6460   -0.7120    3.2420 c1        1 K83      0.340000
      2 O22         1.8220   -0.4210    3.1410 o         1 K83     -0.369000
      3 C22        -0.0450   -0.6440    4.6100 c2        1 K83     -0.089000
      4 C27         0.6720   -0.2420    5.7310 c2        1 K83     -0.105000
      5 C26         0.0670   -0.2490    6.9820 c1        1 K83      0.074000
      6 C25        -1.2510   -0.6570    7.1110 c1        1 K83     -0.126625
      7 C24        -1.9680   -1.0590    5.9900 c1        1 K83     -0.126625
      8 C23        -1.3640   -1.0520    4.7400 c1        1 K83     -0.141000
      9 O27         0.7990    0.1420    8.1210 oh        1 K83     -0.245000
     10 N11         0.2300    0.3590   -2.4790 n3        1 K83     -0.820000
     11 C12        -1.0170    0.0050   -3.1270 c3        1 K83     -0.015000
     12 C13        -0.7480   -0.3350   -4.6030 c3        1 K83     -0.135000
     13 C14        -1.0720   -1.7910   -4.8530 c3        1 K83     -0.205000
     14 C15        -1.6190    0.5370   -5.4900 c3        1 K83     -0.205000
     15 C16         0.8140   -0.5390   -1.4820 c3        1 K83     -0.015000
     16 C17        -0.1210   -0.6440   -0.2800 c3        1 K83     -0.006000
     17 O18        -1.2720   -1.3460   -0.6450 oh        1 K83     -0.329000
     18 C19         0.5850   -1.3800    0.8510 c3        1 K83     -0.006000
     19 N20        -0.0950   -1.1280    2.0810 n2        1 K83     -0.370000
     20 C32         0.5810   -2.8660    0.5670 c3        1 K83     -0.137000
     21 C33         1.3420   -4.7220    1.8570 c1        1 K83     -0.138000
     22 C34         2.2740   -5.6910    2.1900 c1        1 K83     -0.126625
     23 C35         3.6280   -5.4660    1.9510 c1        1 K83     -0.126625
     24 C36         4.0420   -4.2750    1.3810 c1        1 K83     -0.126625
     25 C37         3.1060   -3.3020    1.0460 c1        1 K83     -0.126625
     26 C38         1.7580   -3.5250    1.2840 c1        1 K83     -0.086000
     27 S8          1.0970    1.6800   -3.0140 s4        1 K83      2.063800
     28 O9          1.3740    1.5860   -4.4220 o         1 K83     -0.546400
     29 O10         2.4270    1.6880   -2.4680 o         1 K83     -0.546400
     30 C5          0.2260    3.1950   -2.6230 c1        1 K83     -0.368000
     31 C4         -1.0200    3.4370   -3.1770 c1        1 K83     -0.126625
     32 C6          0.8510    4.1770   -1.8640 c1        1 K83     -0.080500
     33 C3         -1.6460    4.6640   -2.9730 c1        1 K83     -0.126625
     34 C7          0.2280    5.3980   -1.6610 c1        1 K83     -0.080500
     35 C2         -1.0220    5.6420   -2.2170 c1        1 K83     -0.368000
     36 O1         -1.6970    6.8430   -1.9290 o         1 K83     -0.203000
     37 C1         -2.6150    6.7410   -0.8600 c3        1 K83     -0.079000
     38 H27         1.5990    0.0450    5.6390 ha        1 K83      0.173000
     39 H25        -1.6780   -0.6620    7.9940 ha        1 K83      0.139625
     40 H24        -2.8980   -1.3470    6.0820 ha        1 K83      0.139625
     41 H23        -1.8670   -1.3340    3.9550 ha        1 K83      0.138000
     42 HO27        0.3770    0.8120    8.5290 ho        1 K83      0.220000
     43 H12        -1.6370    0.7590   -3.0740 h1        1 K83      0.094500
     44 H12A       -1.4080   -0.7710   -2.6790 h1        1 K83      0.094500
     45 H13         0.1920   -0.1710   -4.8080 hc        1 K83      0.118000
     46 H14        -1.4560   -1.8910   -5.7500 hc        1 K83      0.073000
     47 H14A       -1.7180   -2.1020   -4.1850 hc        1 K83      0.073000
     48 H14B       -0.2540   -2.3230   -4.7870 hc        1 K83      0.073000
     49 H15        -1.2460    1.4430   -5.5230 hc        1 K83      0.073000
     50 H15A       -2.5270    0.5700   -5.1240 hc        1 K83      0.073000
     51 H15B       -1.6440    0.1590   -6.3970 hc        1 K83      0.073000
     52 H16         1.6790   -0.1860   -1.1920 h1        1 K83      0.114500
     53 H16A        0.9390   -1.4270   -1.8760 h1        1 K83      0.114500
     54 H17        -0.3680    0.2530    0.0190 h1        1 K83      0.106000
     55 HO18       -1.9710   -1.0150   -0.2100 ho        1 K83      0.205000
     56 H19         1.5060   -1.0650    0.9190 h1        1 K83      0.113000
     57 HN20       -1.0040   -1.2060    2.1240 hn        1 K83      0.230000
     58 H32        -0.2580   -3.2580    0.8880 hc        1 K83      0.108500
     59 H32A        0.6620   -3.0130   -0.3970 hc        1 K83      0.108500
     60 H33         0.3950   -4.8800    2.0240 ha        1 K83      0.129000
     61 H34         1.9830   -6.5310    2.5920 ha        1 K83      0.139625
     62 H35         4.2860   -6.1490    2.1860 ha        1 K83      0.139625
     63 H36         4.9900   -4.1180    1.2140 ha        1 K83      0.139625
     64 H37         3.3970   -2.4630    0.6440 ha        1 K83      0.139625
     65 H4         -1.4590    2.7480   -3.7100 ha        1 K83      0.139625
     66 H6          1.7290    4.0070   -1.4730 ha        1 K83      0.168000
     67 H3         -2.5250    4.8350   -3.3640 ha        1 K83      0.139625
     68 H7          0.6680    6.0880   -1.1270 ha        1 K83      0.168000
     69 H1         -2.9220    7.6360   -0.6050 h1        1 K83      0.088333
     70 H1A        -3.3830    6.2000   -1.1400 h1        1 K83      0.088333
     71 H1B        -2.1760    6.3130   -0.0900 h1        1 K83      0.088333
@<TRIPOS>BOND
     1    1    2 1   
     2    1    3 1   
     3    3    4 1   
     4    3    8 1   
     5    4    5 1   
     6    4   38 1   
     7    5    9 1   
     8    6    7 1   
     9    6   39 1   
    10    7   40 1   
    11    8   41 1   
    12    9   42 1   
    13   10   11 1   
    14   10   15 1   
    15   10   27 1   
    16   11   12 1   
    17   11   43 1   
    18   11   44 1   
    19   12   13 1   
    20   12   14 1   
    21   12   45 1   
    22   13   46 1   
    23   13   47 1   
    24   13   48 1   
    25   14   49 1   
    26   14   50 1   
    27   14   51 1   
    28   15   16 1   
    29   15   52 1   
    30   15   53 1   
    31   16   17 1   
    32   16   18 1   
    33   16   54 1   
    34   17   55 1   
    35   18   19 1   
    36   18   20 1   
    37   18   56 1   
    38   19   57 1   
    39   20   26 1   
    40   20   58 1   
    41   20   59 1   
    42   21   26 1   
    43   21   60 1   
    44   22   23 1   
    45   22   61 1   
    46   23   62 1   
    47   24   25 1   
    48   24   63 1   
    49   25   64 1   
    50   27   28 1   
    51   27   29 1   
    52   30   32 1   
    53   31   33 1   
    54   31   65 1   
    55   32   66 1   
    56   33   67 1   
    57   34   35 1   
    58   34   68 1   
    59   36   37 1   
    60   37   69 1   
    61   37   70 1   
    62   37   71 1   
@<TRIPOS>SUBSTRUCTURE
     1 K83         1 TEMP              0 ****  ****    0 ROOT
