@<TRIPOS>MOLECULE
K83
   73    74     1     0     0
SMALL
bcc


@<TRIPOS>ATOM
      1 C21        -1.0360    0.0970   -0.3010 c         1 K83      0.595700
      2 O22        -1.3290    1.0560   -1.0070 o         1 K83     -0.474100
      3 C22        -1.0970    0.0060    1.1600 ca        1 K83     -0.174600
      4 C27        -0.9620    1.2050    1.8710 ca        1 K83     -0.087000
      5 C26        -1.0260    1.1730    3.2770 ca        1 K83      0.145100
      6 C25        -1.2330   -0.0370    3.9560 ca        1 K83     -0.138000
      7 C24        -1.3790   -1.2160    3.2260 ca        1 K83     -0.073000
      8 C23        -1.3100   -1.2070    1.8350 ca        1 K83     -0.135000
      9 O27        -0.8760    2.3790    3.9040 oh        1 K83     -0.472100
     10 N11        -0.5750    0.6680   -5.6420 n3        1 K83     -0.912200
     11 C12        -1.9500    0.3920   -6.0590 c3        1 K83      0.121800
     12 C13        -2.4200    1.2180   -7.2650 c3        1 K83     -0.067700
     13 C14        -1.6290    0.8880   -8.5120 c3        1 K83     -0.107100
     14 C15        -3.8940    0.9460   -7.4850 c3        1 K83     -0.107100
     15 C16        -0.0130   -0.3690   -4.7760 c3        1 K83      0.096800
     16 C17        -0.7850   -0.5860   -3.4600 c3        1 K83      0.127100
     17 O18        -1.6410   -1.7140   -3.5340 oh        1 K83     -0.615800
     18 C19         0.2050   -0.8700   -2.2990 c3        1 K83      0.142500
     19 N20        -0.5390   -1.1400   -1.0160 n4        1 K83     -0.678800
     20 C32         1.1280   -2.0540   -2.6300 c3        1 K83     -0.055100
     21 C33         1.7220   -3.5990   -0.7530 ca        1 K83     -0.131500
     22 C34         2.5640   -3.9860    0.2890 ca        1 K83     -0.113500
     23 C35         3.6800   -3.2120    0.6110 ca        1 K83     -0.093000
     24 C36         3.9550   -2.0500   -0.1140 ca        1 K83     -0.113500
     25 C37         3.1160   -1.6630   -1.1580 ca        1 K83     -0.131500
     26 C38         1.9930   -2.4340   -1.4820 ca        1 K83     -0.170300
     27 S8          0.0130    2.8850   -4.6830 s4        1 K83      1.692300
     28 O9          0.8240    3.0780   -5.7550 o         1 K83     -0.450400
     29 O10         0.4560    2.2480   -3.5590 o         1 K83     -0.450400
     30 C5         -1.3150    3.6450   -4.6120 ca        1 K83     -0.688500
     31 C4         -2.1520    3.5900   -3.4510 ca        1 K83      0.063500
     32 C6         -1.7550    4.4900   -5.6770 ca        1 K83      0.063500
     33 C3         -3.3010    4.3220   -3.3450 ca        1 K83     -0.215500
     34 C7         -2.9020    5.2390   -5.5940 ca        1 K83     -0.215500
     35 C2         -3.6970    5.1760   -4.4200 ca        1 K83      0.305100
     36 O1         -4.8300    5.8660   -4.2180 os        1 K83     -0.264900
     37 C1         -5.2790    6.7670   -5.2470 c3        1 K83      0.096700
     38 H27        -0.8080    2.1660    1.3550 ha        1 K83      0.176000
     39 H25        -1.2860   -0.0560    5.0580 ha        1 K83      0.175000
     40 H24        -1.5540   -2.1670    3.7580 ha        1 K83      0.173000
     41 H23        -1.4570   -2.1530    1.2950 ha        1 K83      0.134000
     42 HO27       -0.9460    2.2460    4.8640 ho        1 K83      0.451000
     43 H12        -2.0750   -0.7000   -6.3210 h1        1 K83      0.056700
     44 H12A       -2.6200    0.6110   -5.1790 h1        1 K83      0.056700
     45 H13        -2.2900    2.3140   -7.0300 hc        1 K83      0.032700
     46 H14        -0.5810    1.2680   -8.4470 hc        1 K83      0.054867
     47 H14A       -2.1080    1.3640   -9.4030 hc        1 K83      0.054867
     48 H14B       -1.6020   -0.2150   -8.6840 hc        1 K83      0.054867
     49 H15        -4.4840    1.1880   -6.5690 hc        1 K83      0.054867
     50 H15A       -4.2740    1.5730   -8.3280 hc        1 K83      0.054867
     51 H15B       -4.0630   -0.1270   -7.7460 hc        1 K83      0.054867
     52 H16         0.0480   -1.3650   -5.3070 h1        1 K83      0.088700
     53 H16A        1.0390   -0.0390   -4.5330 h1        1 K83      0.088700
     54 H17        -1.3930    0.3290   -3.1950 h1        1 K83      0.064700
     55 HO18       -2.2320   -1.5960   -4.2900 ho        1 K83      0.442000
     56 H19         0.8180    0.0700   -2.1380 hx        1 K83      0.127700
     57 HN20        0.0920   -1.6600   -0.3820 hn        1 K83      0.478300
     58 H32         0.5040   -2.9270   -2.9680 hc        1 K83      0.092200
     59 H32A        1.7740   -1.7490   -3.4980 hc        1 K83      0.092200
     60 H33         0.8690   -4.2390   -1.0300 ha        1 K83      0.136000
     61 H34         2.3570   -4.9130    0.8460 ha        1 K83      0.159500
     62 H35         4.3520   -3.5250    1.4260 ha        1 K83      0.163000
     63 H36         4.8440   -1.4470    0.1290 ha        1 K83      0.159500
     64 H37         3.3520   -0.7600   -1.7420 ha        1 K83      0.136000
     65 H4         -1.8410    2.9360   -2.6110 ha        1 K83      0.174500
     66 H6         -1.1340    4.5480   -6.5950 ha        1 K83      0.174500
     67 H3         -3.9350    4.2830   -2.4420 ha        1 K83      0.191500
     68 H7         -3.2030    5.8910   -6.4310 ha        1 K83      0.191500
     69 H1         -4.5130    7.5600   -5.4230 h1        1 K83      0.084367
     70 H1A        -5.5070    6.1980   -6.1800 h1        1 K83      0.084367
     71 H1B        -6.2130    7.1990   -4.7970 h1        1 K83      0.084367
     72 H111        0.0080    0.7210   -6.4710 hn        1 K83      0.411800
     73 H202       -1.3470   -1.7420   -1.2340 hn        1 K83      0.478300
@<TRIPOS>BOND
     1    1    2 2   
     2    1    3 1   
     3    1   19 1   
     4    3    4 ar  
     5    3    8 ar  
     6    4    5 ar  
     7    4   38 1   
     8    5    6 ar  
     9    5    9 1   
    10    6    7 ar  
    11    6   39 1   
    12    7    8 ar  
    13    7   40 1   
    14    8   41 1   
    15    9   42 1   
    16   10   11 1   
    17   10   15 1   
    18   10   72 1   
    19   11   12 1   
    20   11   43 1   
    21   11   44 1   
    22   12   13 1   
    23   12   14 1   
    24   12   45 1   
    25   13   46 1   
    26   13   47 1   
    27   13   48 1   
    28   14   49 1   
    29   14   50 1   
    30   14   51 1   
    31   15   16 1   
    32   15   52 1   
    33   15   53 1   
    34   16   17 1   
    35   16   18 1   
    36   16   54 1   
    37   17   55 1   
    38   18   19 1   
    39   18   20 1   
    40   18   56 1   
    41   19   57 1   
    42   19   73 1   
    43   20   26 1   
    44   20   58 1   
    45   20   59 1   
    46   21   22 ar  
    47   21   26 ar  
    48   21   60 1   
    49   22   23 ar  
    50   22   61 1   
    51   23   24 ar  
    52   23   62 1   
    53   24   25 ar  
    54   24   63 1   
    55   25   26 ar  
    56   25   64 1   
    57   27   28 1   
    58   27   29 1   
    59   27   30 1   
    60   30   31 ar  
    61   30   32 ar  
    62   31   33 ar  
    63   31   65 1   
    64   32   34 ar  
    65   32   66 1   
    66   33   35 ar  
    67   33   67 1   
    68   34   35 ar  
    69   34   68 1   
    70   35   36 1   
    71   36   37 1   
    72   37   69 1   
    73   37   70 1   
    74   37   71 1   
@<TRIPOS>SUBSTRUCTURE
     1 K83         1 TEMP              0 ****  ****    0 ROOT
