@<TRIPOS>MOLECULE
K84
   67    68     1     0     0
SMALL
bcc


@<TRIPOS>ATOM
      1 C21         0.1320    0.4190    0.6440 c2        1 K84     -0.174200
      2 C22         1.2810   -0.2660    0.6270 c2        1 K84     -0.173200
      3 C23         2.0140   -0.6730    1.8490 c3        1 K84     -0.049200
      4 C24         3.2670   -1.4620    1.5320 c3        1 K84     -0.077400
      5 C25         3.9940   -1.8640    2.7970 c3        1 K84     -0.079400
      6 C26         5.2470   -2.6530    2.4830 c3        1 K84     -0.079400
      7 C27         5.9750   -3.0550    3.7480 c3        1 K84     -0.079400
      8 C28         7.2280   -3.8430    3.4340 c3        1 K84     -0.079400
      9 C29         7.9580   -4.2460    4.6980 c3        1 K84     -0.080400
     10 C30         9.2060   -5.0310    4.3900 c3        1 K84     -0.092100
     11 OAA        -8.0440    5.5880    3.5430 o         1 K84     -0.479100
     12 CAD       -13.2770    8.9690    8.0190 ca        1 K84     -0.221300
     13 CAG       -12.5330    8.4160    9.0580 ca        1 K84     -0.102000
     14 CAH       -12.8390    8.7560    6.6950 ca        1 K84      0.394200
     15 CAK       -11.3870    7.6740    8.7560 ca        1 K84     -0.192300
     16 NAL        -8.9250    6.1440    7.9240 nc        1 K84     -0.353000
     17 CAM        -3.7430    2.8650    2.6100 c3        1 K84     -0.078400
     18 CAN        -4.4180    3.2930    3.8960 c3        1 K84     -0.078400
     19 CAO        -2.4850    2.0720    2.8900 c3        1 K84     -0.079400
     20 CAP        -5.6750    4.0870    3.6120 c3        1 K84     -0.078400
     21 CAQ        -1.8100    1.6430    1.6040 c3        1 K84     -0.077400
     22 CAR        -6.3460    4.5130    4.9000 c3        1 K84     -0.166400
     23 NAS       -11.7450    8.0500    6.3750 nb        1 K84     -0.625000
     24 NAT        -8.0040    5.5520    7.1980 nc        1 K84     -0.313000
     25 OAU        -9.4510    6.5020    5.7710 os        1 K84     -0.309800
     26 CAV        -0.5500    0.8510    1.8860 c3        1 K84     -0.049200
     27 CAW       -11.0270    7.5140    7.4000 ca        1 K84      0.351300
     28 CAX        -9.8270    6.7370    7.0970 cd        1 K84      0.425400
     29 CAY        -8.2810    5.7410    5.8870 cd        1 K84      0.358900
     30 CAZ        -7.5930    5.3030    4.6510 c         1 K84      0.511600
     31 H21        -0.3650    0.6930   -0.3010 ha        1 K84      0.122000
     32 H22         1.7390   -0.5600   -0.3310 ha        1 K84      0.122000
     33 H23         1.3360   -1.2890    2.5040 hc        1 K84      0.047700
     34 H23A        2.2870    0.2430    2.4430 hc        1 K84      0.047700
     35 H24         3.9460   -0.8460    0.8870 hc        1 K84      0.041700
     36 H24A        2.9950   -2.3800    0.9460 hc        1 K84      0.041700
     37 H25         3.3140   -2.4800    3.4430 hc        1 K84      0.039700
     38 H25A        4.2640   -0.9470    3.3840 hc        1 K84      0.039700
     39 H26         5.9270   -2.0370    1.8370 hc        1 K84      0.039700
     40 H26A        4.9760   -3.5710    1.8970 hc        1 K84      0.039700
     41 H27         6.2450   -2.1370    4.3340 hc        1 K84      0.039700
     42 H27A        5.2950   -3.6710    4.3940 hc        1 K84      0.039700
     43 H28         6.9580   -4.7610    2.8480 hc        1 K84      0.039700
     44 H28A        7.9080   -3.2280    2.7880 hc        1 K84      0.039700
     45 H29         8.2250   -3.3270    5.2830 hc        1 K84      0.038700
     46 H29A        7.2760   -4.8610    5.3430 hc        1 K84      0.038700
     47 H30         9.7280   -5.3170    5.3350 hc        1 K84      0.032700
     48 H30A        9.9100   -4.4250    3.7680 hc        1 K84      0.032700
     49 H30B        8.9580   -5.9630    3.8280 hc        1 K84      0.032700
     50 HAG       -12.8380    8.5570   10.1060 ha        1 K84      0.148000
     51 HAH       -13.3980    9.1760    5.8380 h4        1 K84      0.033100
     52 HAK       -10.7810    7.2260    9.5580 ha        1 K84      0.170000
     53 HAM        -4.4520    2.2440    2.0020 hc        1 K84      0.042700
     54 HAMA       -3.4890    3.7710    1.9980 hc        1 K84      0.042700
     55 HAN        -4.6730    2.3870    4.5070 hc        1 K84      0.041700
     56 HANA       -3.7080    3.9140    4.5050 hc        1 K84      0.041700
     57 HAO        -2.7390    1.1660    3.5020 hc        1 K84      0.039700
     58 HAOA       -1.7760    2.6930    3.4980 hc        1 K84      0.039700
     59 HAP        -6.3880    3.4720    3.0030 hc        1 K84      0.055700
     60 HAPA       -5.4250    4.9950    3.0020 hc        1 K84      0.055700
     61 HAQ        -1.5570    2.5480    0.9920 hc        1 K84      0.042200
     62 HAQA       -2.5180    1.0200    0.9970 hc        1 K84      0.042200
     63 HAR        -6.6120    3.6110    5.5160 hc        1 K84      0.085700
     64 HARA       -5.6430    5.1380    5.5150 hc        1 K84      0.085700
     65 HAV        -0.8050   -0.0530    2.5060 hc        1 K84      0.047700
     66 HAVA        0.1550    1.4740    2.5030 hc        1 K84      0.047700
     67 HAD       -14.1830    9.5580    8.2140 ha        1 K84      0.151000
@<TRIPOS>BOND
     1    1    2 2   
     2    1   26 1   
     3    1   31 1   
     4    2    3 1   
     5    2   32 1   
     6    3    4 1   
     7    3   33 1   
     8    3   34 1   
     9    4    5 1   
    10    4   35 1   
    11    4   36 1   
    12    5    6 1   
    13    5   37 1   
    14    5   38 1   
    15    6    7 1   
    16    6   39 1   
    17    6   40 1   
    18    7    8 1   
    19    7   41 1   
    20    7   42 1   
    21    8    9 1   
    22    8   43 1   
    23    8   44 1   
    24    9   10 1   
    25    9   45 1   
    26    9   46 1   
    27   10   47 1   
    28   10   48 1   
    29   10   49 1   
    30   11   30 2   
    31   12   13 ar  
    32   12   14 ar  
    33   12   67 1   
    34   13   15 ar  
    35   13   50 1   
    36   14   23 ar  
    37   14   51 1   
    38   15   27 ar  
    39   15   52 1   
    40   16   24 1   
    41   16   28 2   
    42   17   18 1   
    43   17   19 1   
    44   17   53 1   
    45   17   54 1   
    46   18   20 1   
    47   18   55 1   
    48   18   56 1   
    49   19   21 1   
    50   19   57 1   
    51   19   58 1   
    52   20   22 1   
    53   20   59 1   
    54   20   60 1   
    55   21   26 1   
    56   21   61 1   
    57   21   62 1   
    58   22   30 1   
    59   22   63 1   
    60   22   64 1   
    61   23   27 ar  
    62   24   29 2   
    63   25   28 1   
    64   25   29 1   
    65   26   65 1   
    66   26   66 1   
    67   27   28 1   
    68   29   30 1   
@<TRIPOS>SUBSTRUCTURE
     1 K84         1 TEMP              0 ****  ****    0 ROOT
