@<TRIPOS>MOLECULE
K84
   67    68     1     0     0
SMALL
bcc


@<TRIPOS>ATOM
      1 C21         0.1460    0.4330    0.6470 c2        1 K84     -0.174200
      2 C22         1.2870   -0.2650    0.6320 c2        1 K84     -0.173200
      3 C23         2.0150   -0.6760    1.8560 c3        1 K84     -0.049200
      4 C24         3.2740   -1.4570    1.5400 c3        1 K84     -0.077400
      5 C25         3.9970   -1.8630    2.8060 c3        1 K84     -0.079400
      6 C26         5.2550   -2.6440    2.4940 c3        1 K84     -0.079400
      7 C27         5.9790   -3.0510    3.7600 c3        1 K84     -0.079400
      8 C28         7.2370   -3.8320    3.4470 c3        1 K84     -0.079400
      9 C29         7.9610   -4.2390    4.7120 c3        1 K84     -0.080400
     10 C30         9.2150   -5.0170    4.4060 c3        1 K84     -0.092100
     11 OAA        -8.0690    5.5480    3.5340 o         1 K84     -0.479100
     12 CAD       -13.3300    8.8970    8.0020 ca        1 K84     -0.221300
     13 CAG       -12.5320    8.4300    9.0420 ca        1 K84     -0.102000
     14 CAH       -12.9300    8.6210    6.6770 ca        1 K84      0.394200
     15 CAK       -11.3720    7.7090    8.7420 ca        1 K84     -0.192300
     16 NAL        -8.9100    6.1780    7.9120 nc        1 K84     -0.353000
     17 CAM        -3.7400    2.8670    2.6070 c3        1 K84     -0.078400
     18 CAN        -4.4070    3.3100    3.8910 c3        1 K84     -0.078400
     19 CAO        -2.4690    2.0950    2.8890 c3        1 K84     -0.079400
     20 CAP        -5.6770    4.0820    3.6060 c3        1 K84     -0.078400
     21 CAQ        -1.8010    1.6520    1.6040 c3        1 K84     -0.077400
     22 CAR        -6.3410    4.5230    4.8930 c3        1 K84     -0.166400
     23 NAS       -11.8240    7.9330    6.3580 nb        1 K84     -0.625000
     24 NAT        -7.9850    5.5910    7.1880 nc        1 K84     -0.313000
     25 OAU        -9.4750    6.4700    5.7590 os        1 K84     -0.309800
     26 CAV        -0.5290    0.8790    1.8880 c3        1 K84     -0.049200
     27 CAW       -11.0530    7.4820    7.3860 ca        1 K84      0.351300
     28 CAX        -9.8380    6.7280    7.0840 cd        1 K84      0.425400
     29 CAY        -8.2840    5.7410    5.8770 cd        1 K84      0.358900
     30 CAZ        -7.6020    5.2900    4.6420 c         1 K84      0.511600
     31 H21        -0.3490    0.7090   -0.2980 ha        1 K84      0.122000
     32 H22         1.7410   -0.5680   -0.3250 ha        1 K84      0.122000
     33 H23         1.3380   -1.3000    2.5020 hc        1 K84      0.047700
     34 H23A        2.2810    0.2380    2.4570 hc        1 K84      0.047700
     35 H24         3.9540   -0.8330    0.9020 hc        1 K84      0.041700
     36 H24A        3.0100   -2.3720    0.9470 hc        1 K84      0.041700
     37 H25         3.3170   -2.4860    3.4450 hc        1 K84      0.039700
     38 H25A        4.2600   -0.9480    3.4000 hc        1 K84      0.039700
     39 H26         5.9360   -2.0210    1.8550 hc        1 K84      0.039700
     40 H26A        4.9920   -3.5590    1.9000 hc        1 K84      0.039700
     41 H27         6.2420   -2.1360    4.3530 hc        1 K84      0.039700
     42 H27A        5.2980   -3.6740    4.3980 hc        1 K84      0.039700
     43 H28         6.9740   -4.7470    2.8540 hc        1 K84      0.039700
     44 H28A        7.9180   -3.2090    2.8090 hc        1 K84      0.039700
     45 H29         8.2220   -3.3230    5.3050 hc        1 K84      0.038700
     46 H29A        7.2780   -4.8610    5.3500 hc        1 K84      0.038700
     47 H30         9.7330   -5.3070    5.3520 hc        1 K84      0.032700
     48 H30A        9.9190   -4.4050    3.7920 hc        1 K84      0.032700
     49 H30B        8.9730   -5.9470    3.8370 hc        1 K84      0.032700
     50 HAG       -12.8050    8.6220   10.0910 ha        1 K84      0.148000
     51 HAH       -13.5320    8.9720    5.8180 h4        1 K84      0.033100
     52 HAK       -10.7240    7.3290    9.5460 ha        1 K84      0.170000
     53 HAM        -4.4470    2.2270    2.0170 hc        1 K84      0.042700
     54 HAMA       -3.5030    3.7650    1.9770 hc        1 K84      0.042700
     55 HAN        -4.6440    2.4130    4.5210 hc        1 K84      0.041700
     56 HANA       -3.7000    3.9510    4.4810 hc        1 K84      0.041700
     57 HAO        -2.7060    1.1970    3.5190 hc        1 K84      0.039700
     58 HAOA       -1.7620    2.7360    3.4790 hc        1 K84      0.039700
     59 HAP        -6.3890    3.4460    3.0160 hc        1 K84      0.055700
     60 HAPA       -5.4460    4.9820    2.9760 hc        1 K84      0.055700
     61 HAQ        -1.5640    2.5490    0.9740 hc        1 K84      0.042700
     62 HAQA       -2.5080    1.0100    1.0140 hc        1 K84      0.042700
     63 HAR        -6.5870    3.6290    5.5280 hc        1 K84      0.085700
     64 HARA       -5.6410    5.1700    5.4880 hc        1 K84      0.085700
     65 HAV        -0.7680   -0.0160    2.5260 hc        1 K84      0.047700
     66 HAVA        0.1750    1.5210    2.4860 hc        1 K84      0.047700
     67 HAD       -14.2480    9.4660    8.1950 ha        1 K84      0.151000
@<TRIPOS>BOND
     1    1    2 2   
     2    1   26 1   
     3    1   31 1   
     4    2    3 1   
     5    2   32 1   
     6    3    4 1   
     7    3   33 1   
     8    3   34 1   
     9    4    5 1   
    10    4   35 1   
    11    4   36 1   
    12    5    6 1   
    13    5   37 1   
    14    5   38 1   
    15    6    7 1   
    16    6   39 1   
    17    6   40 1   
    18    7    8 1   
    19    7   41 1   
    20    7   42 1   
    21    8    9 1   
    22    8   43 1   
    23    8   44 1   
    24    9   10 1   
    25    9   45 1   
    26    9   46 1   
    27   10   47 1   
    28   10   48 1   
    29   10   49 1   
    30   11   30 2   
    31   12   13 ar  
    32   12   14 ar  
    33   12   67 1   
    34   13   15 ar  
    35   13   50 1   
    36   14   23 ar  
    37   14   51 1   
    38   15   27 ar  
    39   15   52 1   
    40   16   24 1   
    41   16   28 2   
    42   17   18 1   
    43   17   19 1   
    44   17   53 1   
    45   17   54 1   
    46   18   20 1   
    47   18   55 1   
    48   18   56 1   
    49   19   21 1   
    50   19   57 1   
    51   19   58 1   
    52   20   22 1   
    53   20   59 1   
    54   20   60 1   
    55   21   26 1   
    56   21   61 1   
    57   21   62 1   
    58   22   30 1   
    59   22   63 1   
    60   22   64 1   
    61   23   27 ar  
    62   24   29 2   
    63   25   28 1   
    64   25   29 1   
    65   26   65 1   
    66   26   66 1   
    67   27   28 1   
    68   29   30 1   
@<TRIPOS>SUBSTRUCTURE
     1 K84         1 TEMP              0 ****  ****    0 ROOT
