@<TRIPOS>MOLECULE
K84
   67    61     1     0     0
SMALL
bcc


@<TRIPOS>ATOM
      1 C21         2.1650   -1.1950    0.4210 c1        1 K84     -0.172000
      2 C22         3.4890   -1.2330    0.7100 c1        1 K84     -0.168000
      3 C23         4.0370   -0.4150    1.8640 c3        1 K84     -0.132000
      4 C24         5.4410   -0.8890    2.1990 c3        1 K84     -0.154000
      5 C25         6.4400    0.1950    1.8390 c3        1 K84     -0.159000
      6 C26         7.5980    0.1620    2.8220 c3        1 K84     -0.158000
      7 C27         8.9010    0.3850    2.0760 c3        1 K84     -0.158000
      8 C28         9.8090    1.2790    2.9010 c3        1 K84     -0.158000
      9 C29        11.2360    0.7740    2.8080 c3        1 K84     -0.159000
     10 C30        12.1940    1.9030    3.1330 c3        1 K84     -0.210000
     11 OAA        -5.6900    0.9270   -3.9090 o         1 K84     -0.240000
     12 CAD       -12.9410   -1.9270   -4.9040 c1        1 K84     -0.114000
     13 CAG       -12.0610   -2.7580   -4.2710 c1        1 K84     -0.114000
     14 CAH       -12.7030   -0.5630   -4.9350 c1        1 K84     -0.114000
     15 CAK       -10.9490   -2.2430   -3.6710 c1        1 K84     -0.114000
     16 NAL        -9.5780    0.0390   -1.7550 n2        1 K84     -0.069000
     17 CAM        -2.4350    0.0100    0.2130 c3        1 K84     -0.158000
     18 CAN        -3.1790    1.1580   -0.4480 c3        1 K84     -0.156000
     19 CAO        -1.0140    0.4460    0.5370 c3        1 K84     -0.158000
     20 CAP        -4.0280    0.6220   -1.5880 c3        1 K84     -0.153000
     21 CAQ        -0.2070   -0.7570    0.9970 c3        1 K84     -0.156000
     22 CAR        -5.3710    1.3300   -1.5950 c3        1 K84     -0.195000
     23 NAS       -11.5920   -0.0500   -4.3350 n1        1 K84     -0.099000
     24 NAT        -8.3370    0.5110   -1.4940 n2        1 K84     -0.069000
     25 OAU        -8.3980   -0.1170   -3.5800 os        1 K84     -0.053000
     26 CAV         1.2310   -0.3350    1.2520 c2        1 K84     -0.131000
     27 CAW       -10.7130   -0.8780   -3.7040 c1        1 K84      0.023000
     28 CAX        -9.6140   -0.3470   -3.0410 c1        1 K84     -0.043000
     29 CAY        -7.6110    0.4130   -2.6200 c1        1 K84     -0.043000
     30 CAZ        -6.1770    0.8750   -2.7980 c1        1 K84      0.313000
     31 H21         1.8130   -1.7220   -0.3210 ha        1 K84      0.122000
     32 H22         4.0900   -1.7870    0.1760 DU        1 K84      0.123000
     33 H23         4.0630    0.5290    1.6110 hc        1 K84      0.087000
     34 H23A        3.4600   -0.5270    2.6460 hc        1 K84      0.087000
     35 H24         5.6420   -1.7000    1.6890 hc        1 K84      0.079500
     36 H24A        5.5000   -1.0830    3.1560 hc        1 K84      0.079500
     37 H25         6.7770    0.0400    0.9340 hc        1 K84      0.080500
     38 H25A        6.0020    1.0680    1.8800 hc        1 K84      0.080500
     39 H26         7.4790    0.8680    3.4890 hc        1 K84      0.078000
     40 H26A        7.6220   -0.7080    3.2680 hc        1 K84      0.078000
     41 H27         8.7160    0.8130    1.2170 hc        1 K84      0.079000
     42 H27A        9.3410   -0.4750    1.9240 hc        1 K84      0.079000
     43 H28         9.5190    1.2660    3.8340 hc        1 K84      0.079000
     44 H28A        9.7640    2.1950    2.5580 hc        1 K84      0.079000
     45 H29        11.3650    0.0430    3.4460 hc        1 K84      0.078000
     46 H29A       11.4090    0.4500    1.9020 hc        1 K84      0.078000
     47 H30        12.3510    2.4390    2.3280 hc        1 K84      0.072000
     48 H30A       11.8060    2.4690    3.8320 hc        1 K84      0.072000
     49 H30B       13.0440    1.5290    3.4480 hc        1 K84      0.072000
     50 HAD       -13.7360   -2.2950   -5.3330 ha        1 K84      0.159500
     51 HAG       -12.2280   -3.7190   -4.2490 ha        1 K84      0.159500
     52 HAH       -13.3320    0.0320   -5.3880 ha        1 K84      0.159500
     53 HAK       -10.3200   -2.8370   -3.2190 ha        1 K84      0.159500
     54 HAM        -2.4100   -0.7560   -0.3960 hc        1 K84      0.082000
     55 HAMA       -2.8940   -0.2440    1.0380 hc        1 K84      0.082000
     56 HAN        -3.7550    1.5960    0.2110 hc        1 K84      0.083000
     57 HANA       -2.5340    1.8050   -0.7980 hc        1 K84      0.083000
     58 HAO        -0.6010    0.8300   -0.2610 hc        1 K84      0.079500
     59 HAOA       -1.0340    1.1170    1.2490 hc        1 K84      0.079500
     60 HAP        -4.1660   -0.3390   -1.4670 hc        1 K84      0.093000
     61 HAPA       -3.5710    0.7810   -2.4380 hc        1 K84      0.093000
     62 HAQ        -0.5940   -1.1130    1.8220 hc        1 K84      0.081500
     63 HAQA       -0.2270   -1.4470    0.3030 hc        1 K84      0.081500
     64 HAR        -5.2300    2.2960   -1.6430 hc        1 K84      0.119500
     65 HARA       -5.8580    1.1120   -0.7750 hc        1 K84      0.119500
     66 HAV         1.4410   -0.4480    2.2010 ha        1 K84      0.086500
     67 HAVA        1.3440    0.6030    1.0030 ha        1 K84      0.086500
@<TRIPOS>BOND
     1    1    2 1   
     2    1   31 1   
     3    2    3 1   
     4    3    4 1   
     5    3   33 1   
     6    3   34 1   
     7    4    5 1   
     8    4   35 1   
     9    4   36 1   
    10    5    6 1   
    11    5   37 1   
    12    5   38 1   
    13    6    7 1   
    14    6   39 1   
    15    6   40 1   
    16    7    8 1   
    17    7   41 1   
    18    7   42 1   
    19    8    9 1   
    20    8   43 1   
    21    8   44 1   
    22    9   10 1   
    23    9   45 1   
    24    9   46 1   
    25   10   47 1   
    26   10   48 1   
    27   10   49 1   
    28   11   30 1   
    29   12   14 1   
    30   12   50 1   
    31   13   15 1   
    32   13   51 1   
    33   14   52 1   
    34   15   53 1   
    35   16   24 1   
    36   16   28 1   
    37   17   18 1   
    38   17   19 1   
    39   17   54 1   
    40   17   55 1   
    41   18   20 1   
    42   18   56 1   
    43   18   57 1   
    44   19   21 1   
    45   19   58 1   
    46   19   59 1   
    47   20   22 1   
    48   20   60 1   
    49   20   61 1   
    50   21   26 1   
    51   21   62 1   
    52   21   63 1   
    53   22   30 1   
    54   22   64 1   
    55   22   65 1   
    56   23   27 1   
    57   24   29 1   
    58   25   28 1   
    59   25   29 1   
    60   26   66 1   
    61   26   67 1   
@<TRIPOS>SUBSTRUCTURE
     1 K84         1 TEMP              0 ****  ****    0 ROOT
