@<TRIPOS>MOLECULE
K84
   67    68     1     0     0
SMALL
bcc


@<TRIPOS>ATOM
      1 C21         5.0740    2.7380    0.0140 c2        1 K84     -0.174200
      2 C22         6.3780    2.4390    0.0150 c2        1 K84     -0.173200
      3 C23         6.9050    1.0550    0.0000 c3        1 K84     -0.049200
      4 C24         8.4190    1.0150    0.0060 c3        1 K84     -0.077400
      5 C25         8.9280   -0.4100   -0.0090 c3        1 K84     -0.079400
      6 C26        10.4410   -0.4520   -0.0030 c3        1 K84     -0.079400
      7 C27        10.9520   -1.8770   -0.0170 c3        1 K84     -0.079400
      8 C28        12.4650   -1.9190   -0.0110 c3        1 K84     -0.079400
      9 C29        12.9770   -3.3440   -0.0260 c3        1 K84     -0.080400
     10 C30        14.4830   -3.3900   -0.0200 c3        1 K84     -0.092100
     11 OAA        -5.0090    2.1930   -0.0240 o         1 K84     -0.479100
     12 CAD       -12.1170   -0.6930   -0.0740 ca        1 K84     -0.221300
     13 CAG       -11.4620   -1.9210   -0.0870 ca        1 K84     -0.102000
     14 CAH       -11.3350    0.4820   -0.0590 ca        1 K84      0.394200
     15 CAK       -10.0640   -1.9490   -0.0840 ca        1 K84     -0.192300
     16 NAL        -7.0510   -1.8190   -0.0730 nc        1 K84     -0.353000
     17 CAM         0.1580    1.9040   -0.0110 c3        1 K84     -0.078400
     18 CAN        -0.9210    0.8420   -0.0250 c3        1 K84     -0.078400
     19 CAO         1.5380    1.2820   -0.0130 c3        1 K84     -0.079400
     20 CAP        -2.2990    1.4670   -0.0230 c3        1 K84     -0.078400
     21 CAQ         2.6170    2.3440    0.0020 c3        1 K84     -0.077400
     22 CAR        -3.3740    0.4020   -0.0380 c3        1 K84     -0.166400
     23 NAS        -9.9950    0.4880   -0.0550 nb        1 K84     -0.625000
     24 NAT        -5.8160   -1.3710   -0.0650 nc        1 K84     -0.313000
     25 OAU        -7.1630    0.4230   -0.0490 os        1 K84     -0.309800
     26 CAV         3.9970    1.7200    0.0000 c3        1 K84     -0.049200
     27 CAW        -9.3670   -0.7210   -0.0670 ca        1 K84      0.351300
     28 CAX        -7.9060   -0.7620   -0.0640 cd        1 K84      0.425400
     29 CAY        -5.8340   -0.0190   -0.0500 cd        1 K84      0.358900
     30 CAZ        -4.7510    0.9910   -0.0360 c         1 K84      0.511600
     31 H21         4.7450    3.7900    0.0250 ha        1 K84      0.122000
     32 H22         7.1320    3.2430    0.0250 ha        1 K84      0.122000
     33 H23         6.5110    0.4960    0.8940 hc        1 K84      0.047700
     34 H23A        6.5180    0.5170   -0.9090 hc        1 K84      0.047700
     35 H24         8.8130    1.5650   -0.8890 hc        1 K84      0.041700
     36 H24A        8.8060    1.5440    0.9160 hc        1 K84      0.041700
     37 H25         8.5340   -0.9600    0.8860 hc        1 K84      0.039700
     38 H25A        8.5410   -0.9390   -0.9190 hc        1 K84      0.039700
     39 H26        10.8360    0.0980   -0.8970 hc        1 K84      0.039700
     40 H26A       10.8290    0.0770    0.9070 hc        1 K84      0.039700
     41 H27        10.5570   -2.4270    0.8770 hc        1 K84      0.039700
     42 H27A       10.5640   -2.4060   -0.9280 hc        1 K84      0.039700
     43 H28        12.8600   -1.3690   -0.9060 hc        1 K84      0.039700
     44 H28A       12.8520   -1.3900    0.8990 hc        1 K84      0.039700
     45 H29        12.5790   -3.8920    0.8690 hc        1 K84      0.038700
     46 H29A       12.5870   -3.8710   -0.9360 hc        1 K84      0.038700
     47 H30        14.8970   -2.8700   -0.9170 hc        1 K84      0.032700
     48 H30A       14.8890   -2.8910    0.8920 hc        1 K84      0.032700
     49 H30B       14.8380   -4.4490   -0.0310 hc        1 K84      0.032700
     50 HAG       -12.0310   -2.8630   -0.1000 ha        1 K84      0.148000
     51 HAH       -11.8120    1.4800   -0.0480 h4        1 K84      0.033100
     52 HAK        -9.5210   -2.9060   -0.0930 ha        1 K84      0.170000
     53 HAM         0.0430    2.5690   -0.9060 hc        1 K84      0.042700
     54 HAMA        0.0370    2.5500    0.8990 hc        1 K84      0.042700
     55 HAN        -0.8010    0.1960   -0.9350 hc        1 K84      0.041700
     56 HANA       -0.8060    0.1770    0.8710 hc        1 K84      0.041700
     57 HAO         1.6530    0.6170    0.8830 hc        1 K84      0.039700
     58 HAOA        1.6590    0.6360   -0.9220 hc        1 K84      0.039700
     59 HAP        -2.4250    2.1150    0.8850 hc        1 K84      0.055700
     60 HAPA       -2.4200    2.1340   -0.9180 hc        1 K84      0.055700
     61 HAQ         2.5030    3.0090   -0.8940 hc        1 K84      0.042700
     62 HAQA        2.4970    2.9900    0.9110 hc        1 K84      0.042700
     63 HAR        -3.2650   -0.2470   -0.9490 hc        1 K84      0.085700
     64 HARA       -3.2710   -0.2660    0.8600 hc        1 K84      0.085700
     65 HAV         4.1130    1.0670   -0.9080 hc        1 K84      0.047700
     66 HAVA        4.1070    1.0480    0.8950 hc        1 K84      0.047700
     67 HAD       -13.2130   -0.6280   -0.0770 ha        1 K84      0.151000
@<TRIPOS>BOND
     1    1    2 2   
     2    1   26 1   
     3    1   31 1   
     4    2    3 1   
     5    2   32 1   
     6    3    4 1   
     7    3   33 1   
     8    3   34 1   
     9    4    5 1   
    10    4   35 1   
    11    4   36 1   
    12    5    6 1   
    13    5   37 1   
    14    5   38 1   
    15    6    7 1   
    16    6   39 1   
    17    6   40 1   
    18    7    8 1   
    19    7   41 1   
    20    7   42 1   
    21    8    9 1   
    22    8   43 1   
    23    8   44 1   
    24    9   10 1   
    25    9   45 1   
    26    9   46 1   
    27   10   47 1   
    28   10   48 1   
    29   10   49 1   
    30   11   30 2   
    31   12   13 ar  
    32   12   14 ar  
    33   12   67 1   
    34   13   15 ar  
    35   13   50 1   
    36   14   23 ar  
    37   14   51 1   
    38   15   27 ar  
    39   15   52 1   
    40   16   24 1   
    41   16   28 2   
    42   17   18 1   
    43   17   19 1   
    44   17   53 1   
    45   17   54 1   
    46   18   20 1   
    47   18   55 1   
    48   18   56 1   
    49   19   21 1   
    50   19   57 1   
    51   19   58 1   
    52   20   22 1   
    53   20   59 1   
    54   20   60 1   
    55   21   26 1   
    56   21   61 1   
    57   21   62 1   
    58   22   30 1   
    59   22   63 1   
    60   22   64 1   
    61   23   27 ar  
    62   24   29 2   
    63   25   28 1   
    64   25   29 1   
    65   26   65 1   
    66   26   66 1   
    67   27   28 1   
    68   29   30 1   
@<TRIPOS>SUBSTRUCTURE
     1 K84         1 TEMP              0 ****  ****    0 ROOT
