@<TRIPOS>MOLECULE
K85
   43    44     1     0     0
SMALL
bcc


@<TRIPOS>ATOM
      1 F19        -0.3220    0.4630    0.3510 f         1 K85     -0.236633
      2 C17         1.0460    0.3630    0.2920 c3        1 K85      0.688200
      3 F20         1.4400    0.3650    1.6090 f         1 K85     -0.236633
      4 F18         1.2710   -0.9300   -0.1190 f         1 K85     -0.236633
      5 C13         1.7260    1.4190   -0.5730 ca        1 K85     -0.141300
      6 C14         1.0490    1.9520   -1.6650 ca        1 K85     -0.082000
      7 C12         3.0280    1.8170   -0.2560 ca        1 K85     -0.155000
      8 C11         3.6490    2.7730   -1.0640 ca        1 K85      0.115100
      9 O15         4.9290    3.2520   -0.8610 os        1 K85     -0.322900
     10 C16         5.6350    2.7090    0.2490 c3        1 K85      0.110700
     11 C10         2.9850    3.3270   -2.1760 ca        1 K85     -0.103000
     12 C9          1.6840    2.9140   -2.4700 ca        1 K85     -0.082500
     13 C6          0.9780    3.4800   -3.6180 cc        1 K85      0.561500
     14 N7         -0.1590    2.8740   -4.2130 nc        1 K85     -0.670000
     15 C8         -0.4820    3.7100   -5.2150 cd        1 K85      0.411400
     16 N5          1.3270    4.6500   -4.2520 nd        1 K85     -0.505800
     17 N4          0.4310    4.7870   -5.2400 na        1 K85     -0.055400
     18 C3          0.3970    5.8980   -6.1700 c3        1 K85      0.060300
     19 C2          0.2150    7.2580   -5.4950 c3        1 K85     -0.151400
     20 C1          0.0000    8.3080   -6.5420 c         1 K85      0.635100
     21 O          -0.3150    8.1500   -7.7240 o         1 K85     -0.550000
     22 O1'         0.1840    9.5680   -6.0570 os        1 K85     -0.435900
     23 C2'        -0.0110   10.6770   -6.9670 c3        1 K85      0.149100
     24 C4'        -1.4870   11.0030   -7.0560 c3        1 K85     -0.110100
     25 C3'         0.7940   11.8190   -6.3790 c3        1 K85     -0.110100
     26 H1          0.0210    1.6210   -1.8890 ha        1 K85      0.173000
     27 H2          3.5350    1.3800    0.6170 ha        1 K85      0.156000
     28 H3          5.7680    1.6060    0.1310 h1        1 K85      0.049033
     29 H4          6.6230    3.2340    0.2070 h1        1 K85      0.049033
     30 H5          5.1050    2.9410    1.2050 h1        1 K85      0.049033
     31 H6          3.5090    4.0750   -2.7900 ha        1 K85      0.170000
     32 H7         -1.3060    3.5970   -5.9280 h5        1 K85      0.076100
     33 H8          1.3600    5.9090   -6.7590 h1        1 K85      0.082700
     34 H9         -0.4550    5.7160   -6.8860 h1        1 K85      0.082700
     35 H10         1.1150    7.5210   -4.8770 hc        1 K85      0.099200
     36 H11        -0.6770    7.2620   -4.8130 hc        1 K85      0.099200
     37 H12         0.3870   10.3870   -7.9800 h1        1 K85      0.070700
     38 H13        -1.6350   11.8900   -7.7150 hc        1 K85      0.049700
     39 H14        -1.9000   11.2290   -6.0440 hc        1 K85      0.049700
     40 H15        -2.0420   10.1340   -7.4850 hc        1 K85      0.049700
     41 H16         0.4240   12.0720   -5.3560 hc        1 K85      0.049700
     42 H17         1.8710   11.5380   -6.3060 hc        1 K85      0.049700
     43 H18         0.6910   12.7140   -7.0370 hc        1 K85      0.049700
@<TRIPOS>BOND
     1    1    2 1   
     2    2    3 1   
     3    2    4 1   
     4    2    5 1   
     5    5    6 ar  
     6    5    7 ar  
     7    6   12 ar  
     8    6   26 1   
     9    7    8 ar  
    10    7   27 1   
    11    8    9 1   
    12    8   11 ar  
    13    9   10 1   
    14   10   28 1   
    15   10   29 1   
    16   10   30 1   
    17   11   12 ar  
    18   11   31 1   
    19   12   13 1   
    20   13   14 1   
    21   13   16 2   
    22   14   15 2   
    23   15   17 1   
    24   15   32 1   
    25   16   17 1   
    26   17   18 1   
    27   18   19 1   
    28   18   33 1   
    29   18   34 1   
    30   19   20 1   
    31   19   35 1   
    32   19   36 1   
    33   20   21 2   
    34   20   22 1   
    35   22   23 1   
    36   23   24 1   
    37   23   25 1   
    38   23   37 1   
    39   24   38 1   
    40   24   39 1   
    41   24   40 1   
    42   25   41 1   
    43   25   42 1   
    44   25   43 1   
@<TRIPOS>SUBSTRUCTURE
     1 K85         1 TEMP              0 ****  ****    0 ROOT
