@<TRIPOS>MOLECULE
K85
   43    44     1     0     0
SMALL
bcc


@<TRIPOS>ATOM
      1 F19         4.8370    1.9010   -1.8590 f         1 K85     -0.236633
      2 C17         5.1660    0.8650   -1.0200 c3        1 K85      0.688200
      3 F20         6.0210    0.0890   -1.7680 f         1 K85     -0.236633
      4 F18         5.9820    1.4420   -0.0770 f         1 K85     -0.236633
      5 C13         3.9740    0.1120   -0.4380 ca        1 K85     -0.141300
      6 C14         2.7740    0.7840   -0.2270 ca        1 K85     -0.082000
      7 C12         4.1220   -1.2400   -0.1130 ca        1 K85     -0.155000
      8 C11         3.0300   -1.9170    0.4360 ca        1 K85      0.115100
      9 O15         3.0410   -3.2490    0.8010 os        1 K85     -0.322900
     10 C16         4.2660   -3.9450    0.5970 c3        1 K85      0.110700
     11 C10         1.8040   -1.2580    0.6610 ca        1 K85     -0.103000
     12 C9          1.6820    0.0910    0.3250 ca        1 K85     -0.082500
     13 C6          0.4180    0.7900    0.5480 cc        1 K85      0.561500
     14 N7          0.3050    2.2040    0.5990 nc        1 K85     -0.670000
     15 C8         -1.0050    2.4140    0.8190 cd        1 K85      0.411400
     16 N5         -0.7960    0.1710    0.7330 nd        1 K85     -0.505800
     17 N4         -1.6710    1.1720    0.9070 na        1 K85     -0.055400
     18 C3         -3.0930    0.9920    1.1210 c3        1 K85      0.060300
     19 C2         -3.7980    0.2570   -0.0190 c3        1 K85     -0.151400
     20 C1         -5.2790    0.2930    0.2060 c         1 K85      0.635100
     21 O          -5.9160    1.0320    0.9610 o         1 K85     -0.550000
     22 O1'        -5.9400   -0.6240   -0.5530 os        1 K85     -0.435900
     23 C2'        -7.3830   -0.6790   -0.4400 c3        1 K85      0.149100
     24 C4'        -7.9980    0.3890   -1.3200 c3        1 K85     -0.110100
     25 C3'        -7.7620   -2.0780   -0.8870 c3        1 K85     -0.110100
     26 H1          2.6870    1.8490   -0.4970 ha        1 K85      0.173000
     27 H2          5.0820   -1.7440   -0.2960 ha        1 K85      0.156000
     28 H3          5.0860   -3.4860    1.2000 h1        1 K85      0.049033
     29 H4          4.0380   -4.9790    0.9610 h1        1 K85      0.049033
     30 H5          4.5350   -3.9600   -0.4870 h1        1 K85      0.049033
     31 H6          0.9680   -1.8250    1.0970 ha        1 K85      0.170000
     32 H7         -1.5080    3.3810    0.9300 h5        1 K85      0.076100
     33 H8         -3.2460    0.4140    2.0780 h1        1 K85      0.082700
     34 H9         -3.5490    2.0150    1.2490 h1        1 K85      0.082700
     35 H10        -3.5870    0.7390   -1.0110 hc        1 K85      0.099200
     36 H11        -3.4520   -0.8090   -0.0810 hc        1 K85      0.099200
     37 H12        -7.6680   -0.5110    0.6360 h1        1 K85      0.070700
     38 H13        -7.6680    0.2640   -2.3790 hc        1 K85      0.049700
     39 H14        -9.1110    0.3140   -1.2760 hc        1 K85      0.049700
     40 H15        -7.6870    1.4000   -0.9630 hc        1 K85      0.049700
     41 H16        -7.2740   -2.8390   -0.2330 hc        1 K85      0.049700
     42 H17        -8.8700   -2.1920   -0.8220 hc        1 K85      0.049700
     43 H18        -7.4370   -2.2540   -1.9400 hc        1 K85      0.049700
@<TRIPOS>BOND
     1    1    2 1   
     2    2    3 1   
     3    2    4 1   
     4    2    5 1   
     5    5    6 ar  
     6    5    7 ar  
     7    6   12 ar  
     8    6   26 1   
     9    7    8 ar  
    10    7   27 1   
    11    8    9 1   
    12    8   11 ar  
    13    9   10 1   
    14   10   28 1   
    15   10   29 1   
    16   10   30 1   
    17   11   12 ar  
    18   11   31 1   
    19   12   13 1   
    20   13   14 1   
    21   13   16 2   
    22   14   15 2   
    23   15   17 1   
    24   15   32 1   
    25   16   17 1   
    26   17   18 1   
    27   18   19 1   
    28   18   33 1   
    29   18   34 1   
    30   19   20 1   
    31   19   35 1   
    32   19   36 1   
    33   20   21 2   
    34   20   22 1   
    35   22   23 1   
    36   23   24 1   
    37   23   25 1   
    38   23   37 1   
    39   24   38 1   
    40   24   39 1   
    41   24   40 1   
    42   25   41 1   
    43   25   42 1   
    44   25   43 1   
@<TRIPOS>SUBSTRUCTURE
     1 K85         1 TEMP              0 ****  ****    0 ROOT
