@<TRIPOS>MOLECULE
K85
   43    39     1     0     0
SMALL
bcc


@<TRIPOS>ATOM
      1 F19         1.6790   -1.8260    6.7080 f         1 K85     -0.165333
      2 C17         0.7360   -2.2370    5.8350 c3        1 K85      0.467000
      3 F20         0.2680   -3.4450    6.2110 f         1 K85     -0.165333
      4 F18        -0.2810   -1.3470    5.8200 f         1 K85     -0.165333
      5 C13         1.3470   -2.3380    4.4310 c2        1 K85     -0.134000
      6 C14         0.6270   -1.8780    3.3260 c2        1 K85     -0.082000
      7 C12         2.5940   -2.9300    4.2510 c1        1 K85     -0.155000
      8 C11         3.1230   -3.0630    2.9690 c1        1 K85      0.070000
      9 O15         4.4180   -3.6180    2.7880 os        1 K85     -0.206000
     10 C16         4.4560   -5.0350    2.8810 c3        1 K85     -0.079000
     11 C10         2.4010   -2.6020    1.8670 c1        1 K85     -0.103000
     12 C9          1.1530   -2.0100    2.0490 c1        1 K85      0.025000
     13 C6          0.3840   -1.4710    0.8530 c2        1 K85     -0.072000
     14 N7         -0.7240   -2.0150    0.3190 n2        1 K85     -0.144000
     15 C8         -1.0720   -1.2860   -0.7480 c1        1 K85     -0.077000
     16 N5          0.7200   -0.4030    0.1130 n2        1 K85     -0.073000
     17 N4         -0.1800   -0.2870   -0.8790 n2        1 K85     -0.156000
     18 C3         -0.1590    0.6940   -1.9330 c2        1 K85      0.001000
     19 C2         -1.2070    1.7540   -1.6550 c3        1 K85     -0.180000
     20 C1         -1.3460    2.6550   -2.8630 c1        1 K85      0.306000
     21 O          -0.4460    2.7250   -3.6740 o         1 K85     -0.361000
     22 O1'        -2.5030    3.4450   -3.0260 o         1 K85     -0.274000
     23 C2'        -2.5220    4.1900   -4.2330 c3        1 K85      0.038000
     24 C4'        -3.6930    3.7260   -5.1040 c3        1 K85     -0.228000
     25 C3'        -2.6800    5.6590   -3.9140 c3        1 K85     -0.228000
     26 H1         -0.2660   -1.4550    3.4560 ha        1 K85      0.173000
     27 H2          3.1210   -3.2180    5.0340 ha        1 K85      0.156000
     28 H3          5.3080   -5.3690    2.4920 h1        1 K85      0.088333
     29 H4          3.6960   -5.4160    2.3840 h1        1 K85      0.088333
     30 H5          4.3990   -5.3060    3.8310 h1        1 K85      0.088333
     31 H6          2.7630   -2.6920    0.9860 ha        1 K85      0.170000
     32 H7         -1.8400   -1.4510   -1.3310 DU        1 K85      0.213000
     33 H8          0.7330    1.1150   -1.9740 ha        1 K85      0.122000
     34 H9         -0.3570    0.2520   -2.7990 ha        1 K85      0.122000
     35 H10        -0.9350    2.2860   -0.8830 hc        1 K85      0.138500
     36 H11        -2.0730    1.3190   -1.4670 hc        1 K85      0.138500
     37 H12        -1.6770    4.0480   -4.7170 h1        1 K85      0.110000
     38 H13        -4.5400    3.8380   -4.6040 hc        1 K85      0.089000
     39 H14        -3.5750    2.7900   -5.3340 hc        1 K85      0.089000
     40 H15        -3.7240    4.2650   -5.9260 hc        1 K85      0.089000
     41 H16        -1.9340    5.9520   -3.3280 hc        1 K85      0.089000
     42 H17        -3.5270    5.8020   -3.4570 hc        1 K85      0.089000
     43 H18        -2.6660    6.1820   -4.7530 hc        1 K85      0.089000
@<TRIPOS>BOND
     1    1    2 1   
     2    2    3 1   
     3    2    4 1   
     4    2    5 1   
     5    5    6 1   
     6    5    7 1   
     7    6   12 1   
     8    6   26 1   
     9    7   27 1   
    10    8    9 1   
    11    8   11 1   
    12    9   10 1   
    13   10   28 1   
    14   10   29 1   
    15   10   30 1   
    16   11   31 1   
    17   12   13 1   
    18   13   14 1   
    19   13   16 1   
    20   14   15 1   
    21   15   17 1   
    22   16   17 1   
    23   18   19 1   
    24   18   33 1   
    25   18   34 1   
    26   19   20 1   
    27   19   35 1   
    28   19   36 1   
    29   20   21 1   
    30   22   23 1   
    31   23   24 1   
    32   23   25 1   
    33   23   37 1   
    34   24   38 1   
    35   24   39 1   
    36   24   40 1   
    37   25   41 1   
    38   25   42 1   
    39   25   43 1   
@<TRIPOS>SUBSTRUCTURE
     1 K85         1 TEMP              0 ****  ****    0 ROOT
