@<TRIPOS>MOLECULE
K85
   43    44     1     0     0
SMALL
bcc


@<TRIPOS>ATOM
      1 F19        -0.3140    0.4400    0.3350 f         1 K85     -0.236633
      2 C17         1.0560    0.3490    0.2790 c3        1 K85      0.688200
      3 F20         1.4450    0.3490    1.5980 f         1 K85     -0.236633
      4 F18         1.2890   -0.9410   -0.1350 f         1 K85     -0.236633
      5 C13         1.7310    1.4120   -0.5810 ca        1 K85     -0.141300
      6 C14         1.0540    1.9450   -1.6730 ca        1 K85     -0.082000
      7 C12         3.0300    1.8170   -0.2580 ca        1 K85     -0.155000
      8 C11         3.6470    2.7800   -1.0610 ca        1 K85      0.115100
      9 O15         4.9230    3.2660   -0.8530 os        1 K85     -0.322900
     10 C16         5.6290    2.7240    0.2580 c3        1 K85      0.110700
     11 C10         2.9830    3.3330   -2.1730 ca        1 K85     -0.103000
     12 C9          1.6860    2.9130   -2.4730 ca        1 K85     -0.082500
     13 C6          0.9800    3.4780   -3.6210 cc        1 K85      0.561500
     14 N7         -0.1550    2.8690   -4.2180 nc        1 K85     -0.670000
     15 C8         -0.4790    3.7060   -5.2200 cd        1 K85      0.411400
     16 N5          1.3250    4.6510   -4.2530 nd        1 K85     -0.505800
     17 N4          0.4310    4.7860   -5.2420 na        1 K85     -0.055400
     18 C3          0.3950    5.8980   -6.1700 c3        1 K85      0.060300
     19 C2          0.2120    7.2580   -5.4940 c3        1 K85     -0.151400
     20 C1         -0.0060    8.3080   -6.5400 c         1 K85      0.635100
     21 O          -0.3280    8.1510   -7.7200 o         1 K85     -0.550000
     22 O1'         0.1840    9.5670   -6.0560 os        1 K85     -0.435900
     23 C2'        -0.0130   10.6770   -6.9650 c3        1 K85      0.149100
     24 C4'        -1.4900   11.0070   -7.0440 c3        1 K85     -0.110100
     25 C3'         0.7980   11.8170   -6.3810 c3        1 K85     -0.110100
     26 H1          0.0290    1.6080   -1.9000 ha        1 K85      0.173000
     27 H2          3.5370    1.3810    0.6150 ha        1 K85      0.156000
     28 H3          5.7700    1.6230    0.1370 h1        1 K85      0.049033
     29 H4          6.6140    3.2550    0.2210 h1        1 K85      0.049033
     30 H5          5.0950    2.9500    1.2130 h1        1 K85      0.049033
     31 H6          3.5040    4.0870   -2.7830 ha        1 K85      0.170000
     32 H7         -1.3020    3.5920   -5.9330 h5        1 K85      0.076100
     33 H8          1.3570    5.9110   -6.7600 h1        1 K85      0.082700
     34 H9         -0.4570    5.7160   -6.8860 h1        1 K85      0.082700
     35 H10         1.1120    7.5210   -4.8770 hc        1 K85      0.099200
     36 H11        -0.6790    7.2590   -4.8100 hc        1 K85      0.099200
     37 H12         0.3760   10.3860   -7.9800 h1        1 K85      0.070700
     38 H13        -1.6390   11.8950   -7.7020 hc        1 K85      0.049700
     39 H14        -1.8950   11.2350   -6.0290 hc        1 K85      0.049700
     40 H15        -2.0500   10.1390   -7.4690 hc        1 K85      0.049700
     41 H16         0.4360   12.0700   -5.3570 hc        1 K85      0.049700
     42 H17         1.8750   11.5320   -6.3160 hc        1 K85      0.049700
     43 H18         0.6930   12.7120   -7.0390 hc        1 K85      0.049700
@<TRIPOS>BOND
     1    1    2 1   
     2    2    3 1   
     3    2    4 1   
     4    2    5 1   
     5    5    6 ar  
     6    5    7 ar  
     7    6   12 ar  
     8    6   26 1   
     9    7    8 ar  
    10    7   27 1   
    11    8    9 1   
    12    8   11 ar  
    13    9   10 1   
    14   10   28 1   
    15   10   29 1   
    16   10   30 1   
    17   11   12 ar  
    18   11   31 1   
    19   12   13 1   
    20   13   14 1   
    21   13   16 2   
    22   14   15 2   
    23   15   17 1   
    24   15   32 1   
    25   16   17 1   
    26   17   18 1   
    27   18   19 1   
    28   18   33 1   
    29   18   34 1   
    30   19   20 1   
    31   19   35 1   
    32   19   36 1   
    33   20   21 2   
    34   20   22 1   
    35   22   23 1   
    36   23   24 1   
    37   23   25 1   
    38   23   37 1   
    39   24   38 1   
    40   24   39 1   
    41   24   40 1   
    42   25   41 1   
    43   25   42 1   
    44   25   43 1   
@<TRIPOS>SUBSTRUCTURE
     1 K85         1 TEMP              0 ****  ****    0 ROOT
