@<TRIPOS>MOLECULE
K88
   48    50     1     0     0
SMALL
bcc


@<TRIPOS>ATOM
      1 CAC         0.1460    0.3970    0.2170 c3        1 K88      0.100100
      2 NAA         1.5470    0.1460    0.5180 n7        1 K88     -0.911200
      3 CAD         2.1320    1.1490    1.3940 c3        1 K88      0.100100
      4 SAB         2.7830   -0.1460   -1.4470 s4        1 K88      1.674300
      5 OAE         3.8860   -0.5770   -0.7680 o         1 K88     -0.453900
      6 OAF         1.8720   -1.0190   -1.9670 o         1 K88     -0.453900
      7 CAG         2.7850    1.2990   -1.9860 ca        1 K88     -0.664500
      8 CAH         3.8560    2.1960   -1.6670 ca        1 K88      0.020000
      9 CAI         3.8870    3.4580   -2.1810 ca        1 K88     -0.089800
     10 CAL         1.7560    1.7750   -2.8500 ca        1 K88      0.062000
     11 CAK         1.7480    3.0410   -3.3870 ca        1 K88     -0.209000
     12 CAJ         2.8130    3.9130   -3.0660 ca        1 K88      0.197600
     13 NAO         3.0500    5.1990   -3.4530 ns        1 K88     -0.432100
     14 CAN         4.2870    5.6710   -2.8600 c         1 K88      0.732700
     15 OAZ         4.6780    6.8190   -3.0880 o         1 K88     -0.585500
     16 CAM         4.8370    4.5650   -2.0460 cc        1 K88     -0.270400
     17 CAP         5.9820    4.5060   -1.3120 cf        1 K88      0.131800
     18 CAQ         6.9970    5.4480   -1.0760 cd        1 K88     -0.211100
     19 CAR         8.1560    5.2000   -0.2580 cc        1 K88     -0.077000
     20 CAS         8.9370    6.3660   -0.2630 cc        1 K88     -0.155300
     21 CAV        10.2060    6.6720    0.4140 c3        1 K88     -0.012100
     22 CAW        10.8560    7.9130   -0.1770 c3        1 K88     -0.081400
     23 CAX         9.8650    9.0430   -0.3710 c3        1 K88     -0.075400
     24 CAY         8.7700    8.6870   -1.3650 c3        1 K88     -0.034100
     25 CAT         8.2560    7.3270   -1.0850 cd        1 K88     -0.006600
     26 NAU         7.1010    6.7680   -1.5620 na        1 K88     -0.119100
     27 HAC1       -0.2240   -0.4060   -0.4770 h1        1 K88      0.072033
     28 HAC2        0.0450    1.3970   -0.2820 h1        1 K88      0.072033
     29 HAC3       -0.4940    0.3990    1.1400 h1        1 K88      0.072033
     30 HAD1        2.1030    2.1500    0.8860 h1        1 K88      0.072033
     31 HAD2        1.5820    1.2340    2.3700 h1        1 K88      0.072033
     32 HAD3        3.1990    0.8680    1.6060 h1        1 K88      0.072033
     33 HAH         4.6650    1.8370   -1.0040 ha        1 K88      0.163000
     34 HAL         0.9310    1.0810   -3.1060 ha        1 K88      0.165000
     35 HAK         0.9370    3.3680   -4.0560 ha        1 K88      0.176000
     36 HAO         2.4820    5.7400   -4.0590 hn        1 K88      0.364500
     37 HAP         6.1730    3.5390   -0.7920 ha        1 K88      0.140000
     38 HAR         8.3660    4.2660    0.2580 ha        1 K88      0.162000
     39 HAU         6.4420    7.2140   -2.1580 hn        1 K88      0.334700
     40 HAV1       10.0100    6.8360    1.5090 hc        1 K88      0.059200
     41 HAV2       10.9110    5.8020    0.3290 hc        1 K88      0.059200
     42 HAW1       11.6780    8.2540    0.5050 hc        1 K88      0.054700
     43 HAW2       11.3230    7.6550   -1.1640 hc        1 K88      0.054700
     44 HAX1        9.4000    9.3030    0.6160 hc        1 K88      0.057200
     45 HAX2       10.4030    9.9540   -0.7430 hc        1 K88      0.057200
     46 HAY1        9.1840    8.7090   -2.4120 hc        1 K88      0.071700
     47 HAY2        7.9470    9.4480   -1.3120 hc        1 K88      0.071700
     48 HAA1        1.6280   -0.7600    0.9620 hn        1 K88      0.404800
@<TRIPOS>BOND
     1    1    2 1   
     2    1   27 1   
     3    1   28 1   
     4    1   29 1   
     5    2    3 1   
     6    2   48 1   
     7    3   30 1   
     8    3   31 1   
     9    3   32 1   
    10    4    5 1   
    11    4    6 1   
    12    4    7 1   
    13    7    8 ar  
    14    7   10 ar  
    15    8    9 ar  
    16    8   33 1   
    17    9   12 ar  
    18    9   16 1   
    19   10   11 ar  
    20   10   34 1   
    21   11   12 ar  
    22   11   35 1   
    23   12   13 1   
    24   13   14 1   
    25   13   36 1   
    26   14   15 2   
    27   14   16 1   
    28   16   17 2   
    29   17   18 1   
    30   17   37 1   
    31   18   19 2   
    32   18   26 1   
    33   19   20 1   
    34   19   38 1   
    35   20   21 1   
    36   20   25 2   
    37   21   22 1   
    38   21   40 1   
    39   21   41 1   
    40   22   23 1   
    41   22   42 1   
    42   22   43 1   
    43   23   24 1   
    44   23   44 1   
    45   23   45 1   
    46   24   25 1   
    47   24   46 1   
    48   24   47 1   
    49   25   26 1   
    50   26   39 1   
@<TRIPOS>SUBSTRUCTURE
     1 K88         1 TEMP              0 ****  ****    0 ROOT
