@<TRIPOS>MOLECULE
K88
   48    50     1     0     0
SMALL
bcc


@<TRIPOS>ATOM
      1 CAC         0.1710    0.3540    0.2190 c3        1 K88      0.100100
      2 NAA         1.5770    0.1170    0.5100 n3        1 K88     -0.911200
      3 CAD         2.1560    1.1230    1.3860 c3        1 K88      0.100100
      4 SAB         2.8010   -0.1530   -1.4660 s4        1 K88      1.674300
      5 OAE         3.9100   -0.5840   -0.7970 o         1 K88     -0.453900
      6 OAF         1.8920   -1.0270   -1.9880 o         1 K88     -0.453900
      7 CAG         2.7930    1.2960   -1.9940 ca        1 K88     -0.664500
      8 CAH         3.8620    2.1960   -1.6740 ca        1 K88      0.020000
      9 CAI         3.8840    3.4620   -2.1790 ca        1 K88     -0.089800
     10 CAL         1.7570    1.7740   -2.8470 ca        1 K88      0.062000
     11 CAK         1.7390    3.0440   -3.3730 ca        1 K88     -0.209000
     12 CAJ         2.8020    3.9180   -3.0530 ca        1 K88      0.197600
     13 NAO         3.0300    5.2090   -3.4310 n         1 K88     -0.432100
     14 CAN         4.2690    5.6820   -2.8420 c         1 K88      0.732700
     15 OAZ         4.6530    6.8330   -3.0630 o         1 K88     -0.585500
     16 CAM         4.8290    4.5720   -2.0410 cc        1 K88     -0.270400
     17 CAP         5.9800    4.5130   -1.3140 cf        1 K88      0.131800
     18 CAQ         6.9910    5.4580   -1.0780 cd        1 K88     -0.211100
     19 CAR         8.1570    5.2090   -0.2690 cc        1 K88     -0.077000
     20 CAS         8.9320    6.3780   -0.2690 cc        1 K88     -0.155300
     21 CAV        10.2040    6.6850    0.4010 c3        1 K88     -0.012100
     22 CAW        10.8450    7.9340   -0.1840 c3        1 K88     -0.081400
     23 CAX         9.8470    9.0600   -0.3620 c3        1 K88     -0.075400
     24 CAY         8.7480    8.7070   -1.3520 c3        1 K88     -0.034100
     25 CAT         8.2410    7.3430   -1.0790 cd        1 K88     -0.006600
     26 NAU         7.0860    6.7820   -1.5540 na        1 K88     -0.119100
     27 HAC1       -0.4630    0.3430    1.1460 h1        1 K88      0.071867
     28 HAC2        0.0550    1.3550   -0.2730 h1        1 K88      0.071867
     29 HAC3       -0.1940   -0.4500   -0.4780 h1        1 K88      0.071867
     30 HAD1        3.2270    0.8520    1.5910 h1        1 K88      0.071867
     31 HAD2        2.1140    2.1250    0.8820 h1        1 K88      0.071867
     32 HAD3        1.6110    1.1980    2.3650 h1        1 K88      0.071867
     33 HAH         4.6770    1.8350   -1.0190 ha        1 K88      0.163000
     34 HAL         0.9330    1.0780   -3.1030 ha        1 K88      0.165000
     35 HAK         0.9220    3.3720   -4.0350 ha        1 K88      0.176000
     36 HAO         2.4560    5.7520   -4.0290 hn        1 K88      0.364500
     37 HAP         6.1780    3.5430   -0.8040 ha        1 K88      0.140000
     38 HAR         8.3750    4.2710    0.2380 ha        1 K88      0.162000
     39 HAU         6.4210    7.2290   -2.1420 hn        1 K88      0.334700
     40 HAV1       10.9120    5.8190    0.3050 hc        1 K88      0.059200
     41 HAV2       10.0150    6.8390    1.4990 hc        1 K88      0.059200
     42 HAW1       11.3070    7.6860   -1.1760 hc        1 K88      0.054700
     43 HAW2       11.6690    8.2730    0.4960 hc        1 K88      0.054700
     44 HAX1       10.3790    9.9770   -0.7300 hc        1 K88      0.057200
     45 HAX2        9.3880    9.3110    0.6300 hc        1 K88      0.057200
     46 HAY1        7.9210    9.4640   -1.2880 hc        1 K88      0.071700
     47 HAY2        9.1540    8.7390   -2.4010 hc        1 K88      0.071700
     48 HAA1        1.6710   -0.7900    0.9490 hn        1 K88      0.404800
@<TRIPOS>BOND
     1    1    2 1   
     2    1   27 1   
     3    1   28 1   
     4    1   29 1   
     5    2    3 1   
     6    2   48 1   
     7    3   30 1   
     8    3   31 1   
     9    3   32 1   
    10    4    5 1   
    11    4    6 1   
    12    4    7 1   
    13    7    8 ar  
    14    7   10 ar  
    15    8    9 ar  
    16    8   33 1   
    17    9   12 ar  
    18    9   16 1   
    19   10   11 ar  
    20   10   34 1   
    21   11   12 ar  
    22   11   35 1   
    23   12   13 1   
    24   13   14 1   
    25   13   36 1   
    26   14   15 2   
    27   14   16 1   
    28   16   17 2   
    29   17   18 1   
    30   17   37 1   
    31   18   19 2   
    32   18   26 1   
    33   19   20 1   
    34   19   38 1   
    35   20   21 1   
    36   20   25 2   
    37   21   22 1   
    38   21   40 1   
    39   21   41 1   
    40   22   23 1   
    41   22   42 1   
    42   22   43 1   
    43   23   24 1   
    44   23   44 1   
    45   23   45 1   
    46   24   25 1   
    47   24   46 1   
    48   24   47 1   
    49   25   26 1   
    50   26   39 1   
@<TRIPOS>SUBSTRUCTURE
     1 K88         1 TEMP              0 ****  ****    0 ROOT
