@<TRIPOS>MOLECULE
K88
   47    50     1     0     0
SMALL
bcc


@<TRIPOS>ATOM
      1 CAC        -5.8930   -0.6720    1.6600 c3        1 K88      0.208100
      2 NAA        -4.8080   -1.3540    1.0230 n3        1 K88     -0.814500
      3 CAD        -4.0990   -2.2860    1.8470 c3        1 K88      0.208100
      4 SAB        -4.3800   -1.0560   -0.5210 sy        1 K88      1.511200
      5 OAE        -3.7200   -2.1880   -1.0550 o         1 K88     -0.654800
      6 OAF        -5.5000   -0.5740   -1.2350 o         1 K88     -0.654800
      7 CAG        -3.2590    0.1930   -0.3880 ca        1 K88     -0.418500
      8 CAH        -1.8830   -0.1000   -0.3260 ca        1 K88      0.020000
      9 CAI        -0.9660    0.9240   -0.2420 ca        1 K88     -0.120800
     10 CAL        -3.6790    1.5270   -0.3760 ca        1 K88      0.022000
     11 CAK        -2.7840    2.5940   -0.2900 ca        1 K88     -0.198000
     12 CAJ        -1.4230    2.2950   -0.2180 ca        1 K88      0.118600
     13 NAO        -0.3220    3.1470   -0.1210 n         1 K88     -0.473100
     14 CAN         0.8750    2.3860   -0.0880 c         1 K88      0.727700
     15 OAZ         1.9840    2.9360   -0.0050 o         1 K88     -0.638500
     16 CAM         0.5020    0.9380   -0.1670 cc        1 K88     -0.188400
     17 CAP         1.2680   -0.1710   -0.1820 cf        1 K88      0.070800
     18 CAQ         2.6790   -0.3530   -0.1190 cd        1 K88     -0.168100
     19 CAR         3.3280   -1.6240   -0.1480 cc        1 K88     -0.118000
     20 CAS         4.7210   -1.3890   -0.0660 cc        1 K88     -0.163300
     21 CAV         5.8460   -2.3330   -0.0390 c3        1 K88     -0.002100
     22 CAW         7.1610   -1.6210   -0.3170 c3        1 K88     -0.077400
     23 CAX         7.2910   -0.3300    0.4670 c3        1 K88     -0.071400
     24 CAY         6.2230    0.6860    0.0890 c3        1 K88     -0.017100
     25 CAT         4.9040    0.0210    0.0120 cd        1 K88     -0.069600
     26 NAU         3.6700    0.6340   -0.0200 na        1 K88     -0.125100
     27 HAC1       -5.5210   -0.0340    2.5070 h1        1 K88      0.044033
     28 HAC2       -6.4250   -0.0200    0.9140 h1        1 K88      0.044033
     29 HAC3       -6.6300   -1.4110    2.0760 h1        1 K88      0.044033
     30 HAD1       -4.8080   -3.0430    2.2800 h1        1 K88      0.044033
     31 HAD2       -3.3300   -2.8290    1.2330 h1        1 K88      0.044033
     32 HAD3       -3.5870   -1.7590    2.6970 h1        1 K88      0.044033
     33 HAH        -1.5540   -1.1530   -0.3650 ha        1 K88      0.156000
     34 HAL        -4.7600    1.7450   -0.4550 ha        1 K88      0.151000
     35 HAK        -3.1450    3.6310   -0.2860 ha        1 K88      0.148000
     36 HAO        -0.3650    4.1320   -0.1070 hn        1 K88      0.345500
     37 HAP         0.7280   -1.1410   -0.2570 ha        1 K88      0.144000
     38 HAR         2.8270   -2.5850   -0.2240 ha        1 K88      0.154000
     39 HAU         3.5060    1.6130    0.0160 hn        1 K88      0.332700
     40 HAV1        5.8920   -2.8280    0.9700 hc        1 K88      0.048200
     41 HAV2        5.6910   -3.1450   -0.8000 hc        1 K88      0.048200
     42 HAW1        8.0110   -2.3030   -0.0510 hc        1 K88      0.043700
     43 HAW2        7.2370   -1.3970   -1.4130 hc        1 K88      0.043700
     44 HAX1        7.2150   -0.5540    1.5640 hc        1 K88      0.046200
     45 HAX2        8.3000    0.1220    0.2820 hc        1 K88      0.046200
     46 HAY1        6.2110    1.5200    0.8410 hc        1 K88      0.057200
     47 HAY2        6.4660    1.1380   -0.9120 hc        1 K88      0.057200
@<TRIPOS>BOND
     1    1    2 1   
     2    1   27 1   
     3    1   28 1   
     4    1   29 1   
     5    2    3 1   
     6    2    4 1   
     7    3   30 1   
     8    3   31 1   
     9    3   32 1   
    10    4    5 2   
    11    4    6 2   
    12    4    7 1   
    13    7    8 ar  
    14    7   10 ar  
    15    8    9 ar  
    16    8   33 1   
    17    9   12 ar  
    18    9   16 1   
    19   10   11 ar  
    20   10   34 1   
    21   11   12 ar  
    22   11   35 1   
    23   12   13 1   
    24   13   14 1   
    25   13   36 1   
    26   14   15 2   
    27   14   16 1   
    28   16   17 2   
    29   17   18 1   
    30   17   37 1   
    31   18   19 2   
    32   18   26 1   
    33   19   20 1   
    34   19   38 1   
    35   20   21 1   
    36   20   25 2   
    37   21   22 1   
    38   21   40 1   
    39   21   41 1   
    40   22   23 1   
    41   22   42 1   
    42   22   43 1   
    43   23   24 1   
    44   23   44 1   
    45   23   45 1   
    46   24   25 1   
    47   24   46 1   
    48   24   47 1   
    49   25   26 1   
    50   26   39 1   
@<TRIPOS>SUBSTRUCTURE
     1 K88         1 TEMP              0 ****  ****    0 ROOT
