@<TRIPOS>MOLECULE
K88
   48    50     1     0     0
SMALL
bcc


@<TRIPOS>ATOM
      1 CAC         0.1630    0.3800    0.2120 c3        1 K88      0.100100
      2 NAA         1.5660    0.1210    0.4950 n3        1 K88     -0.911200
      3 CAD         2.1620    1.1080    1.3810 c3        1 K88      0.100100
      4 SAB         2.7810   -0.1410   -1.4860 s4        1 K88      1.674300
      5 OAE         3.8920   -0.5810   -0.8260 o         1 K88     -0.453900
      6 OAF         1.8660   -1.0080   -2.0100 o         1 K88     -0.453900
      7 CAG         2.7770    1.3120   -2.0050 ca        1 K88     -0.664500
      8 CAH         3.8510    2.2050   -1.6830 ca        1 K88      0.020000
      9 CAI         3.8750    3.4740   -2.1790 ca        1 K88     -0.089800
     10 CAL         1.7390    1.8000   -2.8510 ca        1 K88      0.062000
     11 CAK         1.7240    3.0730   -3.3680 ca        1 K88     -0.209000
     12 CAJ         2.7910    3.9410   -3.0460 ca        1 K88      0.197600
     13 NAO         3.0230    5.2330   -3.4160 n         1 K88     -0.432100
     14 CAN         4.2660    5.6980   -2.8290 c         1 K88      0.732700
     15 OAZ         4.6530    6.8490   -3.0440 o         1 K88     -0.585500
     16 CAM         4.8250    4.5800   -2.0380 cc        1 K88     -0.270400
     17 CAP         5.9780    4.5110   -1.3160 cf        1 K88      0.131800
     18 CAQ         6.9940    5.4510   -1.0770 cd        1 K88     -0.211100
     19 CAR         8.1620    5.1920   -0.2750 cc        1 K88     -0.077000
     20 CAS         8.9420    6.3590   -0.2700 cc        1 K88     -0.155300
     21 CAV        10.2180    6.6550    0.3970 c3        1 K88     -0.012100
     22 CAW        10.8610    7.9060   -0.1820 c3        1 K88     -0.081400
     23 CAX         9.8670    9.0370   -0.3490 c3        1 K88     -0.075400
     24 CAY         8.7620    8.6950   -1.3360 c3        1 K88     -0.034100
     25 CAT         8.2520    7.3310   -1.0710 cd        1 K88     -0.006600
     26 NAU         7.0930    6.7780   -1.5450 na        1 K88     -0.119100
     27 HAC1       -0.2170   -0.4110   -0.4900 h1        1 K88      0.072033
     28 HAC2        0.0590    1.3890   -0.2690 h1        1 K88      0.072033
     29 HAC3       -0.4680    0.3690    1.1420 h1        1 K88      0.072033
     30 HAD1        1.6230    1.1760    2.3640 h1        1 K88      0.072033
     31 HAD2        2.1300    2.1170    0.8910 h1        1 K88      0.072033
     32 HAD3        3.2310    0.8210    1.5770 h1        1 K88      0.072033
     33 HAH         4.6660    1.8370   -1.0340 ha        1 K88      0.163000
     34 HAL         0.9110    1.1090   -3.1080 ha        1 K88      0.165000
     35 HAK         0.9060    3.4090   -4.0240 ha        1 K88      0.176000
     36 HAO         2.4480    5.7830   -4.0080 hn        1 K88      0.364500
     37 HAP         6.1750    3.5370   -0.8130 ha        1 K88      0.140000
     38 HAR         8.3790    4.2500    0.2250 ha        1 K88      0.162000
     39 HAU         6.4270    7.2320   -2.1270 hn        1 K88      0.334700
     40 HAV1       10.0330    6.8030    1.4970 hc        1 K88      0.059200
     41 HAV2       10.9220    5.7880    0.2920 hc        1 K88      0.059200
     42 HAW1       11.6900    8.2380    0.4970 hc        1 K88      0.054700
     43 HAW2       11.3180    7.6630   -1.1770 hc        1 K88      0.054700
     44 HAX1        9.4120    9.2830    0.6470 hc        1 K88      0.057200
     45 HAX2       10.4000    9.9550   -0.7120 hc        1 K88      0.057200
     46 HAY1        9.1650    8.7330   -2.3870 hc        1 K88      0.071700
     47 HAY2        7.9390    9.4550   -1.2640 hc        1 K88      0.071700
     48 HAA1        1.6490   -0.7930    0.9230 hn        1 K88      0.404800
@<TRIPOS>BOND
     1    1    2 1   
     2    1   27 1   
     3    1   28 1   
     4    1   29 1   
     5    2    3 1   
     6    2   48 1   
     7    3   30 1   
     8    3   31 1   
     9    3   32 1   
    10    4    5 1   
    11    4    6 1   
    12    4    7 1   
    13    7    8 ar  
    14    7   10 ar  
    15    8    9 ar  
    16    8   33 1   
    17    9   12 ar  
    18    9   16 1   
    19   10   11 ar  
    20   10   34 1   
    21   11   12 ar  
    22   11   35 1   
    23   12   13 1   
    24   13   14 1   
    25   13   36 1   
    26   14   15 2   
    27   14   16 1   
    28   16   17 2   
    29   17   18 1   
    30   17   37 1   
    31   18   19 2   
    32   18   26 1   
    33   19   20 1   
    34   19   38 1   
    35   20   21 1   
    36   20   25 2   
    37   21   22 1   
    38   21   40 1   
    39   21   41 1   
    40   22   23 1   
    41   22   42 1   
    42   22   43 1   
    43   23   24 1   
    44   23   44 1   
    45   23   45 1   
    46   24   25 1   
    47   24   46 1   
    48   24   47 1   
    49   25   26 1   
    50   26   39 1   
@<TRIPOS>SUBSTRUCTURE
     1 K88         1 TEMP              0 ****  ****    0 ROOT
