@<TRIPOS>MOLECULE
K88
   47    43     1     0     0
SMALL
bcc


@<TRIPOS>ATOM
      1 CAC        -5.7330   -4.4160    1.3540 c3        1 K88     -0.068000
      2 NAA        -4.3210   -4.2310    1.6060 n3        1 K88     -0.834000
      3 CAD        -3.8180   -4.2670    2.9720 c3        1 K88     -0.068000
      4 SAB        -3.2500   -4.2130    0.3350 s4        1 K88      2.066800
      5 OAE        -2.0270   -4.8760    0.6790 o         1 K88     -0.542400
      6 OAF        -3.7030   -5.0120   -0.7240 o         1 K88     -0.542400
      7 CAG        -2.9470   -2.5140   -0.2050 c1        1 K88     -0.863000
      8 CAH        -1.7420   -1.8180    0.0180 c2        1 K88      0.020000
      9 CAI        -1.5470   -0.5600   -0.5610 c1        1 K88     -0.109000
     10 CAL        -3.9440   -1.9490   -1.0020 c1        1 K88      0.022000
     11 CAK        -3.7480   -0.6900   -1.5830 c1        1 K88     -0.198000
     12 CAJ        -2.5550    0.0050   -1.3650 c1        1 K88      0.126000
     13 NAO        -2.0640    1.3390   -1.8690 n         1 K88     -0.327000
     14 CAN        -0.7350    1.5580   -1.3460 c2        1 K88      0.366000
     15 OAZ        -0.0770    2.5830   -1.4690 o         1 K88     -0.363000
     16 CAM        -0.3810    0.4010   -0.5280 c2        1 K88     -0.181000
     17 CAP         0.8040    0.1780    0.0640 c1        1 K88      0.059000
     18 CAQ         1.9450    1.1940   -0.0860 c1        1 K88     -0.132000
     19 CAR         2.9660    1.1730   -1.1040 c1        1 K88     -0.118000
     20 CAS         3.8370    2.1640   -0.8380 c1        1 K88     -0.156000
     21 CAV         5.1450    2.7450   -1.5780 c2        1 K88     -0.088000
     22 CAW         5.6620    3.9820   -1.0830 c3        1 K88     -0.156000
     23 CAX         5.6230    4.1820    0.3210 c3        1 K88     -0.150000
     24 CAY         4.3260    3.9980    0.9740 c3        1 K88     -0.103000
     25 CAT         3.3850    2.8470    0.3720 c2        1 K88     -0.038000
     26 NAU         2.2380    2.2340    0.8000 n2        1 K88     -0.124000
     27 HAC1       -6.1550   -3.5640    1.2600 h1        1 K88      0.083333
     28 HAC2       -6.1320   -4.8940    2.0940 h1        1 K88      0.083333
     29 HAC3       -5.8550   -4.9410    0.5150 h1        1 K88      0.083333
     30 HAD1       -3.9710   -5.1790    3.3620 h1        1 K88      0.083333
     31 HAD2       -4.2810   -3.6080    3.5030 h1        1 K88      0.083333
     32 HAD3       -2.7980   -4.0550    2.9690 h1        1 K88      0.083333
     33 HAH        -0.9910   -2.2740    0.4700 ha        1 K88      0.156000
     34 HAL        -4.8190   -2.4320   -1.1330 ha        1 K88      0.151000
     35 HAK        -4.4660   -0.2830   -2.1570 ha        1 K88      0.148000
     36 HAO        -2.5290    1.9080   -2.3460 hn        1 K88      0.259000
     37 HAP         0.9500   -0.6410    0.5580 ha        1 K88      0.144000
     38 HAR         3.0060    0.5550   -1.8760 DU        1 K88      0.218500
     39 HAU         1.7430    2.4690    1.5390 DU        1 K88      0.218500
     40 HAV1        5.8770    2.0490   -1.5110 ha        1 K88      0.087500
     41 HAV2        4.9310    2.8650   -2.5130 ha        1 K88      0.087500
     42 HAW1        6.5500    4.0530   -1.3580 hc        1 K88      0.083000
     43 HAW2        5.1300    4.7440   -1.5240 hc        1 K88      0.083000
     44 HAX1        5.8850    5.0790    0.4760 hc        1 K88      0.085500
     45 HAX2        6.2260    3.5340    0.7130 hc        1 K88      0.085500
     46 HAY1        4.5130    3.7530    1.9220 hc        1 K88      0.096500
     47 HAY2        3.8480    4.8260    0.8830 hc        1 K88      0.096500
@<TRIPOS>BOND
     1    1    2 1   
     2    1   27 1   
     3    1   28 1   
     4    1   29 1   
     5    2    3 1   
     6    2    4 1   
     7    3   30 1   
     8    3   31 1   
     9    3   32 1   
    10    4    5 1   
    11    4    6 1   
    12    7    8 1   
    13    7   10 1   
    14    8    9 1   
    15    8   33 1   
    16    9   16 1   
    17   10   34 1   
    18   11   12 1   
    19   11   35 1   
    20   12   13 1   
    21   13   14 1   
    22   13   36 1   
    23   14   15 1   
    24   14   16 1   
    25   16   17 1   
    26   17   37 1   
    27   18   19 1   
    28   18   26 1   
    29   19   20 1   
    30   20   25 1   
    31   21   22 1   
    32   21   40 1   
    33   21   41 1   
    34   22   23 1   
    35   22   42 1   
    36   22   43 1   
    37   23   24 1   
    38   23   44 1   
    39   23   45 1   
    40   24   25 1   
    41   24   46 1   
    42   24   47 1   
    43   25   26 1   
@<TRIPOS>SUBSTRUCTURE
     1 K88         1 TEMP              0 ****  ****    0 ROOT
