@<TRIPOS>MOLECULE
K8A
   16    17     1     0     0
SMALL
bcc


@<TRIPOS>ATOM
      1 C1         -2.4320    0.0400    0.0010 cc        1 K8A      0.543500
      2 N2         -4.5240    0.3620    0.0020 na        1 K8A      0.103900
      3 N3         -3.6310   -0.6290    0.0020 nd        1 K8A     -0.482800
      4 N4         -3.9650    1.5910    0.0000 nd        1 K8A     -0.140800
      5 N5         -2.7060    1.4530   -0.0010 nc        1 K8A     -0.363000
      6 C6         -1.1030   -0.5420    0.0000 ca        1 K8A     -0.236800
      7 N7          0.2730   -2.5410    0.0010 nb        1 K8A     -0.663000
      8 C8          0.0420    0.2690   -0.0010 ca        1 K8A     -0.031000
      9 C9         -0.9340   -1.9470    0.0010 ca        1 K8A      0.437200
     10 C10         1.3000   -0.3440   -0.0020 ca        1 K8A     -0.160200
     11 BR1         2.8620    0.6710   -0.0040 br        1 K8A     -0.057100
     12 C12         1.3640   -1.7540   -0.0010 ca        1 K8A      0.437200
     13 H1         -5.5110    0.1940    0.0030 hn        1 K8A      0.356700
     14 H2         -0.0460    1.3680   -0.0020 ha        1 K8A      0.175000
     15 H3         -1.8030   -2.6310    0.0020 h4        1 K8A      0.043100
     16 H4          2.3360   -2.2830   -0.0010 h4        1 K8A      0.040100
@<TRIPOS>BOND
     1    1    3 2   
     2    1    5 1   
     3    1    6 1   
     4    2    3 1   
     5    2    4 1   
     6    2   13 1   
     7    4    5 2   
     8    6    8 ar  
     9    6    9 ar  
    10    7    9 ar  
    11    7   12 ar  
    12    8   10 ar  
    13    8   14 1   
    14    9   15 1   
    15   10   11 1   
    16   10   12 ar  
    17   12   16 1   
@<TRIPOS>SUBSTRUCTURE
     1 K8A         1 TEMP              0 ****  ****    0 ROOT
