@<TRIPOS>MOLECULE
K8X
   15     9     1     0     0
SMALL
bcc


@<TRIPOS>ATOM
      1 C1         -1.1650    0.0010   -0.8020 c1        1 K8X     -0.238000
      2 C2          0.2430    0.0010   -0.8020 c1        1 K8X      0.003000
      3 C3          0.9240    0.0010    0.3790 c1        1 K8X     -0.042000
      4 C4          0.2200    0.0010    1.5980 c1        1 K8X     -0.208000
      5 C5         -1.1660    0.0010    1.5980 c1        1 K8X     -0.208000
      6 C6         -1.8580    0.0010    0.3980 c1        1 K8X     -0.205000
      7 I13        -2.5690   -0.0380   -2.3730 i         1 K8X      0.183000
      8 I15        -3.9500    0.0830    0.6370 i         1 K8X      0.200000
      9 I17        -2.1230   -0.0870    3.4730 i         1 K8X      0.204000
     10 I19         1.4510    0.0310    3.3080 i         1 K8X      0.204000
     11 N21         1.1510    0.0010   -1.8090 n1        1 K8X     -0.179000
     12 C23         2.3930    0.0010   -1.2550 c1        1 K8X     -0.016000
     13 N25         2.2510    0.0010    0.0960 n1        1 K8X     -0.179000
     14 H23         3.2380    0.0010   -1.7430 DU        1 K8X      0.239500
     15 HN21        0.9620    0.0010   -2.7010 DU        1 K8X      0.239500
@<TRIPOS>BOND
     1    1    2 1   
     2    1    6 1   
     3    2    3 1   
     4    4    5 1   
     5    4   10 1   
     6    5    9 1   
     7    6    8 1   
     8   11   12 1   
     9   12   13 1   
@<TRIPOS>SUBSTRUCTURE
     1 K8X         1 TEMP              0 ****  ****    0 ROOT
