@<TRIPOS>MOLECULE
K8X
   15    16     1     0     0
SMALL
bcc


@<TRIPOS>ATOM
      1 C1         -1.4410    1.0240   -0.0020 ca        1 K8X      0.047900
      2 C2         -0.7330    2.2270   -0.0030 ca        1 K8X     -0.042200
      3 C3          0.7260    2.2470   -0.0020 ca        1 K8X      0.097400
      4 C4          1.4300    1.0400   -0.0010 ca        1 K8X      0.115900
      5 C5          0.7030   -0.1460   -0.0010 ca        1 K8X      0.039900
      6 C6         -0.7020   -0.1540   -0.0010 ca        1 K8X      0.080900
      7 I13        -3.4550    0.9850   -0.0030 i         1 K8X     -0.102900
      8 I15        -1.6770   -1.9220   -0.0010 i         1 K8X     -0.085900
      9 I17         1.6890   -1.9070    0.0010 i         1 K8X     -0.086900
     10 I19         3.4460    1.0000   -0.0000 i         1 K8X     -0.076900
     11 N21        -1.1300    3.5660   -0.0040 na        1 K8X     -0.279300
     12 C23         0.0530    4.3300   -0.0040 cc        1 K8X      0.439700
     13 N25         1.1700    3.5860   -0.0030 nd        1 K8X     -0.549100
     14 H23         0.0270    5.4280   -0.0040 h5        1 K8X      0.079800
     15 HN21       -2.0570    3.9000   -0.0040 hn        1 K8X      0.319700
@<TRIPOS>BOND
     1    1    2 ar  
     2    1    6 ar  
     3    1    7 1   
     4    2    3 ar  
     5    2   11 1   
     6    3    4 ar  
     7    3   13 1   
     8    4    5 ar  
     9    4   10 1   
    10    5    6 ar  
    11    5    9 1   
    12    6    8 1   
    13   11   12 1   
    14   11   15 1   
    15   12   13 2   
    16   12   14 1   
@<TRIPOS>SUBSTRUCTURE
     1 K8X         1 TEMP              0 ****  ****    0 ROOT
