@<TRIPOS>MOLECULE
K91
   29    31     1     0     0
SMALL
bcc


@<TRIPOS>ATOM
      1 C1         -0.0830    0.4810    0.3920 ca        1 K91      0.156100
      2 C2          1.2840    0.7790    0.2540 ca        1 K91     -0.151000
      3 C3          2.1870    0.3280    1.2090 ca        1 K91     -0.095000
      4 C4          1.7420   -0.4220    2.3050 ca        1 K91     -0.011600
      5 C5          0.3900   -0.7370    2.4550 ca        1 K91     -0.107000
      6 C6         -0.5150   -0.2890    1.4910 ca        1 K91      0.023100
      7 O7         -1.8580   -0.6740    1.5110 os        1 K91     -0.254200
      8 C8         -2.5670   -0.2740    2.6440 ca        1 K91      0.050800
      9 C9         -3.0870   -1.2670    3.4490 ca        1 K91     -0.122000
     10 C10        -3.9140   -0.9320    4.5400 ca        1 K91     -0.112000
     11 C11        -4.1950    0.3880    4.8210 ca        1 K91      0.029400
     12 C12        -3.6720    1.4390    4.0170 ca        1 K91     -0.132300
     13 C13        -2.8450    1.1140    2.8950 ca        1 K91      0.386600
     14 N14        -2.3240    2.0870    2.0640 nb        1 K91     -0.664000
     15 C15        -2.5980    3.3500    2.3360 ca        1 K91      0.424200
     16 C16        -3.4050    3.7730    3.4390 ca        1 K91     -0.242300
     17 C17        -3.9350    2.8180    4.2680 ca        1 K91     -0.074000
     18 CL18       -5.1870    0.7500    6.1560 cl        1 K91     -0.083400
     19 O19        -0.9310    0.9280   -0.5840 oh        1 K91     -0.487100
     20 CL20        2.8600   -0.9600    3.4670 cl        1 K91     -0.094400
     21 H2          1.6190    1.3720   -0.6090 ha        1 K91      0.157000
     22 H3          3.2570    0.5660    1.1020 ha        1 K91      0.150000
     23 H5          0.0310   -1.3270    3.3120 ha        1 K91      0.156000
     24 H9         -2.8670   -2.3240    3.2320 ha        1 K91      0.160000
     25 H10        -4.3250   -1.7420    5.1640 ha        1 K91      0.156000
     26 H15        -2.1650    4.1020    1.6490 h4        1 K91      0.031100
     27 H16        -3.5820    4.8450    3.5990 ha        1 K91      0.151000
     28 H17        -4.5640    3.0990    5.1270 ha        1 K91      0.154000
     29 HO19       -1.8410    0.7880   -0.2740 ho        1 K91      0.446000
@<TRIPOS>BOND
     1    1    2 ar  
     2    1    6 ar  
     3    1   19 1   
     4    2    3 ar  
     5    2   21 1   
     6    3    4 ar  
     7    3   22 1   
     8    4    5 ar  
     9    4   20 1   
    10    5    6 ar  
    11    5   23 1   
    12    6    7 1   
    13    7    8 1   
    14    8    9 ar  
    15    8   13 ar  
    16    9   10 ar  
    17    9   24 1   
    18   10   11 ar  
    19   10   25 1   
    20   11   12 ar  
    21   11   18 1   
    22   12   13 ar  
    23   12   17 ar  
    24   13   14 ar  
    25   14   15 ar  
    26   15   16 ar  
    27   15   26 1   
    28   16   17 ar  
    29   16   27 1   
    30   17   28 1   
    31   19   29 1   
@<TRIPOS>SUBSTRUCTURE
     1 K91         1 TEMP              0 ****  ****    0 ROOT
