@<TRIPOS>MOLECULE
K91
   29    31     1     0     0
SMALL
bcc


@<TRIPOS>ATOM
      1 C1         -2.7280    1.2460    0.0340 ca        1 K91      0.156100
      2 C2         -3.8420    0.7490   -0.6650 ca        1 K91     -0.151000
      3 C3         -4.0950   -0.6170   -0.6770 ca        1 K91     -0.095000
      4 C4         -3.2470   -1.4980    0.0050 ca        1 K91     -0.011600
      5 C5         -2.1410   -1.0250    0.7140 ca        1 K91     -0.107000
      6 C6         -1.8930    0.3490    0.7300 ca        1 K91      0.023100
      7 O7         -0.8810    0.9020    1.5200 os        1 K91     -0.254200
      8 C8          0.4090    0.4750    1.2060 ca        1 K91      0.050800
      9 C9          1.1050   -0.2080    2.1830 ca        1 K91     -0.122000
     10 C10         2.4530   -0.5610    1.9750 ca        1 K91     -0.112000
     11 C11         3.0810   -0.2420    0.7890 ca        1 K91      0.029400
     12 C12         2.3940    0.4560   -0.2420 ca        1 K91     -0.132300
     13 C13         1.0300    0.8380   -0.0390 ca        1 K91      0.386600
     14 N14         0.3140    1.5350   -0.9930 nb        1 K91     -0.664000
     15 C15         0.9210    1.8410   -2.1250 ca        1 K91      0.424200
     16 C16         2.2760    1.4940   -2.4250 ca        1 K91     -0.242300
     17 C17         3.0010    0.8090   -1.4840 ca        1 K91     -0.074000
     18 CL18        4.7060   -0.6990    0.5730 cl        1 K91     -0.083400
     19 O19        -2.5320    2.5990    0.0340 oh        1 K91     -0.487100
     20 CL20       -3.5670   -3.1680   -0.0250 cl        1 K91     -0.094400
     21 H2         -4.4970    1.4520   -1.1990 ha        1 K91      0.157000
     22 H3         -4.9650   -1.0060   -1.2280 ha        1 K91      0.150000
     23 H5         -1.4700   -1.7100    1.2540 ha        1 K91      0.156000
     24 H9          0.6100   -0.4680    3.1320 ha        1 K91      0.160000
     25 H10         2.9910   -1.0990    2.7720 ha        1 K91      0.156000
     26 H15         0.3190    2.4000   -2.8660 h4        1 K91      0.031100
     27 H16         2.7060    1.7820   -3.3930 ha        1 K91      0.151000
     28 H17         4.0480    0.5240   -1.6720 ha        1 K91      0.154000
     29 HO19       -1.6540    2.7730    0.4130 ho        1 K91      0.446000
@<TRIPOS>BOND
     1    1    2 ar  
     2    1    6 ar  
     3    1   19 1   
     4    2    3 ar  
     5    2   21 1   
     6    3    4 ar  
     7    3   22 1   
     8    4    5 ar  
     9    4   20 1   
    10    5    6 ar  
    11    5   23 1   
    12    6    7 1   
    13    7    8 1   
    14    8    9 ar  
    15    8   13 ar  
    16    9   10 ar  
    17    9   24 1   
    18   10   11 ar  
    19   10   25 1   
    20   11   12 ar  
    21   11   18 1   
    22   12   13 ar  
    23   12   17 ar  
    24   13   14 ar  
    25   14   15 ar  
    26   15   16 ar  
    27   15   26 1   
    28   16   17 ar  
    29   16   27 1   
    30   17   28 1   
    31   19   29 1   
@<TRIPOS>SUBSTRUCTURE
     1 K91         1 TEMP              0 ****  ****    0 ROOT
