@<TRIPOS>MOLECULE
K97
   34    36     1     0     0
SMALL
bcc


@<TRIPOS>ATOM
      1 O1         -0.4300   -0.8580    0.0020 o         1 K97     -0.831300
      2 C2          0.8100   -1.0870   -0.0850 c         1 K97      0.908200
      3 C3          1.6840   -0.7390    1.1150 ca        1 K97     -0.108600
      4 C4          1.1030   -0.2070    2.2580 ca        1 K97     -0.127000
      5 C5          1.9400    0.1060    3.3390 ca        1 K97     -0.065200
      6 C6          3.3660   -0.1150    3.2750 ca        1 K97     -0.102800
      7 C7          3.9150   -0.6580    2.1100 ca        1 K97     -0.134000
      8 C8          3.0770   -0.9620    1.0500 ca        1 K97     -0.116000
      9 C9          3.9040    0.3240    4.5470 cc        1 K97     -0.166400
     10 C10         5.3200    0.2350    4.9570 c3        1 K97      0.250000
     11 N11         5.8480    1.4510    5.5760 n3        1 K97     -0.726600
     12 C12         7.2160    1.2630    6.0430 c3        1 K97      0.130800
     13 C13         7.7990    2.5410    6.6550 c3        1 K97      0.127900
     14 O14         7.6880    3.6550    5.7780 os        1 K97     -0.426600
     15 C15         6.3490    3.8720    5.3430 c3        1 K97      0.127900
     16 C16         5.7410    2.6180    4.7080 c3        1 K97      0.130800
     17 C17         2.8320    0.7830    5.3140 cd        1 K97     -0.114100
     18 N18         1.6390    0.6300    4.6060 na        1 K97     -0.200400
     19 O19         1.3710   -1.5830   -1.1020 o         1 K97     -0.831300
     20 H1          0.0160   -0.0450    2.2870 ha        1 K97      0.154000
     21 H2          4.9970   -0.8380    2.0460 ha        1 K97      0.108000
     22 H3          3.4740   -1.3900    0.1150 ha        1 K97      0.153000
     23 H4          5.9360   -0.0660    4.0560 h1        1 K97      0.033700
     24 H5          5.4250   -0.5870    5.7260 h1        1 K97      0.033700
     25 H6          7.2050    0.4610    6.8320 h1        1 K97      0.044450
     26 H7          7.2920    2.7810    7.6270 h1        1 K97      0.044700
     27 H8          5.7300    4.2190    6.2120 h1        1 K97      0.044700
     28 H9          6.4340    4.6890    4.5800 h1        1 K97      0.044700
     29 H10         6.2460    2.4430    3.7130 h1        1 K97      0.044450
     30 H11         4.6470    2.7960    4.5140 h1        1 K97      0.044450
     31 H12         2.8380    1.1960    6.3230 h4        1 K97      0.152000
     32 H13         0.7640    0.9900    4.8710 hn        1 K97      0.284700
     33 H15         7.9010    0.9220    5.2120 h1        1 K97      0.044450
     34 H16         8.9020    2.4230    6.8180 h1        1 K97      0.044700
@<TRIPOS>BOND
     1    1    2 1   
     2    2    3 1   
     3    2   19 1   
     4    3    4 ar  
     5    3    8 ar  
     6    4    5 ar  
     7    4   20 1   
     8    5    6 ar  
     9    5   18 1   
    10    6    7 ar  
    11    6    9 1   
    12    7    8 ar  
    13    7   21 1   
    14    8   22 1   
    15    9   10 1   
    16    9   17 2   
    17   10   11 1   
    18   10   23 1   
    19   10   24 1   
    20   11   12 1   
    21   11   16 1   
    22   12   13 1   
    23   12   25 1   
    24   12   33 1   
    25   13   14 1   
    26   13   26 1   
    27   13   34 1   
    28   14   15 1   
    29   15   16 1   
    30   15   27 1   
    31   15   28 1   
    32   16   29 1   
    33   16   30 1   
    34   17   18 1   
    35   17   31 1   
    36   18   32 1   
@<TRIPOS>SUBSTRUCTURE
     1 K97         1 TEMP              0 ****  ****    0 ROOT
