@<TRIPOS>MOLECULE
K97
   34    36     1     0     0
SMALL
bcc


@<TRIPOS>ATOM
      1 O1         -0.4410   -0.8270    0.0020 o         1 K97     -0.831300
      2 C2          0.7980   -1.0660   -0.0830 c         1 K97      0.908200
      3 C3          1.6730   -0.7220    1.1150 ca        1 K97     -0.108600
      4 C4          1.0960   -0.1800    2.2560 ca        1 K97     -0.127000
      5 C5          1.9350    0.1300    3.3380 ca        1 K97     -0.065200
      6 C6          3.3590   -0.1030    3.2750 ca        1 K97     -0.102800
      7 C7          3.9050   -0.6550    2.1120 ca        1 K97     -0.134000
      8 C8          3.0650   -0.9550    1.0530 ca        1 K97     -0.116000
      9 C9          3.8990    0.3350    4.5460 cc        1 K97     -0.166400
     10 C10         5.3140    0.2360    4.9580 c3        1 K97      0.250000
     11 N11         5.8510    1.4500    5.5740 n3        1 K97     -0.726600
     12 C12         7.2170    1.2530    6.0430 c3        1 K97      0.130800
     13 C13         7.8090    2.5270    6.6530 c3        1 K97      0.127900
     14 O14         7.7080    3.6400    5.7730 os        1 K97     -0.426600
     15 C15         6.3700    3.8660    5.3360 c3        1 K97      0.127900
     16 C16         5.7550    2.6150    4.7030 c3        1 K97      0.130800
     17 C17         2.8300    0.8050    5.3100 cd        1 K97     -0.114100
     18 N18         1.6370    0.6600    4.6020 na        1 K97     -0.200400
     19 O19         1.3550   -1.5700   -1.0990 o         1 K97     -0.831300
     20 H1          0.0100   -0.0100    2.2840 ha        1 K97      0.154000
     21 H2          4.9850   -0.8440    2.0490 ha        1 K97      0.108000
     22 H3          3.4590   -1.3890    0.1190 ha        1 K97      0.153000
     23 H4          5.4130   -0.5850    5.7280 h1        1 K97      0.033700
     24 H5          5.9280   -0.0710    4.0570 h1        1 K97      0.033700
     25 H6          7.9000    0.9040    5.2140 h1        1 K97      0.044450
     26 H7          7.3020    2.7740    7.6230 h1        1 K97      0.044700
     27 H8          5.7540    4.2200    6.2040 h1        1 K97      0.044700
     28 H9          6.4630    4.6810    4.5720 h1        1 K97      0.044700
     29 H10         6.2590    2.4340    3.7090 h1        1 K97      0.044450
     30 H11         4.6620    2.8010    4.5080 h1        1 K97      0.044450
     31 H12         2.8390    1.2220    6.3180 h4        1 K97      0.152000
     32 H13         0.7640    1.0270    4.8660 hn        1 K97      0.284700
     33 H15         7.1990    0.4530    6.8340 h1        1 K97      0.044450
     34 H16         8.9110    2.4010    6.8170 h1        1 K97      0.044700
@<TRIPOS>BOND
     1    1    2 1   
     2    2    3 1   
     3    2   19 1   
     4    3    4 ar  
     5    3    8 ar  
     6    4    5 ar  
     7    4   20 1   
     8    5    6 ar  
     9    5   18 1   
    10    6    7 ar  
    11    6    9 1   
    12    7    8 ar  
    13    7   21 1   
    14    8   22 1   
    15    9   10 1   
    16    9   17 2   
    17   10   11 1   
    18   10   23 1   
    19   10   24 1   
    20   11   12 1   
    21   11   16 1   
    22   12   13 1   
    23   12   25 1   
    24   12   33 1   
    25   13   14 1   
    26   13   26 1   
    27   13   34 1   
    28   14   15 1   
    29   15   16 1   
    30   15   27 1   
    31   15   28 1   
    32   16   29 1   
    33   16   30 1   
    34   17   18 1   
    35   17   31 1   
    36   18   32 1   
@<TRIPOS>SUBSTRUCTURE
     1 K97         1 TEMP              0 ****  ****    0 ROOT
