@<TRIPOS>MOLECULE
K97
   34    36     1     0     0
SMALL
bcc


@<TRIPOS>ATOM
      1 O1         -0.4750   -0.7980    0.0310 o         1 K97     -0.831300
      2 C2          0.7610   -1.0440   -0.0620 c         1 K97      0.908200
      3 C3          1.6460   -0.7050    1.1310 ca        1 K97     -0.108600
      4 C4          1.0790   -0.1610    2.2760 ca        1 K97     -0.127000
      5 C5          1.9270    0.1440    3.3520 ca        1 K97     -0.065200
      6 C6          3.3480   -0.0970    3.2800 ca        1 K97     -0.102800
      7 C7          3.8840   -0.6510    2.1140 ca        1 K97     -0.134000
      8 C8          3.0360   -0.9460    1.0600 ca        1 K97     -0.116000
      9 C9          3.9000    0.3380    4.5480 cc        1 K97     -0.166400
     10 C10         5.3170    0.2310    4.9500 c3        1 K97      0.250000
     11 N11         5.8640    1.4420    5.5640 n3        1 K97     -0.726600
     12 C12         7.2310    1.2370    6.0240 c3        1 K97      0.130800
     13 C13         7.8350    2.5080    6.6310 c3        1 K97      0.127900
     14 O14         7.7340    3.6220    5.7520 os        1 K97     -0.426600
     15 C15         6.3950    3.8550    5.3240 c3        1 K97      0.127900
     16 C16         5.7690    2.6080    4.6940 c3        1 K97      0.130800
     17 C17         2.8380    0.8140    5.3190 cd        1 K97     -0.114100
     18 N18         1.6400    0.6760    4.6190 na        1 K97     -0.200400
     19 O19         1.3090   -1.5520   -1.0810 o         1 K97     -0.831300
     20 H1         -0.0060    0.0150    2.3110 ha        1 K97      0.154000
     21 H2          4.9630   -0.8460    2.0440 ha        1 K97      0.108000
     22 H3          3.4210   -1.3820    0.1230 ha        1 K97      0.153000
     23 H4          5.9230   -0.0780    4.0460 h1        1 K97      0.033700
     24 H5          5.4160   -0.5900    5.7200 h1        1 K97      0.033700
     25 H6          7.2140    0.4360    6.8150 h1        1 K97      0.044450
     26 H7          7.3350    2.7560    7.6050 h1        1 K97      0.044700
     27 H8          6.4880    4.6700    4.5590 h1        1 K97      0.044700
     28 H9          5.7860    4.2120    6.1950 h1        1 K97      0.044700
     29 H10         4.6750    2.8000    4.5050 h1        1 K97      0.044450
     30 H11         6.2660    2.4250    3.6970 h1        1 K97      0.044450
     31 H12         2.8560    1.2300    6.3270 h4        1 K97      0.152000
     32 H13         0.7710    1.0470    4.8880 hn        1 K97      0.284700
     33 H15         7.9080    0.8850    5.1900 h1        1 K97      0.044450
     34 H16         8.9370    2.3750    6.7880 h1        1 K97      0.044700
@<TRIPOS>BOND
     1    1    2 1   
     2    2    3 1   
     3    2   19 1   
     4    3    4 ar  
     5    3    8 ar  
     6    4    5 ar  
     7    4   20 1   
     8    5    6 ar  
     9    5   18 1   
    10    6    7 ar  
    11    6    9 1   
    12    7    8 ar  
    13    7   21 1   
    14    8   22 1   
    15    9   10 1   
    16    9   17 2   
    17   10   11 1   
    18   10   23 1   
    19   10   24 1   
    20   11   12 1   
    21   11   16 1   
    22   12   13 1   
    23   12   25 1   
    24   12   33 1   
    25   13   14 1   
    26   13   26 1   
    27   13   34 1   
    28   14   15 1   
    29   15   16 1   
    30   15   27 1   
    31   15   28 1   
    32   16   29 1   
    33   16   30 1   
    34   17   18 1   
    35   17   31 1   
    36   18   32 1   
@<TRIPOS>SUBSTRUCTURE
     1 K97         1 TEMP              0 ****  ****    0 ROOT
