@<TRIPOS>MOLECULE
K99
   32    32     1     0     0
SMALL
bcc


@<TRIPOS>ATOM
      1 O1A         1.3690   -1.5780   -1.6520 o         1 K99     -0.794300
      2 C1          1.5890   -2.0070   -0.4880 c         1 K99      0.917600
      3 O1B         1.9590   -3.1560   -0.1670 o         1 K99     -0.794300
      4 C2          1.4220   -0.9560    0.6900 c3        1 K99      0.232100
      5 C3          2.4880    0.1760    0.5230 c3        1 K99      0.090600
      6 F1          2.6350    0.9420    1.6700 f         1 K99     -0.256300
      7 C4          2.1060    1.0580   -0.6830 c3        1 K99      0.078100
      8 O4          3.0180    2.1280   -0.8330 oh        1 K99     -0.594800
      9 O6          0.1040   -0.4010    0.7860 os        1 K99     -0.459600
     10 C6         -0.3010    0.3950   -0.3210 c3        1 K99      0.097100
     11 C5          0.6670    1.5720   -0.5400 c3        1 K99      0.089100
     12 O5          0.2740    2.3170   -1.6800 oh        1 K99     -0.604800
     13 C7         -1.6960    0.9360    0.0480 c3        1 K99      0.117100
     14 O7         -1.7620    1.3610    1.3950 oh        1 K99     -0.612800
     15 C8         -2.7820   -0.1150   -0.2540 c3        1 K99      0.107100
     16 O8         -2.8840   -0.3420   -1.6470 oh        1 K99     -0.573800
     17 C9         -4.1280    0.3440    0.3210 c3        1 K99      0.096400
     18 O9         -4.9360   -0.8090    0.4920 oh        1 K99     -0.590800
     19 F2          1.4970   -1.5250    1.9370 f         1 K99     -0.218300
     20 H3          3.4770   -0.3220    0.3100 h1        1 K99      0.080700
     21 H4          2.2090    0.4400   -1.6250 h1        1 K99      0.141700
     22 HA          2.9700    2.6540   -0.0240 ho        1 K99      0.396000
     23 H5          0.5910    2.2980    0.3170 h1        1 K99      0.079700
     24 H6         -0.3550   -0.2450   -1.2490 h1        1 K99      0.118700
     25 H7         -1.8900    1.8680   -0.5570 h1        1 K99      0.071700
     26 HB          0.4810    1.7770   -2.4530 ho        1 K99      0.408000
     27 HC         -1.3480    0.6760    1.9400 ho        1 K99      0.430000
     28 H8         -2.4920   -1.1160    0.1740 h1        1 K99      0.119700
     29 HD         -3.0260    0.5140   -2.0690 ho        1 K99      0.384000
     30 H91C       -3.9690    0.8560    1.3080 h1        1 K99      0.028700
     31 H92C       -4.6320    1.0530   -0.3890 h1        1 K99      0.028700
     32 H9         -5.7170   -0.5220    0.9790 ho        1 K99      0.385000
@<TRIPOS>BOND
     1    1    2 1   
     2    2    3 1   
     3    2    4 1   
     4    4    5 1   
     5    4    9 1   
     6    4   19 1   
     7    5    6 1   
     8    5    7 1   
     9    5   20 1   
    10    7    8 1   
    11    7   11 1   
    12    7   21 1   
    13    8   22 1   
    14    9   10 1   
    15   10   11 1   
    16   10   13 1   
    17   10   24 1   
    18   11   12 1   
    19   11   23 1   
    20   12   26 1   
    21   13   14 1   
    22   13   15 1   
    23   13   25 1   
    24   14   27 1   
    25   15   16 1   
    26   15   17 1   
    27   15   28 1   
    28   16   29 1   
    29   17   18 1   
    30   17   30 1   
    31   17   31 1   
    32   18   32 1   
@<TRIPOS>SUBSTRUCTURE
     1 K99         1 TEMP              0 ****  ****    0 ROOT
