@<TRIPOS>MOLECULE
K99
   32    32     1     0     0
SMALL
bcc


@<TRIPOS>ATOM
      1 O1A        -0.3950   -0.1040    0.1190 o         1 K99     -0.794300
      2 C1          0.8490   -0.0390   -0.0370 c         1 K99      0.911600
      3 O1B         1.4760   -0.0090   -1.1230 o         1 K99     -0.794300
      4 C2          1.7280    0.0540    1.2820 c3        1 K99      0.218100
      5 C3          2.9480    1.0030    1.0260 c3        1 K99      0.084600
      6 F1          3.9560    0.8380    1.9640 f         1 K99     -0.254300
      7 C4          2.4680    2.4690    0.9990 c3        1 K99      0.081100
      8 O4          3.5490    3.3810    0.9300 oh        1 K99     -0.608800
      9 O6          0.9680    0.4810    2.4210 os        1 K99     -0.429600
     10 C6          0.4350    1.7940    2.2710 c3        1 K99      0.112100
     11 C5          1.6200    2.7730    2.2450 c3        1 K99      0.074100
     12 O5          1.1210    4.1000    2.2470 oh        1 K99     -0.614800
     13 C7         -0.5510    2.0490    3.4210 c3        1 K99      0.130100
     14 O7          0.0810    2.4490    4.6260 oh        1 K99     -0.605800
     15 C8         -1.3580    0.7770    3.7390 c3        1 K99      0.123100
     16 O8         -2.0680    0.3390    2.5960 oh        1 K99     -0.640800
     17 C9         -2.4140    1.0720    4.8080 c3        1 K99      0.139400
     18 O9         -3.1960   -0.0700    5.0980 oh        1 K99     -0.620800
     19 F2          2.1420   -1.1740    1.7340 f         1 K99     -0.218300
     20 H3          3.3610    0.7330    0.0080 h1        1 K99      0.112700
     21 H4          1.8740    2.6430    0.0580 h1        1 K99      0.116700
     22 HA          4.1990    3.1040    1.5890 ho        1 K99      0.406000
     23 H5          2.2560    2.6310    3.1650 h1        1 K99      0.053700
     24 H6         -0.1390    1.8610    1.3000 h1        1 K99      0.097700
     25 H7         -1.2450    2.8700    3.0790 h1        1 K99      0.045700
     26 HB          1.7600    4.6390    1.7610 ho        1 K99      0.415000
     27 HC          0.5550    3.2670    4.4260 ho        1 K99      0.407000
     28 H8         -0.6550   -0.0260    4.0960 h1        1 K99      0.074700
     29 HD         -1.4140    0.0470    1.9330 ho        1 K99      0.471000
     30 H91C       -3.0840    1.9050    4.4660 h1        1 K99      0.043200
     31 H92C       -1.9120    1.3520    5.7710 h1        1 K99      0.043200
     32 H9         -3.4310   -0.4710    4.2500 ho        1 K99      0.418000
@<TRIPOS>BOND
     1    1    2 1   
     2    2    3 1   
     3    2    4 1   
     4    4    5 1   
     5    4    9 1   
     6    4   19 1   
     7    5    6 1   
     8    5    7 1   
     9    5   20 1   
    10    7    8 1   
    11    7   11 1   
    12    7   21 1   
    13    8   22 1   
    14    9   10 1   
    15   10   11 1   
    16   10   13 1   
    17   10   24 1   
    18   11   12 1   
    19   11   23 1   
    20   12   26 1   
    21   13   14 1   
    22   13   15 1   
    23   13   25 1   
    24   14   27 1   
    25   15   16 1   
    26   15   17 1   
    27   15   28 1   
    28   16   29 1   
    29   17   18 1   
    30   17   30 1   
    31   17   31 1   
    32   18   32 1   
@<TRIPOS>SUBSTRUCTURE
     1 K99         1 TEMP              0 ****  ****    0 ROOT
