@<TRIPOS>MOLECULE
K99
   32    32     1     0     0
SMALL
bcc


@<TRIPOS>ATOM
      1 O1A        -0.4440   -0.0450    0.1010 o         1 K99     -0.794300
      2 C1          0.7980    0.0160   -0.0730 c         1 K99      0.911600
      3 O1B         1.4070    0.0670   -1.1680 o         1 K99     -0.794300
      4 C2          1.6980    0.0750    1.2340 c3        1 K99      0.218100
      5 C3          2.9200    1.0220    0.9790 c3        1 K99      0.084600
      6 F1          3.9420    0.8310    1.8970 f         1 K99     -0.254300
      7 C4          2.4490    2.4920    0.9920 c3        1 K99      0.081100
      8 O4          3.5330    3.3990    0.9260 oh        1 K99     -0.608800
      9 O6          0.9590    0.4800    2.3930 os        1 K99     -0.428600
     10 C6          0.4320    1.8000    2.2810 c3        1 K99      0.112100
     11 C5          1.6220    2.7720    2.2580 c3        1 K99      0.074100
     12 O5          1.1310    4.1020    2.2980 oh        1 K99     -0.614800
     13 C7         -0.5340    2.0350    3.4520 c3        1 K99      0.130100
     14 O7          0.1200    2.4030    4.6570 oh        1 K99     -0.605800
     15 C8         -1.3440    0.7610    3.7550 c3        1 K99      0.123100
     16 O8         -2.0750    0.3530    2.6140 oh        1 K99     -0.640800
     17 C9         -2.3810    1.0370    4.8470 c3        1 K99      0.139400
     18 O9         -3.1660   -0.1060    5.1230 oh        1 K99     -0.620800
     19 F2          2.1120   -1.1650    1.6510 f         1 K99     -0.218300
     20 H3          3.3150    0.7740   -0.0510 h1        1 K99      0.112700
     21 H4          1.8400    2.6900    0.0650 h1        1 K99      0.116700
     22 HA          4.1920    3.1030    1.5690 ho        1 K99      0.406000
     23 H5          2.2720    2.6060    3.1650 h1        1 K99      0.053700
     24 H6         -0.1580    1.8920    1.3220 h1        1 K99      0.097700
     25 H7         -1.2280    2.8670    3.1400 h1        1 K99      0.045700
     26 HB          1.7650    4.6480    1.8140 ho        1 K99      0.415000
     27 HC          0.5950    3.2220    4.4670 ho        1 K99      0.407000
     28 H8         -0.6410   -0.0550    4.0820 h1        1 K99      0.074700
     29 HD         -1.4330    0.0720    1.9340 ho        1 K99      0.471000
     30 H91C       -3.0500    1.8820    4.5350 h1        1 K99      0.043200
     31 H92C       -1.8620    1.2920    5.8080 h1        1 K99      0.043200
     32 H9         -3.4160   -0.4860    4.2700 ho        1 K99      0.418000
@<TRIPOS>BOND
     1    1    2 1   
     2    2    3 1   
     3    2    4 1   
     4    4    5 1   
     5    4    9 1   
     6    4   19 1   
     7    5    6 1   
     8    5    7 1   
     9    5   20 1   
    10    7    8 1   
    11    7   11 1   
    12    7   21 1   
    13    8   22 1   
    14    9   10 1   
    15   10   11 1   
    16   10   13 1   
    17   10   24 1   
    18   11   12 1   
    19   11   23 1   
    20   12   26 1   
    21   13   14 1   
    22   13   15 1   
    23   13   25 1   
    24   14   27 1   
    25   15   16 1   
    26   15   17 1   
    27   15   28 1   
    28   16   29 1   
    29   17   18 1   
    30   17   30 1   
    31   17   31 1   
    32   18   32 1   
@<TRIPOS>SUBSTRUCTURE
     1 K99         1 TEMP              0 ****  ****    0 ROOT
