@<TRIPOS>MOLECULE
K9L
   46    49     1     0     0
SMALL
bcc


@<TRIPOS>ATOM
      1 N01         0.3250   -0.4080   -0.8960 nc        1 K9L     -0.639000
      2 C02         1.6070   -0.4390   -0.5250 cd        1 K9L      0.427400
      3 N03         1.7720    0.0970    0.7840 na        1 K9L     -0.269700
      4 C04         0.4820    0.4780    1.2230 cd        1 K9L     -0.200600
      5 C05        -0.3870    0.1570    0.1780 cc        1 K9L      0.310200
      6 C1'         9.7990   -4.5420   -4.5170 ca        1 K9L     -0.081300
      7 N11         4.1310   -0.2340    0.8900 nb        1 K9L     -0.762000
      8 C12         2.9740    0.2250    1.4980 ca        1 K9L      0.785500
      9 N13         2.9210    0.8010    2.7650 nb        1 K9L     -0.690000
     10 C14         4.0840    0.9060    3.4160 ca        1 K9L      0.480200
     11 C15         5.3160    0.4670    2.8820 ca        1 K9L     -0.384600
     12 C16         5.2780   -0.1010    1.5970 ca        1 K9L      0.452600
     13 C17         6.5800   -0.5530    0.9940 c3        1 K9L     -0.158700
     14 C18         6.3720   -1.4520   -0.2200 c3        1 K9L      0.115800
     15 N19         7.6680   -1.9580   -0.7760 ny        1 K9L     -0.728000
     16 C2'        11.1440   -4.3960   -4.1640 ca        1 K9L     -0.174000
     17 C21         7.4600   -2.7900   -1.9730 cx        1 K9L     -0.018500
     18 C22         7.4830   -2.1860   -3.3600 cx        1 K9L     -0.095400
     19 C23         8.6140   -3.0730   -2.9260 cx        1 K9L     -0.069700
     20 C24         8.7490   -4.4680   -3.4610 c3        1 K9L     -0.017100
     21 C3'        12.1350   -4.4830   -5.1570 ca        1 K9L      0.140900
     22 C4'        11.7790   -4.7190   -6.5000 ca        1 K9L     -0.146000
     23 C5'        10.4360   -4.8660   -6.8300 ca        1 K9L     -0.092000
     24 C6'         9.4470   -4.7780   -5.8490 ca        1 K9L     -0.132000
     25 F7'        13.4360   -4.3380   -4.8160 f         1 K9L     -0.127900
     26 H02         2.4470   -0.8130   -1.1170 h5        1 K9L      0.066100
     27 H04         0.3060    0.9250    2.2020 h4        1 K9L      0.207000
     28 H05        -1.4680    0.2940    0.1240 h4        1 K9L      0.063100
     29 H14         4.0300    1.3660    4.4230 h4        1 K9L      0.056100
     30 H15         6.2480    0.5710    3.4480 ha        1 K9L      0.167000
     31 H17         7.1580    0.3670    0.7060 hc        1 K9L      0.080200
     32 H17A        7.1600   -1.0950    1.7900 hc        1 K9L      0.080200
     33 H18         5.7430   -2.3470    0.0580 hx        1 K9L      0.123200
     34 H18A        5.8470   -0.8890   -1.0460 hx        1 K9L      0.123200
     35 HN19        8.1500   -2.5220   -0.0660 hn        1 K9L      0.447800
     36 H2'        11.4390   -4.2300   -3.1190 ha        1 K9L      0.139000
     37 H21         6.7310   -3.6050   -1.7520 hx        1 K9L      0.146700
     38 H22         6.7370   -2.5600   -4.0890 hc        1 K9L      0.112200
     39 H22A        7.6740   -1.1040   -3.4930 hc        1 K9L      0.112200
     40 H23         9.5990   -2.5960   -2.7320 hc        1 K9L      0.107700
     41 H24         9.0280   -5.1560   -2.6150 hc        1 K9L      0.068700
     42 H24A        7.7650   -4.8230   -3.8700 hc        1 K9L      0.068700
     43 H4'        12.5650   -4.7890   -7.2670 ha        1 K9L      0.165000
     44 H5'        10.1520   -5.0580   -7.8770 ha        1 K9L      0.154000
     45 H6'         8.3910   -4.9030   -6.1290 ha        1 K9L      0.140000
     46 H192        8.2710   -1.1600   -1.0110 hn        1 K9L      0.447800
@<TRIPOS>BOND
     1    1    2 2   
     2    1    5 1   
     3    2    3 1   
     4    2   26 1   
     5    3    4 1   
     6    3    8 1   
     7    4    5 2   
     8    4   27 1   
     9    5   28 1   
    10    6   16 ar  
    11    6   20 1   
    12    6   24 ar  
    13    7    8 ar  
    14    7   12 ar  
    15    8    9 ar  
    16    9   10 ar  
    17   10   11 ar  
    18   10   29 1   
    19   11   12 ar  
    20   11   30 1   
    21   12   13 1   
    22   13   14 1   
    23   13   31 1   
    24   13   32 1   
    25   14   15 1   
    26   14   33 1   
    27   14   34 1   
    28   15   17 1   
    29   15   35 1   
    30   15   46 1   
    31   16   21 ar  
    32   16   36 1   
    33   17   18 1   
    34   17   19 1   
    35   17   37 1   
    36   18   19 1   
    37   18   38 1   
    38   18   39 1   
    39   19   20 1   
    40   19   40 1   
    41   20   41 1   
    42   20   42 1   
    43   21   22 ar  
    44   21   25 1   
    45   22   23 ar  
    46   22   43 1   
    47   23   24 ar  
    48   23   44 1   
    49   24   45 1   
@<TRIPOS>SUBSTRUCTURE
     1 K9L         1 TEMP              0 ****  ****    0 ROOT
