@<TRIPOS>MOLECULE
K9L
   46    49     1     0     0
SMALL
bcc


@<TRIPOS>ATOM
      1 N01         0.3150   -0.4780   -0.8380 nc        1 K9L     -0.639000
      2 C02         1.6010   -0.4890   -0.4820 cd        1 K9L      0.427400
      3 N03         1.7760    0.0710    0.8160 na        1 K9L     -0.269700
      4 C04         0.4870    0.4440    1.2640 cd        1 K9L     -0.200600
      5 C05        -0.3910    0.0980    0.2350 cc        1 K9L      0.310200
      6 C1'         9.7910   -4.5430   -4.5240 ca        1 K9L     -0.081300
      7 N11         4.1390   -0.2330    0.8980 nb        1 K9L     -0.762000
      8 C12         2.9850    0.2230    1.5130 ca        1 K9L      0.785500
      9 N13         2.9410    0.8180    2.7710 nb        1 K9L     -0.690000
     10 C14         4.1110    0.9460    3.4060 ca        1 K9L      0.481200
     11 C15         5.3400    0.5120    2.8640 ca        1 K9L     -0.384600
     12 C16         5.2930   -0.0770    1.5890 ca        1 K9L      0.452600
     13 C17         6.5930   -0.5250    0.9770 c3        1 K9L     -0.158700
     14 C18         6.3810   -1.4390   -0.2240 c3        1 K9L      0.115800
     15 N19         7.6750   -1.9390   -0.7880 n4        1 K9L     -0.728000
     16 C2'        11.1380   -4.3830   -4.1850 ca        1 K9L     -0.174000
     17 C21         7.4620   -2.7850   -1.9740 cx        1 K9L     -0.018500
     18 C22         7.4670   -2.1950   -3.3680 cx        1 K9L     -0.095400
     19 C23         8.6090   -3.0680   -2.9360 cx        1 K9L     -0.069700
     20 C24         8.7510   -4.4680   -3.4580 c3        1 K9L     -0.017100
     21 C3'        12.1200   -4.4710   -5.1870 ca        1 K9L      0.140900
     22 C4'        11.7540   -4.7250   -6.5230 ca        1 K9L     -0.146000
     23 C5'        10.4090   -4.8870   -6.8390 ca        1 K9L     -0.092000
     24 C6'         9.4290   -4.7960   -5.8490 ca        1 K9L     -0.132000
     25 F7'        13.4240   -4.3110   -4.8600 f         1 K9L     -0.127900
     26 H02         2.4380   -0.8630   -1.0790 h5        1 K9L      0.066100
     27 H04         0.3180    0.9050    2.2380 h4        1 K9L      0.207000
     28 H05        -1.4740    0.2220    0.1920 h4        1 K9L      0.063100
     29 H14         4.0630    1.4220    4.4070 h4        1 K9L      0.056100
     30 H15         6.2780    0.6350    3.4170 ha        1 K9L      0.167000
     31 H17         7.1600    0.3980    0.6730 hc        1 K9L      0.080200
     32 H17A        7.1860   -1.0520    1.7740 hc        1 K9L      0.080200
     33 H18         5.7630   -2.3360    0.0700 hx        1 K9L      0.123200
     34 H18A        5.8420   -0.8900   -1.0510 hx        1 K9L      0.123200
     35 HN19        8.1690   -2.4920   -0.0770 hn        1 K9L      0.447800
     36 H2'        11.4420   -4.2030   -3.1450 ha        1 K9L      0.139000
     37 H21         6.7420   -3.6040   -1.7380 hx        1 K9L      0.146700
     38 H22         6.7160   -2.5830   -4.0850 hc        1 K9L      0.112200
     39 H22A        7.6470   -1.1130   -3.5140 hc        1 K9L      0.112200
     40 H23         9.5920   -2.5810   -2.7570 hc        1 K9L      0.107700
     41 H24         7.7660   -4.8350   -3.8540 hc        1 K9L      0.069200
     42 H24A        9.0440   -5.1450   -2.6080 hc        1 K9L      0.069200
     43 H4'        12.5320   -4.7960   -7.2980 ha        1 K9L      0.165000
     44 H5'        10.1160   -5.0920   -7.8810 ha        1 K9L      0.154000
     45 H6'         8.3700   -4.9340   -6.1180 ha        1 K9L      0.140000
     46 H192        8.2680   -1.1380   -1.0370 hn        1 K9L      0.447800
@<TRIPOS>BOND
     1    1    2 2   
     2    1    5 1   
     3    2    3 1   
     4    2   26 1   
     5    3    4 1   
     6    3    8 1   
     7    4    5 2   
     8    4   27 1   
     9    5   28 1   
    10    6   16 ar  
    11    6   20 1   
    12    6   24 ar  
    13    7    8 ar  
    14    7   12 ar  
    15    8    9 ar  
    16    9   10 ar  
    17   10   11 ar  
    18   10   29 1   
    19   11   12 ar  
    20   11   30 1   
    21   12   13 1   
    22   13   14 1   
    23   13   31 1   
    24   13   32 1   
    25   14   15 1   
    26   14   33 1   
    27   14   34 1   
    28   15   17 1   
    29   15   35 1   
    30   15   46 1   
    31   16   21 ar  
    32   16   36 1   
    33   17   18 1   
    34   17   19 1   
    35   17   37 1   
    36   18   19 1   
    37   18   38 1   
    38   18   39 1   
    39   19   20 1   
    40   19   40 1   
    41   20   41 1   
    42   20   42 1   
    43   21   22 ar  
    44   21   25 1   
    45   22   23 ar  
    46   22   43 1   
    47   23   24 ar  
    48   23   44 1   
    49   24   45 1   
@<TRIPOS>SUBSTRUCTURE
     1 K9L         1 TEMP              0 ****  ****    0 ROOT
