@<TRIPOS>MOLECULE
K9P
   45    47     1     0     0
SMALL
bcc


@<TRIPOS>ATOM
      1 O           0.0640   -0.3620   -0.0700 o         1 K9P     -0.589100
      2 C5          1.3040   -0.3930    0.0540 c         1 K9P      0.663100
      3 C4          1.9670   -0.2980    1.4100 c3        1 K9P     -0.144400
      4 C3          0.9540    0.0450    2.4830 c3        1 K9P     -0.076400
      5 C2          1.6150    0.1180    3.8430 c3        1 K9P     -0.079400
      6 C1          0.6080    0.4640    4.9200 c3        1 K9P     -0.079400
      7 C           1.2570    0.5370    6.2780 c3        1 K9P     -0.093100
      8 N           2.0720   -0.5710   -1.0980 n         1 K9P     -0.369000
      9 C10         3.4630   -0.3960   -1.2700 ca        1 K9P      0.100600
     10 C11         4.4950   -0.5750   -0.3220 ca        1 K9P     -0.253000
     11 C12         5.8070   -0.4020   -0.7390 ca        1 K9P      0.170100
     12 O1          6.8650   -0.5450    0.1300 oh        1 K9P     -0.495100
     13 C13         6.1520   -0.0760   -2.0850 ca        1 K9P     -0.081000
     14 C18         5.1060    0.0690   -3.0380 ca        1 K9P      0.040000
     15 C9          3.7740   -0.0760   -2.6100 ca        1 K9P     -0.165300
     16 C7          2.5150    0.0080   -3.4260 c3        1 K9P     -0.020400
     17 C8          2.2320    1.3910   -3.9610 c3        1 K9P     -0.090100
     18 C6          1.4190   -0.4320   -2.4110 c3        1 K9P      0.079000
     19 C17         5.4560    0.3430   -4.3930 ca        1 K9P     -0.140000
     20 C16         6.7680    0.4890   -4.7630 ca        1 K9P     -0.104000
     21 C15         7.8050    0.3650   -3.8050 ca        1 K9P     -0.151000
     22 C14         7.5030    0.0860   -2.4960 ca        1 K9P     -0.081000
     23 H41C        2.7670    0.4880    1.3820 hc        1 K9P      0.068200
     24 H42C        2.4440   -1.2870    1.6460 hc        1 K9P      0.068200
     25 H31C        0.1400   -0.7270    2.4900 hc        1 K9P      0.060200
     26 H32C        0.4680    1.0260    2.2390 hc        1 K9P      0.060200
     27 H21C        2.4290    0.8900    3.8280 hc        1 K9P      0.036700
     28 H22C        2.0960   -0.8670    4.0830 hc        1 K9P      0.036700
     29 H11C        0.1270    1.4490    4.6780 hc        1 K9P      0.042700
     30 H12C       -0.2070   -0.3070    4.9310 hc        1 K9P      0.042700
     31 HC1         2.0550    1.3170    6.2930 hc        1 K9P      0.033033
     32 HC2         0.4980    0.7940    7.0560 hc        1 K9P      0.033033
     33 HC3         1.7200   -0.4430    6.5480 hc        1 K9P      0.033033
     34 H61C        0.9880   -1.4280   -2.6960 h1        1 K9P      0.067700
     35 H62C        0.5850    0.3180   -2.3510 h1        1 K9P      0.067700
     36 H11         4.2840   -0.8720    0.7130 ha        1 K9P      0.142000
     37 H1          6.5130   -0.7860    0.9990 ho        1 K9P      0.422000
     38 H14         8.2950   -0.0220   -1.7370 ha        1 K9P      0.148000
     39 H17         4.6470    0.4260   -5.1350 ha        1 K9P      0.136000
     40 H7          2.5560   -0.7250   -4.2750 hc        1 K9P      0.067700
     41 H81C        1.2660    1.3930   -4.5210 hc        1 K9P      0.041367
     42 H82C        3.0460    1.7190   -4.6520 hc        1 K9P      0.041367
     43 H83C        2.1610    2.1310   -3.1280 hc        1 K9P      0.041367
     44 H16         7.0330    0.7010   -5.8090 ha        1 K9P      0.132000
     45 H15         8.8490    0.4930   -4.1260 ha        1 K9P      0.135000
@<TRIPOS>BOND
     1    1    2 2   
     2    2    3 1   
     3    2    8 1   
     4    3    4 1   
     5    3   23 1   
     6    3   24 1   
     7    4    5 1   
     8    4   25 1   
     9    4   26 1   
    10    5    6 1   
    11    5   27 1   
    12    5   28 1   
    13    6    7 1   
    14    6   29 1   
    15    6   30 1   
    16    7   31 1   
    17    7   32 1   
    18    7   33 1   
    19    8    9 1   
    20    8   18 1   
    21    9   10 ar  
    22    9   15 ar  
    23   10   11 ar  
    24   10   36 1   
    25   11   12 1   
    26   11   13 ar  
    27   12   37 1   
    28   13   14 ar  
    29   13   22 ar  
    30   14   15 ar  
    31   14   19 ar  
    32   15   16 1   
    33   16   17 1   
    34   16   18 1   
    35   16   40 1   
    36   17   41 1   
    37   17   42 1   
    38   17   43 1   
    39   18   34 1   
    40   18   35 1   
    41   19   20 ar  
    42   19   39 1   
    43   20   21 ar  
    44   20   44 1   
    45   21   22 ar  
    46   21   45 1   
    47   22   38 1   
@<TRIPOS>SUBSTRUCTURE
     1 K9P         1 TEMP              0 ****  ****    0 ROOT
