@<TRIPOS>MOLECULE
K9P
   45    47     1     0     0
SMALL
bcc


@<TRIPOS>ATOM
      1 O           0.0580   -0.3500   -0.0780 o         1 K9P     -0.589100
      2 C5          1.2970   -0.4020    0.0470 c         1 K9P      0.663100
      3 C4          1.9600   -0.3330    1.4040 c3        1 K9P     -0.144400
      4 C3          0.9510    0.0130    2.4800 c3        1 K9P     -0.076400
      5 C2          1.6110    0.0600    3.8410 c3        1 K9P     -0.079400
      6 C1          0.6090    0.4080    4.9210 c3        1 K9P     -0.079400
      7 C           1.2570    0.4570    6.2810 c3        1 K9P     -0.093100
      8 N           2.0630   -0.5790   -1.1070 n         1 K9P     -0.369000
      9 C10         3.4570   -0.4250   -1.2760 ca        1 K9P      0.100600
     10 C11         4.4850   -0.6300   -0.3290 ca        1 K9P     -0.253000
     11 C12         5.8010   -0.4730   -0.7430 ca        1 K9P      0.170100
     12 O1          6.8550   -0.6410    0.1250 oh        1 K9P     -0.495100
     13 C13         6.1520   -0.1400   -2.0860 ca        1 K9P     -0.081000
     14 C18         5.1090    0.0310   -3.0380 ca        1 K9P      0.040000
     15 C9          3.7740   -0.0960   -2.6120 ca        1 K9P     -0.165300
     16 C7          2.5180    0.0160   -3.4280 c3        1 K9P     -0.020400
     17 C8          2.2580    1.4080   -3.9500 c3        1 K9P     -0.090100
     18 C6          1.4140   -0.4160   -2.4190 c3        1 K9P      0.079000
     19 C17         5.4640    0.3130   -4.3890 ca        1 K9P     -0.140000
     20 C16         6.7790    0.4420   -4.7570 ca        1 K9P     -0.104000
     21 C15         7.8130    0.2920   -3.8000 ca        1 K9P     -0.151000
     22 C14         7.5060    0.0040   -2.4940 ca        1 K9P     -0.081000
     23 H41C        2.4220   -1.3310    1.6290 hc        1 K9P      0.068200
     24 H42C        2.7720    0.4410    1.3860 hc        1 K9P      0.068200
     25 H31C        0.4790    1.0030    2.2470 hc        1 K9P      0.060200
     26 H32C        0.1250   -0.7480    2.4770 hc        1 K9P      0.060200
     27 H21C        2.0780   -0.9340    4.0700 hc        1 K9P      0.036700
     28 H22C        2.4360    0.8210    3.8360 hc        1 K9P      0.036700
     29 H11C        0.1420    1.4020    4.6900 hc        1 K9P      0.042700
     30 H12C       -0.2170   -0.3520    4.9230 hc        1 K9P      0.042700
     31 HC1         2.0670    1.2260    6.3060 hc        1 K9P      0.033033
     32 HC2         1.7070   -0.5330    6.5390 hc        1 K9P      0.033033
     33 HC3         0.5010    0.7150    7.0610 hc        1 K9P      0.033033
     34 H61C        0.5920    0.3460   -2.3520 h1        1 K9P      0.067700
     35 H62C        0.9670   -1.4020   -2.7140 h1        1 K9P      0.067700
     36 H11         4.2690   -0.9340    0.7020 ha        1 K9P      0.142000
     37 H1          6.4980   -0.8850    0.9920 ho        1 K9P      0.422000
     38 H14         8.2950   -0.1240   -1.7360 ha        1 K9P      0.148000
     39 H17         4.6580    0.4170   -5.1310 ha        1 K9P      0.136000
     40 H7          2.5470   -0.7090   -4.2850 hc        1 K9P      0.067700
     41 H81C        3.0770    1.7310   -4.6370 hc        1 K9P      0.041367
     42 H82C        2.1980    2.1410   -3.1100 hc        1 K9P      0.041367
     43 H83C        1.2920    1.4320   -4.5110 hc        1 K9P      0.041367
     44 H16         7.0490    0.6600   -5.8010 ha        1 K9P      0.132000
     45 H15         8.8590    0.4060   -4.1190 ha        1 K9P      0.135000
@<TRIPOS>BOND
     1    1    2 2   
     2    2    3 1   
     3    2    8 1   
     4    3    4 1   
     5    3   23 1   
     6    3   24 1   
     7    4    5 1   
     8    4   25 1   
     9    4   26 1   
    10    5    6 1   
    11    5   27 1   
    12    5   28 1   
    13    6    7 1   
    14    6   29 1   
    15    6   30 1   
    16    7   31 1   
    17    7   32 1   
    18    7   33 1   
    19    8    9 1   
    20    8   18 1   
    21    9   10 ar  
    22    9   15 ar  
    23   10   11 ar  
    24   10   36 1   
    25   11   12 1   
    26   11   13 ar  
    27   12   37 1   
    28   13   14 ar  
    29   13   22 ar  
    30   14   15 ar  
    31   14   19 ar  
    32   15   16 1   
    33   16   17 1   
    34   16   18 1   
    35   16   40 1   
    36   17   41 1   
    37   17   42 1   
    38   17   43 1   
    39   18   34 1   
    40   18   35 1   
    41   19   20 ar  
    42   19   39 1   
    43   20   21 ar  
    44   20   44 1   
    45   21   22 ar  
    46   21   45 1   
    47   22   38 1   
@<TRIPOS>SUBSTRUCTURE
     1 K9P         1 TEMP              0 ****  ****    0 ROOT
