@<TRIPOS>MOLECULE
K9S
   21    22     1     0     0
SMALL
bcc


@<TRIPOS>ATOM
      1 C1          0.1520   -0.0120   -0.0310 cc        1 K9S     -0.132400
      2 N1         -2.3870    1.3700    1.9130 n4        1 K9S     -0.849600
      3 S2          1.8000   -0.0600    0.0800 ss        1 K9S      0.231500
      4 C3          1.8140   -0.0210    1.7640 ca        1 K9S     -0.120100
      5 C4          0.4880    0.0150    2.2790 ca        1 K9S     -0.063800
      6 C5         -0.4710    0.0250    1.2020 cd        1 K9S     -0.235400
      7 C6          2.9070   -0.0310    2.6430 ca        1 K9S     -0.061000
      8 C7          2.6770   -0.0100    4.0070 ca        1 K9S     -0.113000
      9 C10        -1.9240    0.0230    1.4210 c3        1 K9S      0.208000
     10 C8          1.3630    0.0140    4.5170 ca        1 K9S     -0.082000
     11 C9          0.2730    0.0270    3.6660 ca        1 K9S     -0.146000
     12 H1         -0.3690   -0.0290   -0.9930 h4        1 K9S      0.186000
     13 H11N       -2.1970    2.0850    1.2040 hn        1 K9S      0.456133
     14 H12N       -3.3890    1.3530    2.1180 hn        1 K9S      0.456133
     15 H101       -2.4860   -0.2040    0.4690 hx        1 K9S      0.110700
     16 H102       -2.2100   -0.7310    2.2130 hx        1 K9S      0.110700
     17 H6          3.9350   -0.0590    2.2470 ha        1 K9S      0.159000
     18 H9         -0.7490    0.0150    4.0690 ha        1 K9S      0.114000
     19 H7          3.5260   -0.0190    4.7100 ha        1 K9S      0.160000
     20 H8          1.2130    0.0150    5.6090 ha        1 K9S      0.153000
     21 H13        -1.8670    1.6150    2.7630 hn        1 K9S      0.456133
@<TRIPOS>BOND
     1    1    3 1   
     2    1    6 2   
     3    1   12 1   
     4    2    9 1   
     5    2   13 1   
     6    2   14 1   
     7    2   21 1   
     8    3    4 1   
     9    4    5 ar  
    10    4    7 ar  
    11    5    6 1   
    12    5   11 ar  
    13    6    9 1   
    14    7    8 ar  
    15    7   17 1   
    16    8   10 ar  
    17    8   19 1   
    18    9   15 1   
    19    9   16 1   
    20   10   11 ar  
    21   10   20 1   
    22   11   18 1   
@<TRIPOS>SUBSTRUCTURE
     1 K9S         1 TEMP              0 ****  ****    0 ROOT
