@<TRIPOS>MOLECULE
K9S
   21    22     1     0     0
SMALL
bcc


@<TRIPOS>ATOM
      1 C1          0.1390   -0.0090   -0.0320 cc        1 K9S     -0.132400
      2 N1         -2.3920    1.3660    1.9280 n4        1 K9S     -0.849600
      3 S2          1.7880   -0.0540    0.0700 ss        1 K9S      0.231500
      4 C3          1.8120   -0.0170    1.7540 ca        1 K9S     -0.120100
      5 C4          0.4880    0.0160    2.2760 ca        1 K9S     -0.063800
      6 C5         -0.4770    0.0250    1.2060 cd        1 K9S     -0.235400
      7 C6          2.9100   -0.0250    2.6260 ca        1 K9S     -0.061000
      8 C7          2.6870   -0.0070    3.9920 ca        1 K9S     -0.113000
      9 C10        -1.9290    0.0200    1.4320 c3        1 K9S      0.208000
     10 C8          1.3770    0.0140    4.5100 ca        1 K9S     -0.082000
     11 C9          0.2810    0.0260    3.6650 ca        1 K9S     -0.146000
     12 H1         -0.3870   -0.0260   -0.9900 h4        1 K9S      0.186000
     13 H11N       -1.8660    1.6110    2.7760 hn        1 K9S      0.456133
     14 H12N       -2.2080    2.0820    1.2190 hn        1 K9S      0.456133
     15 H101       -2.4950   -0.2070    0.4840 hx        1 K9S      0.110700
     16 H102       -2.2080   -0.7350    2.2250 hx        1 K9S      0.110700
     17 H6          3.9350   -0.0510    2.2240 ha        1 K9S      0.159000
     18 H9         -0.7380    0.0120    4.0740 ha        1 K9S      0.114000
     19 H7          3.5410   -0.0150    4.6890 ha        1 K9S      0.160000
     20 H8          1.2320    0.0130    5.6020 ha        1 K9S      0.153000
     21 H13        -3.3920    1.3470    2.1390 hn        1 K9S      0.456133
@<TRIPOS>BOND
     1    1    3 1   
     2    1    6 2   
     3    1   12 1   
     4    2    9 1   
     5    2   13 1   
     6    2   14 1   
     7    2   21 1   
     8    3    4 1   
     9    4    5 ar  
    10    4    7 ar  
    11    5    6 1   
    12    5   11 ar  
    13    6    9 1   
    14    7    8 ar  
    15    7   17 1   
    16    8   10 ar  
    17    8   19 1   
    18    9   15 1   
    19    9   16 1   
    20   10   11 ar  
    21   10   20 1   
    22   11   18 1   
@<TRIPOS>SUBSTRUCTURE
     1 K9S         1 TEMP              0 ****  ****    0 ROOT
