@<TRIPOS>MOLECULE
K9S
   21    22     1     0     0
SMALL
bcc


@<TRIPOS>ATOM
      1 C1          0.1540    0.0020   -0.0330 cc        1 K9S     -0.132400
      2 N1         -2.3940    1.3580    1.9180 nz        1 K9S     -0.849600
      3 S2          1.8020   -0.0380    0.0790 ss        1 K9S      0.231500
      4 C3          1.8160   -0.0080    1.7630 ca        1 K9S     -0.120100
      5 C4          0.4890    0.0170    2.2770 ca        1 K9S     -0.063800
      6 C5         -0.4700    0.0280    1.2010 cd        1 K9S     -0.235400
      7 C6          2.9090   -0.0170    2.6420 ca        1 K9S     -0.061000
      8 C7          2.6780   -0.0050    4.0060 ca        1 K9S     -0.113000
      9 C10        -1.9230    0.0160    1.4190 c3        1 K9S      0.208000
     10 C8          1.3640    0.0080    4.5160 ca        1 K9S     -0.082000
     11 C9          0.2740    0.0200    3.6650 ca        1 K9S     -0.146000
     12 H1         -0.3660   -0.0130   -0.9950 h4        1 K9S      0.186000
     13 H11N       -2.2080    2.0780    1.2140 hn        1 K9S      0.456133
     14 H12N       -3.3950    1.3340    2.1230 hn        1 K9S      0.456133
     15 H101       -2.4830   -0.2080    0.4660 hx        1 K9S      0.110700
     16 H102       -2.2040   -0.7440    2.2070 hx        1 K9S      0.110700
     17 H6          3.9370   -0.0360    2.2460 ha        1 K9S      0.159000
     18 H9         -0.7480    0.0000    4.0680 ha        1 K9S      0.114000
     19 H7          3.5270   -0.0130    4.7090 ha        1 K9S      0.160000
     20 H8          1.2130    0.0020    5.6080 ha        1 K9S      0.153000
     21 H13        -1.8750    1.6010    2.7700 hn        1 K9S      0.456133
@<TRIPOS>BOND
     1    1    3 1   
     2    1    6 2   
     3    1   12 1   
     4    2    9 1   
     5    2   13 1   
     6    2   14 1   
     7    2   21 1   
     8    3    4 1   
     9    4    5 ar  
    10    4    7 ar  
    11    5    6 1   
    12    5   11 ar  
    13    6    9 1   
    14    7    8 ar  
    15    7   17 1   
    16    8   10 ar  
    17    8   19 1   
    18    9   15 1   
    19    9   16 1   
    20   10   11 ar  
    21   10   20 1   
    22   11   18 1   
@<TRIPOS>SUBSTRUCTURE
     1 K9S         1 TEMP              0 ****  ****    0 ROOT
