@<TRIPOS>MOLECULE
K9S
   20    21     1     0     0
SMALL
bcc


@<TRIPOS>ATOM
      1 C1          1.4370   -1.4210   -0.3070 cc        1 K9S     -0.143400
      2 N1          2.9300    1.6620    0.5490 n3        1 K9S     -0.899800
      3 S2         -0.0540   -2.1560   -0.0400 ss        1 K9S      0.027500
      4 C3         -0.8870   -0.6880    0.0330 ca        1 K9S     -0.078100
      5 C4          0.0040    0.4050   -0.1580 ca        1 K9S     -0.074800
      6 C5          1.3610   -0.0550   -0.3520 cd        1 K9S     -0.130400
      7 C6         -2.2510   -0.4530    0.2410 ca        1 K9S     -0.093000
      8 C7         -2.7180    0.8510    0.2540 ca        1 K9S     -0.123000
      9 C10         2.5110    0.8690   -0.5800 c3        1 K9S      0.212000
     10 C8         -1.8400    1.9330    0.0590 ca        1 K9S     -0.130000
     11 C9         -0.4870    1.7190   -0.1470 ca        1 K9S     -0.098000
     12 H1          2.3460   -2.0090   -0.4300 h4        1 K9S      0.171000
     13 H11N        2.1720    2.2210    0.8920 hn        1 K9S      0.348300
     14 H12N        3.2580    1.0790    1.2940 hn        1 K9S      0.348300
     15 H101        2.2320    1.5800   -1.4120 h1        1 K9S      0.060200
     16 H102        3.4000    0.2670   -0.9270 h1        1 K9S      0.060200
     17 H6         -2.9400   -1.2980    0.3900 ha        1 K9S      0.137000
     18 H9          0.2010    2.5620   -0.3100 ha        1 K9S      0.137000
     19 H7         -3.7880    1.0490    0.4170 ha        1 K9S      0.134000
     20 H8         -2.2400    2.9580    0.0690 ha        1 K9S      0.134000
@<TRIPOS>BOND
     1    1    3 1   
     2    1    6 2   
     3    1   12 1   
     4    2    9 1   
     5    2   13 1   
     6    2   14 1   
     7    3    4 1   
     8    4    5 ar  
     9    4    7 ar  
    10    5    6 1   
    11    5   11 ar  
    12    6    9 1   
    13    7    8 ar  
    14    7   17 1   
    15    8   10 ar  
    16    8   19 1   
    17    9   15 1   
    18    9   16 1   
    19   10   11 ar  
    20   10   20 1   
    21   11   18 1   
@<TRIPOS>SUBSTRUCTURE
     1 K9S         1 TEMP              0 ****  ****    0 ROOT
