@<TRIPOS>MOLECULE
K9Y
   63    64     1     0     0
SMALL
bcc


@<TRIPOS>ATOM
      1 C1          0.0860    0.1540    0.2640 c1        1 K9Y      0.004000
      2 N2          1.4460    0.4040    0.3450 n3        1 K9Y     -0.222000
      3 C3          2.0530    0.7110    1.5550 c2        1 K9Y      0.168000
      4 C4          1.2480    0.7620    2.7270 c2        1 K9Y     -0.139000
      5 C5         -0.1970    0.4960    2.5680 c2        1 K9Y      0.240000
      6 N6         -0.7100    0.2050    1.3330 n2        1 K9Y     -0.287000
      7 N7          1.7870    1.0480    3.9570 n2        1 K9Y     -0.289000
      8 N8          3.4370    0.9950    1.6280 n3        1 K9Y     -0.268000
      9 C9          2.2420    1.2820    5.0240 c1        1 K9Y      0.133000
     10 C10         5.0720    0.0110   -2.2110 c2        1 K9Y     -0.437000
     11 C11         6.2890   -0.4680   -1.4540 c3        1 K9Y      0.065000
     12 C12         6.5880    0.2820   -0.2200 c1        1 K9Y     -0.119000
     13 C13         5.6650    0.8250    0.6600 c2        1 K9Y     -0.302000
     14 C14         4.3470    0.4300    0.7800 c2        1 K9Y      0.095000
     15 C15         3.9400    0.4240   -1.7020 c1        1 K9Y      0.079000
     16 N16        10.6300   -2.9740   -4.9600 na        1 K9Y     -0.119000
     17 C17         9.7300   -2.9970   -3.8330 c2        1 K9Y      0.056000
     18 C18         9.4240   -4.3480   -3.6060 c2        1 K9Y     -0.209000
     19 C19        10.2180   -5.0840   -4.5770 c2        1 K9Y     -0.084000
     20 N20        10.9590   -4.2310   -5.3280 n2        1 K9Y     -0.055000
     21 C21        10.1950   -6.5750   -4.7120 c3        1 K9Y      0.017000
     22 C22        11.4410   -1.8350   -5.2750 c2        1 K9Y      0.140000
     23 C23        10.8460   -0.6770   -5.6740 c2        1 K9Y     -0.124000
     24 C24        11.5070    0.5640   -5.9960 c2        1 K9Y     -0.155000
     25 C25        12.6660    1.0020   -5.4860 c2        1 K9Y     -0.130000
     26 C26        14.0270   -2.1810   -5.1260 c1        1 K9Y     -0.156000
     27 C27        12.8450   -2.0050   -5.1900 c1        1 K9Y     -0.141000
     28 C28        13.2760    2.2960   -5.8450 c3        1 K9Y     -0.193000
     29 N29         9.2890   -1.8540   -3.1670 n         1 K9Y     -0.291000
     30 C30         7.9730   -1.7880   -2.6540 c2        1 K9Y      0.375000
     31 O31         7.2780   -2.8180   -2.5060 o         1 K9Y     -0.373000
     32 C33        11.1480   -7.0630   -5.7960 c3        1 K9Y     -0.202667
     33 C34        10.6020   -7.1930   -3.3780 c3        1 K9Y     -0.202667
     34 C35         8.7760   -7.0120   -5.0630 c3        1 K9Y     -0.202667
     35 N36        -1.0250    0.5410    3.6520 n3        1 K9Y     -0.349000
     36 H1          1.9850    0.3910   -0.5070 hn        1 K9Y      0.289000
     37 H2          3.7210    1.7360    2.2340 hn        1 K9Y      0.262000
     38 H3          5.1540   -0.0260   -3.3210 ha        1 K9Y      0.220000
     39 H4          6.0560   -1.5410   -1.1150 h1        1 K9Y      0.160000
     40 H5          6.0580    1.6340    1.3060 ha        1 K9Y      0.162000
     41 H6          3.9900   -0.4910    0.2580 h4        1 K9Y      0.166000
     42 H7          8.7220   -4.7490   -2.8810 ha        1 K9Y      0.190000
     43 H8          9.7460   -0.6470   -5.8010 ha        1 K9Y      0.141000
     44 H9         10.9520    1.1880   -6.7220 ha        1 K9Y      0.131000
     45 H10        13.2320    0.4020   -4.7520 ha        1 K9Y      0.131000
     46 H11        15.0760   -2.3310   -5.0730 ha        1 K9Y      0.228000
     47 H12        14.2890    2.1280   -6.2910 hc        1 K9Y      0.086000
     48 H13        13.4010    2.9280   -4.9300 hc        1 K9Y      0.086000
     49 H14        12.6570    2.8630   -6.5830 hc        1 K9Y      0.086000
     50 H15         9.7620   -1.0030   -3.3850 hn        1 K9Y      0.235000
     51 H16         8.1270    0.2020   -2.1090 hn        1 K9Y      0.223000
     52 H17        12.1960   -6.7620   -5.5620 hc        1 K9Y      0.078667
     53 H18        10.8650   -6.6360   -6.7880 hc        1 K9Y      0.078667
     54 H19        11.1020   -8.1770   -5.8610 hc        1 K9Y      0.078667
     55 H20        11.6470   -6.8990   -3.1170 hc        1 K9Y      0.078667
     56 H21        10.5480   -8.3060   -3.4450 hc        1 K9Y      0.078667
     57 H22         9.9190   -6.8470   -2.5660 hc        1 K9Y      0.078667
     58 H23         8.0580   -6.6600   -4.2840 hc        1 K9Y      0.078667
     59 H24         8.7270   -8.1260   -5.1220 hc        1 K9Y      0.078667
     60 H25         8.4720   -6.5870   -6.0480 hc        1 K9Y      0.078667
     61 H26        -0.6770    0.7240    4.5580 hn        1 K9Y      0.247000
     62 H27        -1.9940    0.3530    3.5420 hn        1 K9Y      0.247000
     63 N32         7.4580   -0.5080   -2.3320 n         1 K9Y     -0.320000
@<TRIPOS>BOND
     1    1    2 1   
     2    1    6 1   
     3    2    3 1   
     4    2   36 1   
     5    3    4 1   
     6    3    8 1   
     7    4    5 1   
     8    4    7 1   
     9    5    6 1   
    10    5   35 1   
    11    7    9 1   
    12    8   14 1   
    13    8   37 1   
    14   10   11 1   
    15   10   15 1   
    16   10   38 1   
    17   11   12 1   
    18   11   39 1   
    19   11   63 1   
    20   12   13 1   
    21   13   14 1   
    22   13   40 1   
    23   14   41 1   
    24   16   17 1   
    25   16   20 1   
    26   16   22 1   
    27   17   18 1   
    28   17   29 1   
    29   18   19 1   
    30   18   42 1   
    31   19   20 1   
    32   19   21 1   
    33   21   32 1   
    34   21   33 1   
    35   21   34 1   
    36   22   23 1   
    37   22   27 1   
    38   23   24 1   
    39   23   43 1   
    40   24   25 1   
    41   24   44 1   
    42   25   28 1   
    43   25   45 1   
    44   26   27 1   
    45   26   46 1   
    46   28   47 1   
    47   28   48 1   
    48   28   49 1   
    49   29   30 1   
    50   29   50 1   
    51   30   31 1   
    52   30   63 1   
    53   32   52 1   
    54   32   53 1   
    55   32   54 1   
    56   33   55 1   
    57   33   56 1   
    58   33   57 1   
    59   34   58 1   
    60   34   59 1   
    61   34   60 1   
    62   35   61 1   
    63   35   62 1   
    64   51   63 1   
@<TRIPOS>SUBSTRUCTURE
     1 K9Y         1 TEMP              0 ****  ****    0 ROOT
