@<TRIPOS>MOLECULE
K9Y
   63    64     1     0     0
SMALL
bcc


@<TRIPOS>ATOM
      1 C1          0.0870    0.1490    0.2700 c1        1 K9Y      0.004000
      2 N2          1.4460    0.4040    0.3450 n7        1 K9Y     -0.222000
      3 C3          2.0550    0.7240    1.5510 c2        1 K9Y      0.168000
      4 C4          1.2530    0.7820    2.7250 c2        1 K9Y     -0.139000
      5 C5         -0.1920    0.5100    2.5710 c2        1 K9Y      0.240000
      6 N6         -0.7070    0.2060    1.3410 n2        1 K9Y     -0.287000
      7 N7          1.7940    1.0810    3.9500 n2        1 K9Y     -0.289000
      8 N8          3.4380    1.0130    1.6180 n7        1 K9Y     -0.268000
      9 C9          2.2510    1.3250    5.0150 c1        1 K9Y      0.133000
     10 C10         5.0670    0.0030   -2.2170 c2        1 K9Y     -0.437000
     11 C11         6.2870   -0.4660   -1.4600 c3        1 K9Y      0.065000
     12 C12         6.5870    0.2950   -0.2320 c1        1 K9Y     -0.119000
     13 C13         5.6640    0.8420    0.6460 c2        1 K9Y     -0.302000
     14 C14         4.3490    0.4440    0.7720 c2        1 K9Y      0.095000
     15 C15         3.9350    0.4160   -1.7080 c1        1 K9Y      0.079000
     16 N16        10.6270   -2.9830   -4.9590 na        1 K9Y     -0.119000
     17 C17         9.7300   -3.0010   -3.8300 c2        1 K9Y      0.056000
     18 C18         9.4270   -4.3510   -3.5940 c2        1 K9Y     -0.209000
     19 C19        10.2210   -5.0910   -4.5620 c2        1 K9Y     -0.084000
     20 N20        10.9590   -4.2410   -5.3200 n2        1 K9Y     -0.055000
     21 C21        10.2020   -6.5840   -4.6890 c3        1 K9Y      0.017000
     22 C22        11.4360   -1.8440   -5.2820 c2        1 K9Y      0.140000
     23 C23        10.8380   -0.6900   -5.6870 c2        1 K9Y     -0.124000
     24 C24        11.4950    0.5500   -6.0170 c2        1 K9Y     -0.155000
     25 C25        12.6550    0.9940   -5.5110 c2        1 K9Y     -0.130000
     26 C26        14.0230   -2.1840   -5.1350 c1        1 K9Y     -0.156000
     27 C27        12.8400   -2.0100   -5.1970 c1        1 K9Y     -0.141000
     28 C28        13.2610    2.2880   -5.8780 c3        1 K9Y     -0.193000
     29 N29         9.2870   -1.8560   -3.1700 ns        1 K9Y     -0.291000
     30 C30         7.9720   -1.7890   -2.6540 c2        1 K9Y      0.375000
     31 O31         7.2810   -2.8210   -2.4980 o         1 K9Y     -0.373000
     32 C33        11.1520   -7.0760   -5.7720 c3        1 K9Y     -0.202667
     33 C34        10.6130   -7.1920   -3.3520 c3        1 K9Y     -0.202667
     34 C35         8.7820   -7.0260   -5.0330 c3        1 K9Y     -0.202667
     35 N36        -1.0170    0.5610    3.6570 n8        1 K9Y     -0.349000
     36 H1          1.9830    0.3860   -0.5080 hn        1 K9Y      0.289000
     37 H2          3.7210    1.7600    2.2170 hn        1 K9Y      0.262000
     38 H3          5.1460   -0.0430   -3.3260 ha        1 K9Y      0.220000
     39 H4          6.0590   -1.5370   -1.1110 h1        1 K9Y      0.160000
     40 H5          6.0560    1.6580    1.2840 ha        1 K9Y      0.162000
     41 H6          3.9930   -0.4830    0.2590 h4        1 K9Y      0.166000
     42 H7          8.7270   -4.7500   -2.8660 ha        1 K9Y      0.190000
     43 H8          9.7380   -0.6630   -5.8120 ha        1 K9Y      0.141000
     44 H9         10.9380    1.1700   -6.7450 ha        1 K9Y      0.131000
     45 H10        13.2230    0.4000   -4.7740 ha        1 K9Y      0.131000
     46 H11        15.0720   -2.3310   -5.0820 ha        1 K9Y      0.228000
     47 H12        14.2740    2.1190   -6.3250 hc        1 K9Y      0.086000
     48 H13        13.3860    2.9250   -4.9670 hc        1 K9Y      0.086000
     49 H14        12.6400    2.8480   -6.6190 hc        1 K9Y      0.086000
     50 H15         9.7580   -1.0040   -3.3950 hn        1 K9Y      0.235000
     51 H16         8.1220    0.2050   -2.1230 hn        1 K9Y      0.223000
     52 H17        12.2010   -6.7710   -5.5430 hc        1 K9Y      0.078667
     53 H18        10.8660   -6.6550   -6.7660 hc        1 K9Y      0.078667
     54 H19        11.1090   -8.1900   -5.8300 hc        1 K9Y      0.078667
     55 H20        11.6580   -6.8950   -3.0960 hc        1 K9Y      0.078667
     56 H21        10.5610   -8.3060   -3.4120 hc        1 K9Y      0.078667
     57 H22         9.9320   -6.8430   -2.5400 hc        1 K9Y      0.078667
     58 H23         8.0660   -6.6700   -4.2540 hc        1 K9Y      0.078667
     59 H24         8.7360   -8.1400   -5.0850 hc        1 K9Y      0.078667
     60 H25         8.4750   -6.6070   -6.0200 hc        1 K9Y      0.078667
     61 H26        -0.6670    0.7540    4.5610 hn        1 K9Y      0.247000
     62 H27        -1.9850    0.3690    3.5510 hn        1 K9Y      0.247000
     63 N32         7.4540   -0.5080   -2.3390 ns        1 K9Y     -0.320000
@<TRIPOS>BOND
     1    1    2 1   
     2    1    6 1   
     3    2    3 1   
     4    2   36 1   
     5    3    4 1   
     6    3    8 1   
     7    4    5 1   
     8    4    7 1   
     9    5    6 1   
    10    5   35 1   
    11    7    9 1   
    12    8   14 1   
    13    8   37 1   
    14   10   11 1   
    15   10   15 1   
    16   10   38 1   
    17   11   12 1   
    18   11   39 1   
    19   11   63 1   
    20   12   13 1   
    21   13   14 1   
    22   13   40 1   
    23   14   41 1   
    24   16   17 1   
    25   16   20 1   
    26   16   22 1   
    27   17   18 1   
    28   17   29 1   
    29   18   19 1   
    30   18   42 1   
    31   19   20 1   
    32   19   21 1   
    33   21   32 1   
    34   21   33 1   
    35   21   34 1   
    36   22   23 1   
    37   22   27 1   
    38   23   24 1   
    39   23   43 1   
    40   24   25 1   
    41   24   44 1   
    42   25   28 1   
    43   25   45 1   
    44   26   27 1   
    45   26   46 1   
    46   28   47 1   
    47   28   48 1   
    48   28   49 1   
    49   29   30 1   
    50   29   50 1   
    51   30   31 1   
    52   30   63 1   
    53   32   52 1   
    54   32   53 1   
    55   32   54 1   
    56   33   55 1   
    57   33   56 1   
    58   33   57 1   
    59   34   58 1   
    60   34   59 1   
    61   34   60 1   
    62   35   61 1   
    63   35   62 1   
    64   51   63 1   
@<TRIPOS>SUBSTRUCTURE
     1 K9Y         1 TEMP              0 ****  ****    0 ROOT
