@<TRIPOS>MOLECULE
K9Y
   63    64     1     0     0
SMALL
bcc


@<TRIPOS>ATOM
      1 C1          0.0780    0.0720    0.4160 c1        1 K9Y      0.004000
      2 N2          1.4320    0.3590    0.4610 n3        1 K9Y     -0.222000
      3 C3          2.0560    0.7200    1.6490 c2        1 K9Y      0.168000
      4 C4          1.2730    0.7850    2.8350 c2        1 K9Y     -0.139000
      5 C5         -0.1670    0.4770    2.7140 c2        1 K9Y      0.240000
      6 N6         -0.6970    0.1340    1.5000 n2        1 K9Y     -0.287000
      7 N7          1.8290    1.1240    4.0440 n2        1 K9Y     -0.289000
      8 N8          3.4330    1.0420    1.6840 n3        1 K9Y     -0.268000
      9 C9          2.3000    1.4030    5.0940 c1        1 K9Y      0.133000
     10 C10         5.0140   -0.0140   -2.1580 c2        1 K9Y     -0.437000
     11 C11         6.2600   -0.4380   -1.4150 c3        1 K9Y      0.065000
     12 C12         6.5630    0.3570   -0.2090 c1        1 K9Y     -0.119000
     13 C13         5.6430    0.9020    0.6730 c2        1 K9Y     -0.302000
     14 C14         4.3400    0.4750    0.8330 c2        1 K9Y      0.095000
     15 C15         3.8820    0.3840   -1.6370 c1        1 K9Y      0.079000
     16 N16        10.5790   -2.9270   -4.9530 na        1 K9Y     -0.116000
     17 C17         9.7140   -2.9410   -3.8000 c2        1 K9Y      0.053000
     18 C18         9.4580   -4.2930   -3.5210 c2        1 K9Y     -0.205000
     19 C19        10.2420   -5.0350   -4.4920 c2        1 K9Y     -0.085000
     20 N20        10.9340   -4.1830   -5.2940 n2        1 K9Y     -0.059000
     21 C21        10.2930   -6.5270   -4.6160 c3        1 K9Y      0.019000
     22 C22        11.3340   -1.7710   -5.3410 c2        1 K9Y      0.140000
     23 C23        10.6820   -0.6500   -5.7530 c2        1 K9Y     -0.124000
     24 C24        11.2830    0.6010   -6.1440 c2        1 K9Y     -0.155000
     25 C25        12.4460    1.0980   -5.6970 c2        1 K9Y     -0.130000
     26 C26        13.9350   -2.0220   -5.2880 c1        1 K9Y     -0.156000
     27 C27        12.7450   -1.8890   -5.3080 c1        1 K9Y     -0.141000
     28 C28        12.9930    2.3990   -6.1250 c3        1 K9Y     -0.193000
     29 N29         9.2590   -1.7920   -3.1540 n         1 K9Y     -0.291000
     30 C30         7.9530   -1.7450   -2.6130 c2        1 K9Y      0.374000
     31 O31         7.2900   -2.7900   -2.4200 o         1 K9Y     -0.372000
     32 C33        11.7290   -7.0090   -4.4360 c3        1 K9Y     -0.204333
     33 C34         9.4150   -7.1680   -3.5470 c3        1 K9Y     -0.204333
     34 C35         9.7870   -6.9440   -5.9920 c3        1 K9Y     -0.204333
     35 N36        -0.9740    0.5340    3.8140 n3        1 K9Y     -0.349000
     36 H1          1.9540    0.3350   -0.4010 hn        1 K9Y      0.289000
     37 H2          3.7090    1.8080    2.2610 hn        1 K9Y      0.262000
     38 H3          5.0730   -0.0840   -3.2680 ha        1 K9Y      0.220000
     39 H4          6.0640   -1.5060   -1.0390 h1        1 K9Y      0.160000
     40 H5          6.0280    1.7410    1.2860 ha        1 K9Y      0.162000
     41 H6          3.9970   -0.4700    0.3470 h4        1 K9Y      0.166000
     42 H7          8.7900   -4.6870   -2.7610 ha        1 K9Y      0.191000
     43 H8          9.5770   -0.6630   -5.8360 ha        1 K9Y      0.141000
     44 H9         10.6770    1.1810   -6.8660 ha        1 K9Y      0.131000
     45 H10        13.0620    0.5440   -4.9680 ha        1 K9Y      0.131000
     46 H11        14.9900   -2.1330   -5.2740 ha        1 K9Y      0.228000
     47 H12        13.9920    2.2500   -6.6080 hc        1 K9Y      0.086000
     48 H13        12.3240    2.9170   -6.8550 hc        1 K9Y      0.086000
     49 H14        13.1320    3.0660   -5.2380 hc        1 K9Y      0.086000
     50 H15         9.7030   -0.9350   -3.4090 hn        1 K9Y      0.235000
     51 H16         8.0650    0.2620   -2.1270 hn        1 K9Y      0.223000
     52 H17        12.1260   -6.6810   -3.4460 hc        1 K9Y      0.078889
     53 H18        11.7610   -8.1240   -4.4840 hc        1 K9Y      0.078889
     54 H19        12.3830   -6.5970   -5.2400 hc        1 K9Y      0.078889
     55 H20         9.4610   -8.2790   -3.6390 hc        1 K9Y      0.078889
     56 H21         9.7670   -6.8780   -2.5280 hc        1 K9Y      0.078889
     57 H22         8.3540   -6.8430   -3.6670 hc        1 K9Y      0.078889
     58 H23         9.7850   -8.0580   -6.0720 hc        1 K9Y      0.078889
     59 H24         8.7470   -6.5720   -6.1520 hc        1 K9Y      0.078889
     60 H25        10.4440   -6.5290   -6.7930 hc        1 K9Y      0.078889
     61 H26        -0.6120    0.7540    4.7070 hn        1 K9Y      0.247000
     62 H27        -1.9390    0.3170    3.7300 hn        1 K9Y      0.247000
     63 N32         7.4100   -0.4710   -2.3160 n         1 K9Y     -0.320000
@<TRIPOS>BOND
     1    1    2 1   
     2    1    6 1   
     3    2    3 1   
     4    2   36 1   
     5    3    4 1   
     6    3    8 1   
     7    4    5 1   
     8    4    7 1   
     9    5    6 1   
    10    5   35 1   
    11    7    9 1   
    12    8   14 1   
    13    8   37 1   
    14   10   11 1   
    15   10   15 1   
    16   10   38 1   
    17   11   12 1   
    18   11   39 1   
    19   11   63 1   
    20   12   13 1   
    21   13   14 1   
    22   13   40 1   
    23   14   41 1   
    24   16   17 1   
    25   16   20 1   
    26   16   22 1   
    27   17   18 1   
    28   17   29 1   
    29   18   19 1   
    30   18   42 1   
    31   19   20 1   
    32   19   21 1   
    33   21   32 1   
    34   21   33 1   
    35   21   34 1   
    36   22   23 1   
    37   22   27 1   
    38   23   24 1   
    39   23   43 1   
    40   24   25 1   
    41   24   44 1   
    42   25   28 1   
    43   25   45 1   
    44   26   27 1   
    45   26   46 1   
    46   28   47 1   
    47   28   48 1   
    48   28   49 1   
    49   29   30 1   
    50   29   50 1   
    51   30   31 1   
    52   30   63 1   
    53   32   52 1   
    54   32   53 1   
    55   32   54 1   
    56   33   55 1   
    57   33   56 1   
    58   33   57 1   
    59   34   58 1   
    60   34   59 1   
    61   34   60 1   
    62   35   61 1   
    63   35   62 1   
    64   51   63 1   
@<TRIPOS>SUBSTRUCTURE
     1 K9Y         1 TEMP              0 ****  ****    0 ROOT
