@<TRIPOS>MOLECULE
K9Y
   63    67     1     0     0
SMALL
bcc


@<TRIPOS>ATOM
      1 C1         -7.2770   -0.2330   -2.2520 ca        1 K9Y      0.688900
      2 N2         -6.1270    0.0090   -1.5790 nb        1 K9Y     -0.733000
      3 C3         -6.3440    0.4760   -0.3140 ca        1 K9Y      0.469800
      4 C4         -7.6730    0.6900    0.2480 ca        1 K9Y     -0.237200
      5 C5         -8.8000    0.3870   -0.5890 ca        1 K9Y      0.766200
      6 N6         -8.5700   -0.0850   -1.8620 nb        1 K9Y     -0.795000
      7 N7         -7.5710    1.1780    1.5600 nc        1 K9Y     -0.538100
      8 N8         -5.4490    0.8530    0.7040 na        1 K9Y     -0.192100
      9 C9         -6.2580    1.2670    1.7990 cd        1 K9Y      0.407700
     10 C10        -1.9250   -0.0590   -0.0770 ca        1 K9Y     -0.143500
     11 C11        -1.2160    0.9460    0.6110 ca        1 K9Y      0.057600
     12 C12        -1.9510    1.9190    1.3280 ca        1 K9Y     -0.143500
     13 C13        -3.3370    1.8930    1.3440 ca        1 K9Y     -0.110000
     14 C14        -4.0440    0.8800    0.6600 ca        1 K9Y     -0.005200
     15 C15        -3.3140   -0.0960   -0.0480 ca        1 K9Y     -0.110000
     16 N16         4.6300   -0.5410   -0.2460 na        1 K9Y      0.129300
     17 C17         3.3550   -0.8100    0.3570 cc        1 K9Y      0.015300
     18 C18         3.2890   -2.2050    0.5260 cd        1 K9Y     -0.265300
     19 C19         4.5690   -2.7020    0.0610 cd        1 K9Y      0.334600
     20 N20         5.3560   -1.6710   -0.3510 nc        1 K9Y     -0.498800
     21 C21         4.9870   -4.1400    0.0250 c3        1 K9Y     -0.074300
     22 C22         5.1990    0.7610   -0.3510 ca        1 K9Y      0.005800
     23 C23         4.5120    1.7650   -1.0660 ca        1 K9Y     -0.129000
     24 C24         5.0600    3.0390   -1.1720 ca        1 K9Y     -0.122500
     25 C25         6.2960    3.3410   -0.5900 ca        1 K9Y     -0.073300
     26 C26         6.9840    2.3370    0.0990 ca        1 K9Y     -0.122500
     27 C27         6.4500    1.0590    0.2250 ca        1 K9Y     -0.129000
     28 C28         6.8660    4.7030   -0.6990 c3        1 K9Y     -0.056800
     29 N29         2.4240    0.1740    0.6980 n         1 K9Y     -0.436100
     30 C30         1.0400   -0.0660    0.4840 c         1 K9Y      0.764100
     31 O31         0.6110   -1.2170    0.2680 o         1 K9Y     -0.588100
     32 C33         6.2390   -4.3330    0.8740 c3        1 K9Y     -0.086767
     33 C34         3.8710   -5.0200    0.5760 c3        1 K9Y     -0.086767
     34 C35         5.2820   -4.5510   -1.4130 c3        1 K9Y     -0.086767
     35 N36       -10.0740    0.5760   -0.1270 nh        1 K9Y     -0.961500
     36 H1         -7.1470   -0.6160   -3.2880 h5        1 K9Y      0.053100
     37 H2         -5.8020    1.6040    2.7380 h5        1 K9Y      0.075800
     38 H3         -1.3830   -0.8410   -0.6370 ha        1 K9Y      0.155500
     39 H4         -1.4330    2.7210    1.8760 ha        1 K9Y      0.155500
     40 H5         -3.8780    2.6760    1.8990 ha        1 K9Y      0.154000
     41 H6         -3.8340   -0.8980   -0.5970 ha        1 K9Y      0.154000
     42 H7          2.4430   -2.7760    0.8950 ha        1 K9Y      0.190000
     43 H8          3.5590    1.5440   -1.5700 ha        1 K9Y      0.150000
     44 H9          4.5170    3.8150   -1.7340 ha        1 K9Y      0.139000
     45 H10         7.9650    2.5590    0.5490 ha        1 K9Y      0.139000
     46 H11         7.0160    0.2830    0.7650 ha        1 K9Y      0.150000
     47 H12         6.5820    5.3090    0.1990 hc        1 K9Y      0.048033
     48 H13         7.9820    4.6650   -0.7540 hc        1 K9Y      0.048033
     49 H14         6.4850    5.2270   -1.6100 hc        1 K9Y      0.048033
     50 H15         2.7540    1.1150    0.6620 hn        1 K9Y      0.316500
     51 H16         0.5500    1.8900    0.9680 hn        1 K9Y      0.309500
     52 H17         6.0510   -4.0030    1.9230 hc        1 K9Y      0.039700
     53 H18         6.5250   -5.4120    0.8840 hc        1 K9Y      0.039700
     54 H19         7.0900   -3.7430    0.4580 hc        1 K9Y      0.039700
     55 H20         2.9460   -4.9080   -0.0390 hc        1 K9Y      0.039700
     56 H21         4.1890   -6.0900    0.5520 hc        1 K9Y      0.039700
     57 H22         3.6380   -4.7400    1.6310 hc        1 K9Y      0.039700
     58 H23         6.1320   -3.9560   -1.8240 hc        1 K9Y      0.039700
     59 H24         5.5530   -5.6340   -1.4480 hc        1 K9Y      0.039700
     60 H25         4.3840   -4.3860   -2.0550 hc        1 K9Y      0.039700
     61 H26       -10.2060    0.8810    0.8040 hn        1 K9Y      0.449800
     62 H27       -10.8550    0.3410   -0.6860 hn        1 K9Y      0.449800
     63 N32         0.1880    1.0590    0.5510 n         1 K9Y     -0.459100
@<TRIPOS>BOND
     1    1    2 ar  
     2    1    6 ar  
     3    1   36 1   
     4    2    3 ar  
     5    3    4 ar  
     6    3    8 1   
     7    4    5 ar  
     8    4    7 1   
     9    5    6 ar  
    10    5   35 1   
    11    7    9 2   
    12    8    9 1   
    13    8   14 1   
    14    9   37 1   
    15   10   11 ar  
    16   10   15 ar  
    17   10   38 1   
    18   11   12 ar  
    19   11   63 1   
    20   12   13 ar  
    21   12   39 1   
    22   13   14 ar  
    23   13   40 1   
    24   14   15 ar  
    25   15   41 1   
    26   16   17 1   
    27   16   20 1   
    28   16   22 1   
    29   17   18 2   
    30   17   29 1   
    31   18   19 1   
    32   18   42 1   
    33   19   20 2   
    34   19   21 1   
    35   21   32 1   
    36   21   33 1   
    37   21   34 1   
    38   22   23 ar  
    39   22   27 ar  
    40   23   24 ar  
    41   23   43 1   
    42   24   25 ar  
    43   24   44 1   
    44   25   26 ar  
    45   25   28 1   
    46   26   27 ar  
    47   26   45 1   
    48   27   46 1   
    49   28   47 1   
    50   28   48 1   
    51   28   49 1   
    52   29   30 1   
    53   29   50 1   
    54   30   31 2   
    55   30   63 1   
    56   32   52 1   
    57   32   53 1   
    58   32   54 1   
    59   33   55 1   
    60   33   56 1   
    61   33   57 1   
    62   34   58 1   
    63   34   59 1   
    64   34   60 1   
    65   35   61 1   
    66   35   62 1   
    67   51   63 1   
@<TRIPOS>SUBSTRUCTURE
     1 K9Y         1 TEMP              0 ****  ****    0 ROOT
