@<TRIPOS>MOLECULE
KA5
   43    45     1     0     0
SMALL
bcc


@<TRIPOS>ATOM
      1 N1         -0.1040   -0.1400   -0.0650 nb        1 KA5     -0.788000
      2 C2          1.2290    0.1370   -0.1210 ca        1 KA5      0.894900
      3 N3          2.0090    0.5510    0.9630 nb        1 KA5     -0.831000
      4 C4          1.4140    0.6130    2.1750 ca        1 KA5      0.734200
      5 C5          0.0270    0.1730    2.3830 ca        1 KA5     -0.286600
      6 C6         -0.6830   -0.1310    1.1800 ca        1 KA5      0.455600
      7 C7         -2.0780   -0.4460    1.2670 ca        1 KA5     -0.164300
      8 C8         -2.7150   -0.5050    2.4710 ca        1 KA5     -0.132000
      9 C9         -2.0100   -0.2880    3.6990 ca        1 KA5      0.130600
     10 C10        -0.6460    0.0360    3.6240 ca        1 KA5     -0.007600
     11 N11         1.8980   -0.0430   -1.3450 nh        1 KA5     -0.917500
     12 N12         2.1490    1.1990    3.1860 nh        1 KA5     -0.956500
     13 CL13        0.1920    0.1990    5.1150 cl        1 KA5     -0.113400
     14 N14        -2.6520   -0.5030    4.9300 nh        1 KA5     -0.708600
     15 C15        -4.0950   -0.3600    4.9710 c3        1 KA5      0.240100
     16 C16        -4.6290   -0.2200    6.3660 ca        1 KA5     -0.091300
     17 C17        -5.4520   -1.2040    6.9000 ca        1 KA5     -0.108000
     18 C18        -5.9890   -1.0440    8.1920 ca        1 KA5      0.094100
     19 C19        -5.6960    0.0900    8.9530 ca        1 KA5     -0.165000
     20 C20        -4.8610    1.0760    8.4250 ca        1 KA5     -0.167000
     21 C21        -4.3290    0.9230    7.1430 ca        1 KA5      0.093100
     22 O22        -3.4810    1.8380    6.5420 os        1 KA5     -0.335900
     23 C23        -3.2920    3.0670    7.2330 c3        1 KA5      0.114700
     24 O24        -6.8040   -2.0810    8.6080 os        1 KA5     -0.325900
     25 C25        -7.3240   -1.9770    9.9280 c3        1 KA5      0.113700
     26 H7         -2.6330   -0.6470    0.3350 ha        1 KA5      0.155000
     27 H8         -3.7890   -0.7470    2.4990 ha        1 KA5      0.142000
     28 HN11        2.7570    0.4490   -1.4420 hn        1 KA5      0.417300
     29 HN1A        1.3180   -0.0470   -2.1530 hn        1 KA5      0.417300
     30 HN12        3.1140    1.3740    3.0300 hn        1 KA5      0.434800
     31 HN1B        1.8600    1.0460    4.1250 hn        1 KA5      0.434800
     32 HN14       -2.2030   -0.0410    5.7000 hn        1 KA5      0.413800
     33 H15        -4.5390   -1.2810    4.4920 h1        1 KA5      0.050700
     34 H15A       -4.4410    0.5410    4.3800 h1        1 KA5      0.050700
     35 H17        -5.6930   -2.1110    6.3270 ha        1 KA5      0.157000
     36 H19        -6.1100    0.2210    9.9630 ha        1 KA5      0.140000
     37 H20        -4.6320    1.9640    9.0300 ha        1 KA5      0.140000
     38 H23        -2.7610    2.8940    8.2010 h1        1 KA5      0.046033
     39 H23A       -4.2680    3.5810    7.4070 h1        1 KA5      0.046033
     40 H23B       -2.6500    3.6620    6.5340 h1        1 KA5      0.046033
     41 H25        -7.9840   -1.0800   10.0220 h1        1 KA5      0.044700
     42 H25A       -7.9190   -2.9180   10.0480 h1        1 KA5      0.044700
     43 H25B       -6.4970   -1.9350   10.6780 h1        1 KA5      0.044700
@<TRIPOS>BOND
     1    1    2 ar  
     2    1    6 ar  
     3    2    3 ar  
     4    2   11 1   
     5    3    4 ar  
     6    4    5 ar  
     7    4   12 1   
     8    5    6 ar  
     9    5   10 ar  
    10    6    7 ar  
    11    7    8 ar  
    12    7   26 1   
    13    8    9 ar  
    14    8   27 1   
    15    9   10 ar  
    16    9   14 1   
    17   10   13 1   
    18   11   28 1   
    19   11   29 1   
    20   12   30 1   
    21   12   31 1   
    22   14   15 1   
    23   14   32 1   
    24   15   16 1   
    25   15   33 1   
    26   15   34 1   
    27   16   17 ar  
    28   16   21 ar  
    29   17   18 ar  
    30   17   35 1   
    31   18   19 ar  
    32   18   24 1   
    33   19   20 ar  
    34   19   36 1   
    35   20   21 ar  
    36   20   37 1   
    37   21   22 1   
    38   22   23 1   
    39   23   38 1   
    40   23   39 1   
    41   23   40 1   
    42   24   25 1   
    43   25   41 1   
    44   25   42 1   
    45   25   43 1   
@<TRIPOS>SUBSTRUCTURE
     1 KA5         1 TEMP              0 ****  ****    0 ROOT
