@<TRIPOS>MOLECULE
KA5
   46    48     1     0     0
SMALL
bcc


@<TRIPOS>ATOM
      1 N1          0.0780    0.8650    0.1410 nb        1 KA5     -0.562000
      2 C2          1.2010    0.1730   -0.1070 ca        1 KA5      0.755900
      3 N3          1.8660   -0.6520    0.8020 nb        1 KA5     -0.658000
      4 C4          1.3320   -0.7610    2.0220 ca        1 KA5      0.598200
      5 C5          0.1180   -0.0750    2.4350 ca        1 KA5     -0.210600
      6 C6         -0.4690    0.7500    1.4020 ca        1 KA5      0.450600
      7 C7         -1.6630    1.4900    1.6730 ca        1 KA5     -0.090300
      8 C8         -2.2540    1.4210    2.9110 ca        1 KA5     -0.063000
      9 C9         -1.6920    0.6130    3.9390 ca        1 KA5      0.075600
     10 C10        -0.5260   -0.1300    3.7020 ca        1 KA5      0.011400
     11 N11         1.8100    0.2810   -1.4630 n4        1 KA5     -0.815300
     12 N12         2.0850   -1.6460    2.9400 n4        1 KA5     -0.843300
     13 CL13        0.0840   -1.0840    4.9660 cl        1 KA5     -0.007400
     14 N14        -2.3800    0.5890    5.2280 n4        1 KA5     -0.680400
     15 C15        -3.6470   -0.2740    5.2120 c3        1 KA5      0.222100
     16 C16        -4.3380   -0.1440    6.5120 ca        1 KA5     -0.214300
     17 C17        -4.4550   -1.2480    7.3630 ca        1 KA5     -0.108000
     18 C18        -5.2070   -1.1370    8.5440 ca        1 KA5      0.136100
     19 C19        -5.8350    0.0790    8.8760 ca        1 KA5     -0.100000
     20 C20        -5.7010    1.1830    8.0420 ca        1 KA5     -0.136000
     21 C21        -4.9470    1.0800    6.8670 ca        1 KA5      0.112100
     22 O22        -4.7040    2.1300    5.9980 os        1 KA5     -0.417900
     23 C23        -5.5320    3.2900    6.1660 c3        1 KA5      0.116700
     24 O24        -5.2540   -2.2760    9.3030 os        1 KA5     -0.311900
     25 C25        -6.0860   -2.2460   10.4670 c3        1 KA5      0.102700
     26 H7         -2.1100    2.1220    0.8740 ha        1 KA5      0.233000
     27 H8         -3.1800    2.0060    3.1030 ha        1 KA5      0.223000
     28 HN11        2.7690    0.6600   -1.3840 hn        1 KA5      0.511467
     29 HN1A        1.8470   -0.6540   -1.9020 hn        1 KA5      0.511467
     30 HN12        2.3900   -1.1040    3.7660 hn        1 KA5      0.504800
     31 HN1B        1.4770   -2.4260    3.2410 hn        1 KA5      0.504800
     32 HN14       -1.7600    0.2550    5.9790 hn        1 KA5      0.486800
     33 H15        -3.3370   -1.3340    4.9980 hx        1 KA5      0.107700
     34 H15A       -4.2890    0.1270    4.3750 hx        1 KA5      0.107700
     35 H17        -3.9940   -2.2160    7.1130 ha        1 KA5      0.161000
     36 H19        -6.4370    0.1640    9.7980 ha        1 KA5      0.184000
     37 H20        -6.1940    2.1310    8.3130 ha        1 KA5      0.178000
     38 H23        -6.6120    3.0060    6.1460 h1        1 KA5      0.070700
     39 H23A       -5.2690    3.9260    5.2840 h1        1 KA5      0.070700
     40 H23B       -5.2690    3.8070    7.1210 h1        1 KA5      0.070700
     41 H25        -5.9840   -3.2880   10.8710 h1        1 KA5      0.070700
     42 H25A       -5.7000   -1.4980   11.2000 h1        1 KA5      0.070700
     43 H25B       -7.1450   -2.0310   10.1870 h1        1 KA5      0.070700
     44 H113        1.2440    0.9140   -2.0610 hn        1 KA5      0.511467
     45 H123        2.9270   -2.0450    2.4800 hn        1 KA5      0.504800
     46 H142       -2.6790    1.5560    5.4720 hn        1 KA5      0.486800
@<TRIPOS>BOND
     1    1    2 ar  
     2    1    6 ar  
     3    2    3 ar  
     4    2   11 1   
     5    3    4 ar  
     6    4    5 ar  
     7    4   12 1   
     8    5    6 ar  
     9    5   10 ar  
    10    6    7 ar  
    11    7    8 ar  
    12    7   26 1   
    13    8    9 ar  
    14    8   27 1   
    15    9   10 ar  
    16    9   14 1   
    17   10   13 1   
    18   11   28 1   
    19   11   29 1   
    20   11   44 1   
    21   12   30 1   
    22   12   31 1   
    23   12   45 1   
    24   14   15 1   
    25   14   32 1   
    26   14   46 1   
    27   15   16 1   
    28   15   33 1   
    29   15   34 1   
    30   16   17 ar  
    31   16   21 ar  
    32   17   18 ar  
    33   17   35 1   
    34   18   19 ar  
    35   18   24 1   
    36   19   20 ar  
    37   19   36 1   
    38   20   21 ar  
    39   20   37 1   
    40   21   22 1   
    41   22   23 1   
    42   23   38 1   
    43   23   39 1   
    44   23   40 1   
    45   24   25 1   
    46   25   41 1   
    47   25   42 1   
    48   25   43 1   
@<TRIPOS>SUBSTRUCTURE
     1 KA5         1 TEMP              0 ****  ****    0 ROOT
