@<TRIPOS>MOLECULE
KA5
   43    45     1     0     0
SMALL
bcc


@<TRIPOS>ATOM
      1 N1         -0.1010   -0.1410   -0.0630 nb        1 KA5     -0.788000
      2 C2          1.2320    0.1380   -0.1190 ca        1 KA5      0.894900
      3 N3          2.0110    0.5520    0.9660 nb        1 KA5     -0.831000
      4 C4          1.4160    0.6140    2.1780 ca        1 KA5      0.734200
      5 C5          0.0290    0.1730    2.3850 ca        1 KA5     -0.286600
      6 C6         -0.6800   -0.1320    1.1810 ca        1 KA5      0.455600
      7 C7         -2.0750   -0.4480    1.2680 ca        1 KA5     -0.164300
      8 C8         -2.7120   -0.5070    2.4720 ca        1 KA5     -0.132000
      9 C9         -2.0090   -0.2890    3.7000 ca        1 KA5      0.130600
     10 C10        -0.6450    0.0360    3.6250 ca        1 KA5     -0.007600
     11 N11         1.9020   -0.0420   -1.3420 nv        1 KA5     -0.917500
     12 N12         2.1490    1.2000    3.1890 nv        1 KA5     -0.956500
     13 Cl13        0.1910    0.2000    5.1170 cl        1 KA5     -0.113400
     14 N14        -2.6520   -0.5040    4.9300 nu        1 KA5     -0.708600
     15 C15        -4.0950   -0.3620    4.9700 c3        1 KA5      0.240100
     16 C16        -4.6290   -0.2210    6.3650 ca        1 KA5     -0.091300
     17 C17        -5.4520   -1.2050    6.9000 ca        1 KA5     -0.108000
     18 C18        -5.9900   -1.0440    8.1910 ca        1 KA5      0.094100
     19 C19        -5.6990    0.0910    8.9510 ca        1 KA5     -0.165000
     20 C20        -4.8640    1.0760    8.4220 ca        1 KA5     -0.167000
     21 C21        -4.3310    0.9230    7.1410 ca        1 KA5      0.093100
     22 O22        -3.4830    1.8380    6.5390 os        1 KA5     -0.335900
     23 C23        -3.2950    3.0680    7.2290 c3        1 KA5      0.114700
     24 O24        -6.8050   -2.0820    8.6080 os        1 KA5     -0.325900
     25 C25        -7.3260   -1.9760    9.9270 c3        1 KA5      0.113700
     26 H7         -2.6300   -0.6490    0.3350 ha        1 KA5      0.155000
     27 H8         -3.7870   -0.7490    2.4990 ha        1 KA5      0.142000
     28 HN11        1.3220   -0.0460   -2.1500 hn        1 KA5      0.417300
     29 HN1A        2.7610    0.4500   -1.4390 hn        1 KA5      0.417300
     30 HN12        1.8610    1.0470    4.1280 hn        1 KA5      0.434800
     31 HN1B        3.1150    1.3750    3.0330 hn        1 KA5      0.434800
     32 HN14       -2.2030   -0.0420    5.7000 hn        1 KA5      0.413800
     33 H15        -4.4400    0.5380    4.3790 h1        1 KA5      0.050700
     34 H15A       -4.5380   -1.2840    4.4920 h1        1 KA5      0.050700
     35 H17        -5.6920   -2.1130    6.3270 ha        1 KA5      0.157000
     36 H19        -6.1130    0.2220    9.9600 ha        1 KA5      0.140000
     37 H20        -4.6360    1.9660    9.0270 ha        1 KA5      0.140000
     38 H23        -2.7660    2.8960    8.1980 h1        1 KA5      0.046033
     39 H23A       -4.2720    3.5810    7.4020 h1        1 KA5      0.046033
     40 H23B       -2.6540    3.6620    6.5300 h1        1 KA5      0.046033
     41 H25        -7.9200   -2.9170   10.0470 h1        1 KA5      0.044700
     42 H25A       -7.9860   -1.0800   10.0190 h1        1 KA5      0.044700
     43 H25B       -6.5000   -1.9330   10.6770 h1        1 KA5      0.044700
@<TRIPOS>BOND
     1    1    2 ar  
     2    1    6 ar  
     3    2    3 ar  
     4    2   11 1   
     5    3    4 ar  
     6    4    5 ar  
     7    4   12 1   
     8    5    6 ar  
     9    5   10 ar  
    10    6    7 ar  
    11    7    8 ar  
    12    7   26 1   
    13    8    9 ar  
    14    8   27 1   
    15    9   10 ar  
    16    9   14 1   
    17   10   13 1   
    18   11   28 1   
    19   11   29 1   
    20   12   30 1   
    21   12   31 1   
    22   14   15 1   
    23   14   32 1   
    24   15   16 1   
    25   15   33 1   
    26   15   34 1   
    27   16   17 ar  
    28   16   21 ar  
    29   17   18 ar  
    30   17   35 1   
    31   18   19 ar  
    32   18   24 1   
    33   19   20 ar  
    34   19   36 1   
    35   20   21 ar  
    36   20   37 1   
    37   21   22 1   
    38   22   23 1   
    39   23   38 1   
    40   23   39 1   
    41   23   40 1   
    42   24   25 1   
    43   25   41 1   
    44   25   42 1   
    45   25   43 1   
@<TRIPOS>SUBSTRUCTURE
     1 KA5         1 TEMP              0 ****  ****    0 ROOT
