@<TRIPOS>MOLECULE
KA5
   43    45     1     0     0
SMALL
bcc


@<TRIPOS>ATOM
      1 N1         -4.7840    1.4720    0.6490 nb        1 KA5     -0.790000
      2 C2         -5.7130    0.7310   -0.0200 ca        1 KA5      0.895900
      3 N3         -5.4770   -0.5170   -0.6040 nb        1 KA5     -0.833000
      4 C4         -4.2090   -0.9880   -0.5790 ca        1 KA5      0.741200
      5 C5         -3.0950   -0.1850   -0.0580 ca        1 KA5     -0.290600
      6 C6         -3.4910    1.0120    0.6160 ca        1 KA5      0.457600
      7 C7         -2.4890    1.7780    1.2960 ca        1 KA5     -0.165300
      8 C8         -1.1760    1.4090    1.2630 ca        1 KA5     -0.131000
      9 C9         -0.7390    0.2670    0.5170 ca        1 KA5      0.130600
     10 C10        -1.7130   -0.4840   -0.1590 ca        1 KA5     -0.007600
     11 N11        -7.0050    1.2640   -0.1780 nh        1 KA5     -0.916500
     12 N12        -4.0300   -2.2920   -0.9830 nh        1 KA5     -0.963500
     13 CL13       -1.1540   -1.7530   -1.1730 cl        1 KA5     -0.116400
     14 N14         0.6110   -0.1200    0.5410 nh        1 KA5     -0.706600
     15 C15         1.6020    0.9090    0.7980 c3        1 KA5      0.239100
     16 C16         2.9900    0.4950    0.4070 ca        1 KA5     -0.092300
     17 C17         3.9720    0.3430    1.3780 ca        1 KA5     -0.108000
     18 C18         5.2850    0.0010    1.0000 ca        1 KA5      0.094100
     19 C19         5.6140   -0.1980   -0.3420 ca        1 KA5     -0.165000
     20 C20         4.6280   -0.0570   -1.3190 ca        1 KA5     -0.167000
     21 C21         3.3250    0.2840   -0.9500 ca        1 KA5      0.093100
     22 O22         2.2790    0.4310   -1.8450 os        1 KA5     -0.334900
     23 C23         2.6230    0.3880   -3.2250 c3        1 KA5      0.114700
     24 O24         6.1760   -0.1070    2.0530 os        1 KA5     -0.325900
     25 C25         7.5010   -0.4950    1.7130 c3        1 KA5      0.113700
     26 H7         -2.7990    2.6790    1.8500 ha        1 KA5      0.155000
     27 H8         -0.4350    2.0090    1.8160 ha        1 KA5      0.142000
     28 HN11       -7.2530    1.9780    0.4700 hn        1 KA5      0.416800
     29 HN1A       -7.7220    0.6030   -0.3720 hn        1 KA5      0.416800
     30 HN12       -4.7810   -2.7720   -1.4190 hn        1 KA5      0.439800
     31 HN1B       -3.1070   -2.6220   -1.1420 hn        1 KA5      0.439800
     32 HN14        0.8700   -0.7130   -0.2260 hn        1 KA5      0.413800
     33 H15         1.3610    1.8650    0.2430 h1        1 KA5      0.051200
     34 H15A        1.5760    1.1330    1.9040 h1        1 KA5      0.051200
     35 H17         3.7400    0.4870    2.4440 ha        1 KA5      0.157000
     36 H19         6.6360   -0.4670   -0.6440 ha        1 KA5      0.140000
     37 H20         4.8930   -0.2190   -2.3740 ha        1 KA5      0.140000
     38 H23         1.6530    0.6080   -3.7400 h1        1 KA5      0.046033
     39 H23A        3.3850    1.1670   -3.4700 h1        1 KA5      0.046033
     40 H23B        2.9950   -0.6270   -3.5050 h1        1 KA5      0.046033
     41 H25         7.5070   -1.4980    1.2220 h1        1 KA5      0.044367
     42 H25A        7.9770    0.2690    1.0500 h1        1 KA5      0.044367
     43 H25B        8.0220   -0.5370    2.7030 h1        1 KA5      0.044367
@<TRIPOS>BOND
     1    1    2 ar  
     2    1    6 ar  
     3    2    3 ar  
     4    2   11 1   
     5    3    4 ar  
     6    4    5 ar  
     7    4   12 1   
     8    5    6 ar  
     9    5   10 ar  
    10    6    7 ar  
    11    7    8 ar  
    12    7   26 1   
    13    8    9 ar  
    14    8   27 1   
    15    9   10 ar  
    16    9   14 1   
    17   10   13 1   
    18   11   28 1   
    19   11   29 1   
    20   12   30 1   
    21   12   31 1   
    22   14   15 1   
    23   14   32 1   
    24   15   16 1   
    25   15   33 1   
    26   15   34 1   
    27   16   17 ar  
    28   16   21 ar  
    29   17   18 ar  
    30   17   35 1   
    31   18   19 ar  
    32   18   24 1   
    33   19   20 ar  
    34   19   36 1   
    35   20   21 ar  
    36   20   37 1   
    37   21   22 1   
    38   22   23 1   
    39   23   38 1   
    40   23   39 1   
    41   23   40 1   
    42   24   25 1   
    43   25   41 1   
    44   25   42 1   
    45   25   43 1   
@<TRIPOS>SUBSTRUCTURE
     1 KA5         1 TEMP              0 ****  ****    0 ROOT
