@<TRIPOS>MOLECULE
KA5
   43    39     1     0     0
SMALL
bcc


@<TRIPOS>ATOM
      1 N1          4.2960   -0.2180   -3.4890 n1        1 KA5     -0.269000
      2 C2          5.5300    0.2070   -3.0590 c1        1 KA5      0.190000
      3 N3          5.6740    0.7310   -1.7990 n1        1 KA5     -0.310000
      4 C4          4.5910    0.8300   -0.9720 c1        1 KA5      0.224000
      5 C5          3.3420    0.3990   -1.4100 c1        1 KA5     -0.187000
      6 C6          3.2010   -0.1200   -2.6580 c1        1 KA5      0.086000
      7 C7          1.9240   -0.5350   -3.1160 c2        1 KA5     -0.112000
      8 C8          0.8120   -0.4110   -2.2870 c1        1 KA5     -0.132000
      9 C9          0.9500    0.1130   -1.0270 c1        1 KA5     -0.005000
     10 C10         2.2170    0.5250   -0.5710 c2        1 KA5     -0.024000
     11 N11         6.6390    0.2210   -3.9740 n3        1 KA5     -0.320000
     12 N12         4.7390    1.3140    0.2850 n3        1 KA5     -0.356000
     13 CL13        2.4280    1.0110    1.1140 cl        1 KA5     -0.017000
     14 N14        -0.4230   -0.1400   -0.7280 n3        1 KA5     -0.255000
     15 C15        -1.2490    0.9060   -0.1340 c3        1 KA5     -0.026000
     16 C16        -2.2950    0.2550    0.7940 c2        1 KA5     -0.103000
     17 C17        -3.2040   -0.7010    0.2700 c2        1 KA5     -0.131000
     18 C18        -4.1840   -1.2590    1.0970 c1        1 KA5      0.051000
     19 C19        -4.2680   -0.8700    2.4530 c1        1 KA5     -0.168500
     20 C20        -3.3640    0.0790    2.9720 c1        1 KA5     -0.168500
     21 C21        -2.3810    0.6400    2.1470 c1        1 KA5      0.054000
     22 O22        -1.3930    1.4710    2.7110 os        1 KA5     -0.212000
     23 C23        -1.9170    2.4760    3.5660 c3        1 KA5     -0.075000
     24 O24        -5.1950   -2.1740    0.5290 os        1 KA5     -0.210000
     25 C25        -5.2010   -3.4760    1.1240 c3        1 KA5     -0.076000
     26 H7          1.8230   -0.9220   -4.0460 ha        1 KA5      0.157000
     27 H8         -0.1100   -0.7060   -2.6200 ha        1 KA5      0.141000
     28 HN11        6.5080    0.0290   -4.8340 hn        1 KA5      0.218000
     29 HN1A        7.4780    0.4230   -3.6740 hn        1 KA5      0.218000
     30 HN12        5.3340    0.9520    0.8300 hn        1 KA5      0.234000
     31 HN1B        4.2380    2.0530    0.5640 hn        1 KA5      0.234000
     32 HN14       -0.7710   -0.9070   -0.9150 hn        1 KA5      0.181000
     33 H15        -1.7070    1.3990   -0.8420 h1        1 KA5      0.118500
     34 H15A       -0.7140    1.4900    0.3560 h1        1 KA5      0.118500
     35 H17        -3.1440   -0.9730   -0.6810 ha        1 KA5      0.157000
     36 H19        -4.9720   -1.2700    3.0480 ha        1 KA5      0.139000
     37 H20        -3.4240    0.3460    3.9150 ha        1 KA5      0.139000
     38 H23        -1.3780    3.2860    3.4860 h1        1 KA5      0.083667
     39 H23A       -1.8980    2.1490    4.5280 h1        1 KA5      0.083667
     40 H23B       -2.8840    2.6830    3.2960 h1        1 KA5      0.083667
     41 H25        -4.4580   -3.9630    0.8190 h1        1 KA5      0.083000
     42 H25A       -5.1600   -3.3940    2.0630 h1        1 KA5      0.083000
     43 H25B       -6.0290   -3.9510    0.8710 h1        1 KA5      0.083000
@<TRIPOS>BOND
     1    1    6 1   
     2    2    3 1   
     3    2   11 1   
     4    4    5 1   
     5    4   12 1   
     6    5   10 1   
     7    6    7 1   
     8    7    8 1   
     9    7   26 1   
    10    8   27 1   
    11    9   10 1   
    12    9   14 1   
    13   10   13 1   
    14   11   28 1   
    15   11   29 1   
    16   12   30 1   
    17   12   31 1   
    18   14   15 1   
    19   14   32 1   
    20   15   16 1   
    21   15   33 1   
    22   15   34 1   
    23   16   17 1   
    24   16   21 1   
    25   17   18 1   
    26   17   35 1   
    27   18   24 1   
    28   19   20 1   
    29   19   36 1   
    30   20   37 1   
    31   21   22 1   
    32   22   23 1   
    33   23   38 1   
    34   23   39 1   
    35   23   40 1   
    36   24   25 1   
    37   25   41 1   
    38   25   42 1   
    39   25   43 1   
@<TRIPOS>SUBSTRUCTURE
     1 KA5         1 TEMP              0 ****  ****    0 ROOT
