@<TRIPOS>MOLECULE
KAA
   61    62     1     0     0
SMALL
bcc


@<TRIPOS>ATOM
      1 NZ       -226.0520 -159.9480  184.7940 n4        1 KAA     -0.837600
      2 CE       -226.0130 -161.4090  184.4960 c3        1 KAA      0.100800
      3 CD       -226.4980 -161.7460  183.0890 c3        1 KAA     -0.109400
      4 CG       -226.4550 -163.2520  182.8850 c3        1 KAA     -0.077400
      5 CB       -226.9820 -163.6050  181.5060 c3        1 KAA     -0.104400
      6 CA       -227.0380 -165.1250  181.3020 c3        1 KAA      0.038500
      7 N        -227.4010 -165.4680  179.8840 n4        1 KAA     -0.837600
      8 C        -228.1550 -165.7100  182.2190 c         1 KAA      0.631100
      9 O        -229.3330 -165.4560  181.9030 o         1 KAA     -0.567100
     10 N8       -227.7980 -166.4390  183.3030 n         1 KAA     -0.624000
     11 S1        188.2900  130.6550 -143.5180 s6        1 KAA      1.831000
     12 O1S       188.8230  129.4360 -143.2600 o         1 KAA     -0.612300
     13 O2S       188.8110  131.8640 -143.2280 o         1 KAA     -0.612300
     14 O5'       186.6600  130.6370 -143.2420 os        1 KAA     -0.545500
     15 C5'       185.8100  130.8640 -144.3450 c3        1 KAA      0.154400
     16 C4'       186.6780  130.7430 -145.6200 c3        1 KAA      0.135100
     17 O4'       188.0120  130.5980 -145.2040 os        1 KAA     -0.605500
     18 C3'       186.2830  129.5110 -146.4600 c3        1 KAA      0.106100
     19 O3'       185.0160  129.8310 -146.9980 oh        1 KAA     -0.573800
     20 C2'       187.2470  129.2560 -147.6440 c3        1 KAA      0.016800
     21 O2'       186.9970  130.0980 -148.7440 oh        1 KAA     -0.559800
     22 C1'       188.6950  129.4720 -147.2480 c2        1 KAA      0.473200
     23 N9        189.4900  128.5460 -146.7780 na        1 KAA     -0.228000
     24 C8        189.2250  127.1200 -146.4850 cc        1 KAA      0.383700
     25 N7        190.2760  126.4760 -146.0310 nd        1 KAA     -0.398100
     26 C5        191.3380  127.4060 -145.9770 ca        1 KAA     -0.269200
     27 C4        190.8980  128.7120 -146.4300 ca        1 KAA      0.474800
     28 N3        191.6570  129.8080 -146.4980 nb        1 KAA     -0.709000
     29 C2        192.9580  129.5670 -146.0770 ca        1 KAA      0.728900
     30 N1        193.5060  128.4340 -145.6350 nb        1 KAA     -0.724000
     31 C6        192.7040  127.2860 -145.5620 ca        1 KAA      0.798200
     32 N6        193.2130  126.1140 -145.1190 nh        1 KAA     -0.902500
     33 HNZ1     -225.7170 -159.7790  185.7510 hn        1 KAA      0.471467
     34 HNZ2     -225.4550 -159.4310  184.1380 hn        1 KAA      0.471467
     35 HE1      -224.9470 -161.7560  184.6310 hx        1 KAA      0.119200
     36 HE2      -226.6610 -161.9290  185.2620 hx        1 KAA      0.119200
     37 HD1      -227.5500 -161.3800  182.9410 hc        1 KAA      0.080200
     38 HD2      -225.8480 -161.2450  182.3220 hc        1 KAA      0.080200
     39 HG1      -225.4010 -163.6200  182.9980 hc        1 KAA      0.071700
     40 HG2      -227.0810 -163.7540  183.6710 hc        1 KAA      0.071700
     41 HB1      -228.0170 -163.1800  181.3800 hc        1 KAA      0.087200
     42 HB2      -226.3150 -163.1390  180.7300 hc        1 KAA      0.087200
     43 HA       -226.0250 -165.5820  181.5090 hx        1 KAA      0.120700
     44 HN1      -227.2450 -166.4680  179.7120 hn        1 KAA      0.478133
     45 HN2      -228.4040 -165.2610  179.7360 hn        1 KAA      0.478133
     46 HN8      -228.5160 -166.8310  183.8760 hn        1 KAA      0.350000
     47 H5'1      184.9990  130.0900 -144.3080 h1        1 KAA      0.102200
     48 H5'2      185.3720  131.8930 -144.2460 h1        1 KAA      0.102200
     49 H4'       186.6000  131.6730 -146.2490 h1        1 KAA      0.105700
     50 H3'       186.2420  128.5920 -145.8140 h1        1 KAA      0.076700
     51 HO3'      184.6370  129.0230 -147.3740 ho        1 KAA      0.441000
     52 H2'       187.0950  128.2030 -148.0340 h1        1 KAA      0.107700
     53 HO2'      186.4070  130.8190 -148.4680 ho        1 KAA      0.449000
     54 H1'       189.1050  130.5010 -147.4220 h4        1 KAA      0.103800
     55 H8        188.2180  126.7130 -146.6530 h5        1 KAA      0.103800
     56 H2        193.6300  130.4580 -146.1200 h5        1 KAA      0.095100
     57 HN61      192.6260  125.3130 -145.0620 hn        1 KAA      0.474800
     58 HN62      194.1630  126.0430 -144.8300 hn        1 KAA      0.474800
     59 HZ3      -227.0120 -159.5900  184.7120 hn        1 KAA      0.471467
     60 HN3      -226.8400 -164.9170  179.2270 hn        1 KAA      0.478133
     61 H82      -226.8580 -166.6900  183.4860 hn        1 KAA      0.350000
@<TRIPOS>BOND
     1    1    2 1   
     2    1   33 1   
     3    1   34 1   
     4    1   59 1   
     5    2    3 1   
     6    2   35 1   
     7    2   36 1   
     8    3    4 1   
     9    3   37 1   
    10    3   38 1   
    11    4    5 1   
    12    4   39 1   
    13    4   40 1   
    14    5    6 1   
    15    5   41 1   
    16    5   42 1   
    17    6    7 1   
    18    6    8 1   
    19    6   43 1   
    20    7   44 1   
    21    7   45 1   
    22    7   60 1   
    23    8    9 2   
    24    8   10 1   
    25   10   46 1   
    26   10   61 1   
    27   11   12 2   
    28   11   13 2   
    29   11   14 1   
    30   11   17 1   
    31   14   15 1   
    32   15   16 1   
    33   15   47 1   
    34   15   48 1   
    35   16   17 1   
    36   16   18 1   
    37   16   49 1   
    38   18   19 1   
    39   18   20 1   
    40   18   50 1   
    41   19   51 1   
    42   20   21 1   
    43   20   22 1   
    44   20   52 1   
    45   21   53 1   
    46   22   23 2   
    47   22   54 1   
    48   23   24 1   
    49   23   27 1   
    50   24   25 2   
    51   24   55 1   
    52   25   26 1   
    53   26   27 ar  
    54   26   31 ar  
    55   27   28 ar  
    56   28   29 ar  
    57   29   30 ar  
    58   29   56 1   
    59   30   31 ar  
    60   31   32 1   
    61   32   57 1   
    62   32   58 1   
@<TRIPOS>SUBSTRUCTURE
     1 KAA         1 TEMP              0 ****  ****    0 ROOT
