@<TRIPOS>MOLECULE
KAA
   58    55     1     0     0
SMALL
bcc


@<TRIPOS>ATOM
      1 NZ         -1.1870    3.5830    2.1210 n3        1 KAA     -0.904800
      2 CE         -0.6270    2.2630    2.0530 c3        1 KAA      0.151800
      3 CD          0.8500    2.3550    1.5270 c3        1 KAA     -0.121400
      4 CG          1.3720    0.9520    1.1990 c3        1 KAA     -0.078400
      5 CB          2.7460    0.7550    1.8370 c3        1 KAA     -0.113400
      6 CA          3.0260   -0.7220    1.9790 c3        1 KAA      0.110500
      7 N           2.7340   -1.3750    0.7550 n3        1 KAA     -0.926800
      8 C           2.1500   -1.3030    3.0860 c         1 KAA      0.692100
      9 O           2.1600   -0.7930    4.2160 o         1 KAA     -0.577100
     10 N8          1.2940   -2.4960    2.8130 n         1 KAA     -0.664800
     11 S1         -0.3310   -2.4400    3.1340 s4        1 KAA      1.672100
     12 O1S        -0.7630   -1.0650    3.4720 o         1 KAA     -0.517400
     13 O2S        -0.6550   -3.1580    4.3880 o         1 KAA     -0.517400
     14 O5'        -1.1250   -3.0030    1.9550 o         1 KAA     -0.879500
     15 C5'        -2.1500   -2.2030    1.4650 c3        1 KAA      0.248100
     16 C4'        -2.2590   -2.3930   -0.0470 c3        1 KAA      0.100100
     17 O4'        -2.4530   -1.2280   -0.6400 os        1 KAA     -0.416600
     18 C3'        -0.9300   -2.9130   -0.6170 c3        1 KAA      0.096100
     19 O3'        -1.0610   -4.1680   -1.0180 oh        1 KAA     -0.598800
     20 C2'        -0.6060   -1.9860   -1.8270 c3        1 KAA      0.137100
     21 O2'        -0.2690   -2.8120   -3.0420 oh        1 KAA     -0.576800
     22 C1'        -1.6950   -1.3070   -2.0370 c3        1 KAA      0.210800
     23 N9         -1.3580    0.0640   -2.5170 n3        1 KAA     -0.122400
     24 C8         -2.5990    0.6100   -2.5540 c1        1 KAA      0.187400
     25 N7         -2.4770    1.9050   -2.9710 ne        1 KAA     -0.386400
     26 C5         -1.1660    2.1540   -3.1910 cg        1 KAA     -0.188000
     27 C4         -0.4690    1.0170   -2.9100 c1        1 KAA      0.341500
     28 N3          0.9080    0.9980   -3.0530 n1        1 KAA     -0.555800
     29 C2          1.5650    2.1160   -3.4730 c1        1 KAA      0.410300
     30 N1          0.8550    3.2720   -3.7590 n1        1 KAA     -0.606800
     31 C6         -0.4960    3.2910   -3.6190 c1        1 KAA      0.291800
     32 N6         -0.6890    4.6610   -3.5330 n3        1 KAA     -0.813400
     33 HNZ1       -1.6160    3.7800    1.3180 hn        1 KAA      0.346300
     34 HNZ2       -0.5170    4.1920    2.2670 hn        1 KAA      0.346300
     35 HE1        -1.1680    1.7040    1.4350 h1        1 KAA      0.052700
     36 HE2        -0.6320    1.8540    2.9560 h1        1 KAA      0.052700
     37 HD1         0.8740    2.9310    0.6820 hc        1 KAA      0.042700
     38 HD2         1.4090    2.7560    2.2050 hc        1 KAA      0.042700
     39 HG1         1.4450    0.8550    0.2460 hc        1 KAA      0.044700
     40 HG2         0.7620    0.2930    1.5420 hc        1 KAA      0.044700
     41 HB1         2.7600    1.1820    2.7310 hc        1 KAA      0.064700
     42 HB2         3.4500    1.1750    1.2510 hc        1 KAA      0.064700
     43 HA          3.9730   -0.8560    2.2030 h1        1 KAA      0.087700
     44 HN1         3.3450   -1.1360    0.1320 hn        1 KAA      0.372300
     45 HN2         2.7620   -2.2650    0.8760 hn        1 KAA      0.372300
     46 HN8         1.6630   -3.2510    2.5380 hn        1 KAA      0.362500
     47 H5'1       -1.9610   -1.2970    1.6570 h1        1 KAA      0.058200
     48 H5'2       -3.0270   -2.4670    1.9040 h1        1 KAA      0.058200
     49 H4'        -2.9890   -3.0150   -0.2640 h1        1 KAA      0.090700
     50 H3'        -0.2090   -2.8430    0.0710 h1        1 KAA      0.090700
     51 HO3'       -0.7020   -4.7000   -0.4280 ho        1 KAA      0.429000
     52 H2'         0.1360   -1.3850   -1.6070 h1        1 KAA      0.119700
     53 HO2'        0.6260   -2.8210   -3.1650 ho        1 KAA      0.426000
     54 H1'        -2.2310   -1.7440   -2.6680 h2        1 KAA      0.107700
     55 H8         -3.4390    0.1250   -2.4390 DU        1 KAA      0.209000
     56 H2          2.5440    2.1010   -3.5750 ha        1 KAA      0.136500
     57 HN61       -0.0320    5.2070   -3.7210 hn        1 KAA      0.446300
     58 HN62       -1.5230    4.9960   -3.3400 hn        1 KAA      0.446300
@<TRIPOS>BOND
     1    1    2 1   
     2    1   33 1   
     3    1   34 1   
     4    2    3 1   
     5    2   35 1   
     6    2   36 1   
     7    3    4 1   
     8    3   37 1   
     9    3   38 1   
    10    4    5 1   
    11    4   39 1   
    12    4   40 1   
    13    5    6 1   
    14    5   41 1   
    15    5   42 1   
    16    6    7 1   
    17    6    8 1   
    18    6   43 1   
    19    7   44 1   
    20    7   45 1   
    21    8    9 2   
    22    8   10 1   
    23   10   11 1   
    24   10   46 1   
    25   11   12 1   
    26   11   13 1   
    27   14   15 1   
    28   15   16 1   
    29   15   47 1   
    30   15   48 1   
    31   16   17 1   
    32   16   18 1   
    33   16   49 1   
    34   17   22 1   
    35   18   19 1   
    36   18   20 1   
    37   18   50 1   
    38   19   51 1   
    39   20   21 1   
    40   20   22 1   
    41   20   52 1   
    42   21   53 1   
    43   22   23 1   
    44   22   54 1   
    45   23   24 2   
    46   23   27 1   
    47   24   25 2   
    48   25   26 1   
    49   26   31 3   
    50   27   28 3   
    51   29   30 3   
    52   29   56 1   
    53   31   32 1   
    54   32   57 1   
    55   32   58 1   
@<TRIPOS>SUBSTRUCTURE
     1 KAA         1 TEMP              0 ****  ****    0 ROOT
