@<TRIPOS>MOLECULE
KAA
   58    60     1     0     0
SMALL
bcc


@<TRIPOS>ATOM
      1 NZ         -0.4230   10.9610    4.9750 n3        1 KAA     -0.916800
      2 CE         -0.4800    9.9260    3.9710 c3        1 KAA      0.159800
      3 CD         -1.8510    9.2570    3.8760 c3        1 KAA     -0.082400
      4 CG         -1.8560    8.2390    2.7530 c3        1 KAA     -0.085400
      5 CB         -3.1880    7.5220    2.6910 c3        1 KAA     -0.085400
      6 CA         -3.3780    6.7580    1.3700 c3        1 KAA      0.124500
      7 N          -4.7530    6.3720    1.1590 n3        1 KAA     -0.891800
      8 C          -2.4140    5.5460    1.3720 c         1 KAA      0.644100
      9 O          -2.7650    4.4290    1.7880 o         1 KAA     -0.586100
     10 N8         -1.1200    5.7150    0.8750 n         1 KAA     -0.689300
     11 S1          0.0260    4.5720    0.6210 s6        1 KAA      1.692100
     12 O1S         1.1890    5.2140    0.2220 o         1 KAA     -0.636300
     13 O2S        -0.4550    3.4640   -0.0560 o         1 KAA     -0.636300
     14 O5'         0.3860    3.9950    2.1510 os        1 KAA     -0.555500
     15 C5'        -0.2130    2.8360    2.6810 c3        1 KAA      0.154400
     16 C4'         0.4950    1.5710    2.1910 c3        1 KAA      0.054100
     17 O4'         1.9000    1.6440    2.4620 os        1 KAA     -0.383600
     18 C3'        -0.0570    0.3190    2.9080 c3        1 KAA      0.128100
     19 O3'        -0.2100   -0.7670    2.0220 oh        1 KAA     -0.550800
     20 C2'         1.0160   -0.0410    3.9610 c3        1 KAA      0.126100
     21 O2'         1.4170   -1.3790    3.8010 oh        1 KAA     -0.552800
     22 C1'         2.2200    0.9160    3.6490 c3        1 KAA      0.217800
     23 N9          2.5210    1.8320    4.7270 na        1 KAA     -0.296000
     24 C8          2.5560    3.2480    4.6990 cc        1 KAA      0.426700
     25 N7          2.9520    3.7930    5.8580 nd        1 KAA     -0.556100
     26 C5          3.2030    2.7070    6.7100 ca        1 KAA     -0.225200
     27 C4          2.9380    1.4550    6.0110 ca        1 KAA      0.446800
     28 N3          3.0870    0.2180    6.5760 nb        1 KAA     -0.754000
     29 C2          3.5220    0.2840    7.8560 ca        1 KAA      0.686900
     30 N1          3.8150    1.3640    8.6280 nb        1 KAA     -0.794000
     31 C6          3.6500    2.6110    8.0710 ca        1 KAA      0.756200
     32 N6          3.8710    3.7480    8.8060 nh        1 KAA     -0.953500
     33 HNZ1        0.5080   11.3190    5.0530 hn        1 KAA      0.351300
     34 HNZ2       -0.7210   10.6170    5.8660 hn        1 KAA      0.351300
     35 HE1         0.2920    9.1160    4.1370 h1        1 KAA      0.025700
     36 HE2        -0.2420   10.4090    2.9790 h1        1 KAA      0.025700
     37 HD1        -2.6410   10.0310    3.6900 hc        1 KAA      0.052700
     38 HD2        -2.0990    8.7490    4.8440 hc        1 KAA      0.052700
     39 HG1        -1.6510    8.7590    1.7800 hc        1 KAA      0.040700
     40 HG2        -1.0280    7.5030    2.9260 hc        1 KAA      0.040700
     41 HB1        -3.2800    6.8120    3.5540 hc        1 KAA      0.068700
     42 HB2        -4.0160    8.2760    2.7860 hc        1 KAA      0.068700
     43 HA         -3.0990    7.4400    0.5110 h1        1 KAA      0.079700
     44 HN1        -5.1050    5.8420    1.9330 hn        1 KAA      0.368800
     45 HN2        -4.8500    5.8390    0.3180 hn        1 KAA      0.368800
     46 HN8        -0.8820    6.6720    0.7060 hn        1 KAA      0.347500
     47 H5'1       -0.1050    2.9440    3.7960 h1        1 KAA      0.074700
     48 H5'2       -1.3010    2.7970    2.3960 h1        1 KAA      0.074700
     49 H4'         0.4240    1.4840    1.0700 h1        1 KAA      0.115700
     50 H3'        -1.0350    0.5450    3.4130 h1        1 KAA      0.053700
     51 HO3'       -0.8710   -0.4980    1.3690 ho        1 KAA      0.405000
     52 H2'         0.6040    0.1280    4.9930 h1        1 KAA      0.067700
     53 HO2'        1.9520   -1.5960    4.5780 ho        1 KAA      0.420000
     54 H1'         3.1510    0.3210    3.4020 h2        1 KAA      0.112700
     55 H8          2.2660    3.7910    3.7840 h5        1 KAA      0.102800
     56 H2          3.6670   -0.6960    8.3610 h5        1 KAA      0.051100
     57 HN61        3.8800    4.6170    8.3310 hn        1 KAA      0.444300
     58 HN62        4.2870    3.6860    9.7030 hn        1 KAA      0.444300
@<TRIPOS>BOND
     1    1    2 1   
     2    1   33 1   
     3    1   34 1   
     4    2    3 1   
     5    2   35 1   
     6    2   36 1   
     7    3    4 1   
     8    3   37 1   
     9    3   38 1   
    10    4    5 1   
    11    4   39 1   
    12    4   40 1   
    13    5    6 1   
    14    5   41 1   
    15    5   42 1   
    16    6    7 1   
    17    6    8 1   
    18    6   43 1   
    19    7   44 1   
    20    7   45 1   
    21    8    9 2   
    22    8   10 1   
    23   10   11 1   
    24   10   46 1   
    25   11   12 2   
    26   11   13 2   
    27   11   14 1   
    28   14   15 1   
    29   15   16 1   
    30   15   47 1   
    31   15   48 1   
    32   16   17 1   
    33   16   18 1   
    34   16   49 1   
    35   17   22 1   
    36   18   19 1   
    37   18   20 1   
    38   18   50 1   
    39   19   51 1   
    40   20   21 1   
    41   20   22 1   
    42   20   52 1   
    43   21   53 1   
    44   22   23 1   
    45   22   54 1   
    46   23   24 1   
    47   23   27 1   
    48   24   25 2   
    49   24   55 1   
    50   25   26 1   
    51   26   27 ar  
    52   26   31 ar  
    53   27   28 ar  
    54   28   29 ar  
    55   29   30 ar  
    56   29   56 1   
    57   30   31 ar  
    58   31   32 1   
    59   32   57 1   
    60   32   58 1   
@<TRIPOS>SUBSTRUCTURE
     1 KAA         1 TEMP              0 ****  ****    0 ROOT
