@<TRIPOS>MOLECULE
KAA
   58    60     1     0     0
SMALL
bcc


@<TRIPOS>ATOM
      1 NZ         -0.5530   -1.1010    3.4660 n3        1 KAA     -0.916800
      2 CE          0.8580   -1.1990    3.1800 c3        1 KAA      0.159800
      3 CD          1.6740   -0.0550    3.7800 c3        1 KAA     -0.081400
      4 CG          3.1470   -0.2630    3.4970 c3        1 KAA     -0.080400
      5 CB          3.9720    0.8570    4.0920 c3        1 KAA     -0.108400
      6 CA          5.4730    0.6460    3.8390 c3        1 KAA      0.104500
      7 N           6.3600    1.3430    4.7490 n3        1 KAA     -0.915800
      8 C           5.8060    1.0190    2.3790 c         1 KAA      0.700100
      9 O           4.9430    1.3810    1.5640 o         1 KAA     -0.580100
     10 N8          7.1330    0.9010    1.9620 n         1 KAA     -0.685300
     11 S1          7.7760    1.2840    0.5080 s6        1 KAA      1.696100
     12 O1S         9.1050    0.8880    0.4980 o         1 KAA     -0.638800
     13 O2S         7.4010    2.5380    0.0550 o         1 KAA     -0.638800
     14 O5'         7.0290    0.2350   -0.5670 os        1 KAA     -0.553500
     15 C5'         5.8980    0.6080   -1.3160 c3        1 KAA      0.157400
     16 C4'         6.2960    1.3810   -2.5740 c3        1 KAA      0.053100
     17 O4'         7.2210    0.6310   -3.3720 os        1 KAA     -0.392600
     18 C3'         5.0620    1.6800   -3.4500 c3        1 KAA      0.083100
     19 O3'         5.0270    3.0370   -3.8470 oh        1 KAA     -0.587800
     20 C2'         5.2430    0.8310   -4.7320 c3        1 KAA      0.132100
     21 O2'         5.4040    1.5960   -5.8960 oh        1 KAA     -0.558800
     22 C1'         6.5420   -0.0050   -4.4600 c3        1 KAA      0.216800
     23 N9          6.3000   -1.3950   -4.1410 na        1 KAA     -0.297000
     24 C8          6.7990   -2.1120   -3.0220 cc        1 KAA      0.419700
     25 N7          6.5300   -3.4240   -3.0640 nd        1 KAA     -0.553100
     26 C5          5.8350   -3.6180   -4.2680 ca        1 KAA     -0.228200
     27 C4          5.6890   -2.3480   -4.9710 ca        1 KAA      0.453800
     28 N3          5.0650   -2.2200   -6.1800 nb        1 KAA     -0.728000
     29 C2          4.6030   -3.4000   -6.6550 ca        1 KAA      0.681900
     30 N1          4.6670   -4.6480   -6.1180 nb        1 KAA     -0.793000
     31 C6          5.2790   -4.7830   -4.8950 ca        1 KAA      0.750200
     32 N6          5.3240   -5.9990   -4.2550 nh        1 KAA     -0.950500
     33 HNZ1       -0.9150   -0.2070    3.1990 hn        1 KAA      0.350300
     34 HNZ2       -1.0560   -1.8180    2.9820 hn        1 KAA      0.350300
     35 HE1         1.2210   -2.1730    3.6170 h1        1 KAA      0.025700
     36 HE2         1.0750   -1.2360    2.0700 h1        1 KAA      0.025700
     37 HD1         1.3420    0.9230    3.3440 hc        1 KAA      0.049200
     38 HD2         1.5030   -0.0050    4.8870 hc        1 KAA      0.049200
     39 HG1         3.4750   -1.2480    3.9230 hc        1 KAA      0.048700
     40 HG2         3.3180   -0.3000    2.3880 hc        1 KAA      0.048700
     41 HB1         3.7860    0.9040    5.1980 hc        1 KAA      0.058700
     42 HB2         3.6510    1.8370    3.6500 hc        1 KAA      0.058700
     43 HA          5.6940   -0.4630    3.9370 h1        1 KAA      0.084700
     44 HN1         6.2790    0.9600    5.6710 hn        1 KAA      0.367300
     45 HN2         6.1510    2.3210    4.7770 hn        1 KAA      0.367300
     46 HN8         7.7460    0.5440    2.6700 hn        1 KAA      0.360500
     47 H5'1        5.2100    1.2410   -0.6900 h1        1 KAA      0.076200
     48 H5'2        5.3960   -0.3630   -1.5830 h1        1 KAA      0.076200
     49 H4'         6.8550    2.3200   -2.2960 h1        1 KAA      0.112700
     50 H3'         4.1090    1.4090   -2.9230 h1        1 KAA      0.063700
     51 HO3'        4.9540    3.5660   -3.0420 ho        1 KAA      0.420000
     52 H2'         4.3470    0.1850   -4.9330 h1        1 KAA      0.117700
     53 HO2'        5.9920    2.3380   -5.6940 ho        1 KAA      0.421000
     54 H1'         7.2490    0.0570   -5.3410 h2        1 KAA      0.113700
     55 H8          7.3410   -1.5840   -2.2200 h5        1 KAA      0.102800
     56 H2          4.0940   -3.3470   -7.6420 h5        1 KAA      0.053100
     57 HN61        5.0660   -6.8200   -4.7460 hn        1 KAA      0.441300
     58 HN62        5.9190   -6.0840   -3.4680 hn        1 KAA      0.441300
@<TRIPOS>BOND
     1    1    2 1   
     2    1   33 1   
     3    1   34 1   
     4    2    3 1   
     5    2   35 1   
     6    2   36 1   
     7    3    4 1   
     8    3   37 1   
     9    3   38 1   
    10    4    5 1   
    11    4   39 1   
    12    4   40 1   
    13    5    6 1   
    14    5   41 1   
    15    5   42 1   
    16    6    7 1   
    17    6    8 1   
    18    6   43 1   
    19    7   44 1   
    20    7   45 1   
    21    8    9 2   
    22    8   10 1   
    23   10   11 1   
    24   10   46 1   
    25   11   12 2   
    26   11   13 2   
    27   11   14 1   
    28   14   15 1   
    29   15   16 1   
    30   15   47 1   
    31   15   48 1   
    32   16   17 1   
    33   16   18 1   
    34   16   49 1   
    35   17   22 1   
    36   18   19 1   
    37   18   20 1   
    38   18   50 1   
    39   19   51 1   
    40   20   21 1   
    41   20   22 1   
    42   20   52 1   
    43   21   53 1   
    44   22   23 1   
    45   22   54 1   
    46   23   24 1   
    47   23   27 1   
    48   24   25 2   
    49   24   55 1   
    50   25   26 1   
    51   26   27 ar  
    52   26   31 ar  
    53   27   28 ar  
    54   28   29 ar  
    55   29   30 ar  
    56   29   56 1   
    57   30   31 ar  
    58   31   32 1   
    59   32   57 1   
    60   32   58 1   
@<TRIPOS>SUBSTRUCTURE
     1 KAA         1 TEMP              0 ****  ****    0 ROOT
