@<TRIPOS>MOLECULE
KAA
   61    63     1     0     0
SMALL
bcc


@<TRIPOS>ATOM
      1 NZ          0.0000    0.0000    0.0000 nz        1 KAA      0.104400
      2 CE          1.4580    0.0000    0.0000 c3        1 KAA     -0.048200
      3 CD          1.9880    0.0000    1.4320 c3        1 KAA     -0.024400
      4 CG          3.5190   -0.0090    1.4550 c3        1 KAA     -0.009400
      5 CB          4.0550    0.0280    2.8910 c3        1 KAA     -0.020400
      6 CA          5.5880   -0.0070    2.9410 c3        1 KAA     -0.149500
      7 N           6.0620    0.0590    4.3240 nz        1 KAA      0.080400
      8 C           6.1880    1.1910    2.2230 c         1 KAA      0.410100
      9 O           5.6070    2.2660    2.1150 o         1 KAA     -0.294100
     10 N8          7.4990    0.9520    1.6970 ny        1 KAA     -0.106700
     11 S1          8.4230    2.1150    0.8400 s6        1 KAA      1.097400
     12 O1S         9.8210    1.7490    0.9760 o         1 KAA     -0.386300
     13 O2S         7.9700    3.4360    1.2370 o         1 KAA     -0.386300
     14 O5'         7.9860    1.8710   -0.7170 os        1 KAA     -0.345500
     15 C5'         6.6220    2.0290   -1.0810 c3        1 KAA      0.242400
     16 C4'         6.4710    1.7500   -2.5700 c3        1 KAA      0.143100
     17 O4'         6.8620    0.3800   -2.8190 os        1 KAA     -0.379600
     18 C3'         5.0310    1.8850   -3.0550 c3        1 KAA      0.136100
     19 O3'         5.0430    2.2100   -4.4450 oh        1 KAA     -0.518800
     20 C2'         4.4960    0.4780   -2.8710 c3        1 KAA      0.140100
     21 O2'         3.3790    0.1990   -3.6910 oh        1 KAA     -0.512800
     22 C1'         5.7060   -0.3590   -3.2570 c3        1 KAA      0.157800
     23 N9          5.7200   -1.6940   -2.6620 na        1 KAA      0.182000
     24 C8          6.2140   -2.0220   -1.4260 cc        1 KAA      0.177700
     25 N7          6.0880   -3.3060   -1.1650 nd        1 KAA     -0.473100
     26 C5          5.4880   -3.8350   -2.2800 ca        1 KAA     -0.251200
     27 C4          5.2510   -2.8480   -3.2240 ca        1 KAA      0.303800
     28 N3          4.6820   -2.9980   -4.4290 nb        1 KAA     -0.667000
     29 C2          4.3440   -4.2900   -4.6350 ca        1 KAA      0.724900
     30 N1          4.5130   -5.3540   -3.8120 nb        1 KAA     -0.683000
     31 C6          5.0960   -5.1280   -2.6100 ca        1 KAA      0.591200
     32 N6          5.2990   -6.1910   -1.7130 nv        1 KAA     -0.471500
     33 HNZ1       -0.3340   -0.8090    0.4860 hn        1 KAA      0.235800
     34 HNZ2       -0.3340    0.8250    0.4570 hn        1 KAA      0.235800
     35 HE1         1.8160   -0.8840   -0.5140 hx        1 KAA      0.086200
     36 HE2         1.8160    0.8840   -0.5140 hx        1 KAA      0.086200
     37 HD1         1.6310    0.8860    1.9430 hc        1 KAA      0.047700
     38 HD2         1.6200   -0.8790    1.9470 hc        1 KAA      0.047700
     39 HG1         3.8750   -0.9090    0.9670 hc        1 KAA      0.031700
     40 HG2         3.8870    0.8560    0.9160 hc        1 KAA      0.031700
     41 HB1         3.6670   -0.8260    3.4330 hc        1 KAA      0.067200
     42 HB2         3.7090    0.9360    3.3710 hc        1 KAA      0.067200
     43 HA          5.9440   -0.9210    2.4800 hx        1 KAA      0.116700
     44 HN1         6.4070    0.9790    4.5150 hn        1 KAA      0.250467
     45 HN2         6.7960   -0.6080    4.4580 hn        1 KAA      0.250467
     46 HN8         8.0610    0.6800    2.4790 hn        1 KAA      0.350300
     47 H5'1        6.0130    1.3320   -0.5180 h1        1 KAA     -0.009300
     48 H5'2        6.3050    3.0420   -0.8670 h1        1 KAA     -0.009300
     49 H4'         7.1080    2.4180   -3.1370 h1        1 KAA      0.096700
     50 H3'         4.4760    2.6060   -2.4680 h1        1 KAA      0.005700
     51 HO3'        4.7750    3.1070   -4.5610 ho        1 KAA      0.417000
     52 H2'         4.2500    0.3110   -1.8290 h1        1 KAA     -0.043300
     53 HO2'        2.7220    0.8630   -3.5640 ho        1 KAA      0.387000
     54 H1'         5.7380   -0.4510   -4.3360 h2        1 KAA      0.116700
     55 H8          6.6570   -1.3070   -0.7430 h5        1 KAA     -0.043200
     56 H2          3.8760   -4.5050   -5.5880 h5        1 KAA      0.007100
     57 HN61        5.3400   -6.0140   -0.7280 hn        1 KAA      0.284300
     58 HN62        5.4540   -7.1170   -2.0610 hn        1 KAA      0.284300
     59 HZ3        -0.3340   -0.0170   -0.9430 hn        1 KAA      0.235800
     60 HN3         5.3050   -0.1480    4.9460 hn        1 KAA      0.250467
     61 H82         7.4070    0.1700    1.0800 hn        1 KAA      0.350300
@<TRIPOS>BOND
     1    1    2 1   
     2    1   33 1   
     3    1   34 1   
     4    1   59 1   
     5    2    3 1   
     6    2   35 1   
     7    2   36 1   
     8    3    4 1   
     9    3   37 1   
    10    3   38 1   
    11    4    5 1   
    12    4   39 1   
    13    4   40 1   
    14    5    6 1   
    15    5   41 1   
    16    5   42 1   
    17    6    7 1   
    18    6    8 1   
    19    6   43 1   
    20    7   44 1   
    21    7   45 1   
    22    7   60 1   
    23    8    9 2   
    24    8   10 1   
    25   10   11 1   
    26   10   46 1   
    27   10   61 1   
    28   11   12 2   
    29   11   13 2   
    30   11   14 1   
    31   14   15 1   
    32   15   16 1   
    33   15   47 1   
    34   15   48 1   
    35   16   17 1   
    36   16   18 1   
    37   16   49 1   
    38   17   22 1   
    39   18   19 1   
    40   18   20 1   
    41   18   50 1   
    42   19   51 1   
    43   20   21 1   
    44   20   22 1   
    45   20   52 1   
    46   21   53 1   
    47   22   23 1   
    48   22   54 1   
    49   23   24 1   
    50   23   27 1   
    51   24   25 2   
    52   24   55 1   
    53   25   26 1   
    54   26   27 ar  
    55   26   31 ar  
    56   27   28 ar  
    57   28   29 ar  
    58   29   30 ar  
    59   29   56 1   
    60   30   31 ar  
    61   31   32 1   
    62   32   57 1   
    63   32   58 1   
@<TRIPOS>SUBSTRUCTURE
     1 KAA         1 TEMP              0 ****  ****    0 ROOT
