@<TRIPOS>MOLECULE
KAF
   65    60     1     0     0
SMALL
bcc


@<TRIPOS>ATOM
      1 CD1        -4.6420   -3.9780    1.8640 c1        1 KAF     -0.120000
      2 CE1        -5.9780   -3.5770    1.8030 c1        1 KAF     -0.137875
      3 CZ         -6.5500   -2.8740    2.8770 c1        1 KAF     -0.137875
      4 CE2        -5.7870   -2.5780    3.9980 c1        1 KAF     -0.137875
      5 CD2        -4.4570   -2.9770    4.0600 c1        1 KAF     -0.137875
      6 CG         -3.8810   -3.6810    2.9860 c1        1 KAF     -0.055000
      7 CB         -2.3850   -4.0780    3.0390 c3        1 KAF     -0.112000
      8 CA         -1.6490   -3.3970    1.9650 c3        1 KAF     -0.066000
      9 C          -2.2250   -2.0060    1.7550 c2        1 KAF      0.320000
     10 OXT        -2.6760   -1.6850    0.6330 o         1 KAF     -0.591000
     11 O          -2.3990   -1.2510    2.7330 o         1 KAF     -0.591000
     12 N          -0.2530   -3.2920    2.3380 n         1 KAF     -0.320000
     13 CBC         0.7610   -3.1750    1.3130 c2        1 KAF      0.284000
     14 OAA         0.7990   -3.9800    0.4100 o         1 KAF     -0.371000
     15 CAV         1.9320   -2.1370    1.4870 c3        1 KAF     -0.183000
     16 CAW         1.9470   -1.1680    0.2880 c3        1 KAF     -0.181000
     17 CBM         2.2630    0.2570    0.7850 c3        1 KAF      0.206000
     18 OAE         1.1550    0.7680    1.4470 oh        1 KAF     -0.373000
     19 OAF         3.3590    0.2100    1.6680 oh        1 KAF     -0.373000
     20 CBL         2.6080    1.1670   -0.4160 c3        1 KAF     -0.011000
     21 CAX         2.5220    2.6340    0.0100 c3        1 KAF     -0.136000
     22 CBF         3.4710    3.4870   -0.8640 c2        1 KAF     -0.054000
     23 CAO         3.1890    3.6820   -2.2120 c2        1 KAF     -0.124000
     24 CAI         4.0160    4.4600   -2.9790 c1        1 KAF     -0.135000
     25 CAG         5.1400    5.0570   -2.4090 c1        1 KAF     -0.137875
     26 CAJ         5.4190    4.8660   -1.0810 c1        1 KAF     -0.137875
     27 CAP         4.5790    4.0750   -0.3010 c1        1 KAF     -0.128000
     28 NBA         1.6950    0.9350   -1.4600 n         1 KAF     -0.370000
     29 CBE         0.3950    1.6170   -1.4600 c2        1 KAF      0.348000
     30 OAC        -0.0320    2.1090   -0.4310 o         1 KAF     -0.403000
     31 CBG        -0.4900    1.6070   -2.7350 c2        1 KAF     -0.129000
     32 CAR        -0.9240    2.8260   -3.2920 c2        1 KAF     -0.090000
     33 CAL        -1.5820    2.8350   -4.5080 c1        1 KAF     -0.165000
     34 CAH        -1.8160    1.6410   -5.1840 c1        1 KAF     -0.137875
     35 CAK        -1.3850    0.4290   -4.6330 c1        1 KAF     -0.137875
     36 CAQ        -0.7220    0.4170   -3.4080 c1        1 KAF     -0.084000
     37 HD1        -4.2380   -4.4750    1.1080 ha        1 KAF      0.194000
     38 HE1        -6.5370   -3.8170    1.0070 ha        1 KAF      0.122125
     39 HZ         -7.4610   -2.6160    2.8440 ha        1 KAF      0.122125
     40 HE2        -6.1960   -2.0770    4.7640 ha        1 KAF      0.122125
     41 HD2        -3.9020   -2.7610    4.8790 ha        1 KAF      0.122125
     42 HB         -2.0030   -3.8110    3.9210 hc        1 KAF      0.091000
     43 HBA        -2.2980   -5.0730    2.9240 hc        1 KAF      0.091000
     44 HA         -1.7310   -3.9230    1.1200 h1        1 KAF      0.130000
     45 HN         -0.0020   -3.4280    3.2200 hn        1 KAF      0.205000
     46 HAV         2.7630   -2.6020    1.5280 hc        1 KAF      0.106000
     47 HAVA        1.8030   -1.6360    2.3040 hc        1 KAF      0.106000
     48 HAW         1.0910   -1.1740   -0.1360 hc        1 KAF      0.117500
     49 HAWA        2.6450   -1.4570   -0.3640 hc        1 KAF      0.117500
     50 HOAE        1.2340    0.6130    2.3290 ho        1 KAF      0.247500
     51 HOAF        3.5410    1.0310    1.9600 ho        1 KAF      0.247500
     52 HBL         3.5610    0.9600   -0.7390 h1        1 KAF      0.141000
     53 HAX         2.7770    2.7140    0.9380 hc        1 KAF      0.098000
     54 HAXA        1.5830    2.9590   -0.1060 hc        1 KAF      0.098000
     55 HAO         2.4010    3.2650   -2.6120 ha        1 KAF      0.130000
     56 HAI         3.8090    4.6040   -3.9700 ha        1 KAF      0.120000
     57 HAG         5.7280    5.6110   -2.9570 ha        1 KAF      0.122125
     58 HAJ         6.1740    5.3240   -0.6720 ha        1 KAF      0.122125
     59 HAP         4.7740    3.9380    0.6410 ha        1 KAF      0.152000
     60 HNBA        1.9300    0.4240   -2.1500 hn        1 KAF      0.272000
     61 HAR        -0.7600    3.6800   -2.8110 ha        1 KAF      0.143000
     62 HAL        -1.8690    3.7040   -4.9130 ha        1 KAF      0.117000
     63 HAH        -2.2740    1.6500   -6.0310 ha        1 KAF      0.122125
     64 HAK        -1.5490   -0.4050   -5.1040 ha        1 KAF      0.122125
     65 HAQ        -0.4100   -0.4660   -3.0040 ha        1 KAF      0.213000
@<TRIPOS>BOND
     1    1    6 1   
     2    1   37 1   
     3    2    3 1   
     4    2   38 1   
     5    3   39 1   
     6    4    5 1   
     7    4   40 1   
     8    5   41 1   
     9    6    7 1   
    10    7    8 1   
    11    7   42 1   
    12    7   43 1   
    13    8    9 1   
    14    8   12 1   
    15    8   44 1   
    16    9   10 1   
    17    9   11 1   
    18   12   13 1   
    19   12   45 1   
    20   13   14 1   
    21   13   15 1   
    22   15   16 1   
    23   15   46 1   
    24   15   47 1   
    25   16   17 1   
    26   16   48 1   
    27   16   49 1   
    28   17   18 1   
    29   17   19 1   
    30   17   20 1   
    31   18   50 1   
    32   19   51 1   
    33   20   21 1   
    34   20   28 1   
    35   20   52 1   
    36   21   22 1   
    37   21   53 1   
    38   21   54 1   
    39   22   23 1   
    40   22   27 1   
    41   23   24 1   
    42   23   55 1   
    43   24   56 1   
    44   25   26 1   
    45   25   57 1   
    46   26   58 1   
    47   27   59 1   
    48   28   29 1   
    49   28   60 1   
    50   29   30 1   
    51   29   31 1   
    52   31   32 1   
    53   31   36 1   
    54   32   33 1   
    55   32   61 1   
    56   33   62 1   
    57   34   35 1   
    58   34   63 1   
    59   35   64 1   
    60   36   65 1   
@<TRIPOS>SUBSTRUCTURE
     1 KAF         1 TEMP              0 ****  ****    0 ROOT
