@<TRIPOS>MOLECULE
KAF
   67    69     1     0     0
SMALL
bcc


@<TRIPOS>ATOM
      1 CD1        -2.2240    1.9490    0.3510 ca        1 KAF     -0.135000
      2 CE1        -1.9650    0.8350   -0.4470 ca        1 KAF     -0.116500
      3 CZ         -2.0870   -0.4500    0.0830 ca        1 KAF     -0.109000
      4 CE2        -2.4750   -0.6200    1.4120 ca        1 KAF     -0.116500
      5 CD2        -2.7330    0.4920    2.2120 ca        1 KAF     -0.135000
      6 CG         -2.6060    1.7840    1.6870 ca        1 KAF     -0.139300
      7 CB         -2.8960    2.9700    2.5370 c3        1 KAF     -0.048100
      8 CA         -1.6250    3.5830    3.1240 c3        1 KAF      0.003500
      9 C          -2.0170    4.7570    4.0740 c         1 KAF      0.904600
     10 OXT        -2.0040    5.9230    3.6090 o         1 KAF     -0.808300
     11 O          -2.2390    4.4710    5.2860 o         1 KAF     -0.808300
     12 N          -0.8320    2.5660    3.9070 n4        1 KAF     -0.669800
     13 CBC         0.5900    3.0000    4.1170 c         1 KAF      0.552100
     14 OAA         1.4320    2.4220    3.4420 o         1 KAF     -0.428100
     15 CAV         0.8410    4.0740    5.1430 c3        1 KAF     -0.157400
     16 CAW         1.0180    5.4190    4.4610 c3        1 KAF     -0.131400
     17 CBM         0.6830    6.6090    5.3740 c3        1 KAF      0.358600
     18 OAE        -0.2680    6.3390    6.3720 oh        1 KAF     -0.632300
     19 OAF         1.7880    7.0250    6.1460 oh        1 KAF     -0.632300
     20 CBL         0.2620    7.8330    4.4870 c3        1 KAF      0.098500
     21 CAX         1.4790    8.3160    3.6850 c3        1 KAF     -0.050100
     22 CBF         1.2380    9.5970    2.9690 ca        1 KAF     -0.145300
     23 CAO         0.5190    9.6150    1.7690 ca        1 KAF     -0.126000
     24 CAI         1.5750   11.9890    2.7900 ca        1 KAF     -0.117000
     25 CAG         0.8520   12.0040    1.5970 ca        1 KAF     -0.104000
     26 CAJ         0.3250   10.8160    1.0870 ca        1 KAF     -0.117000
     27 CAP         1.7690   10.7910    3.4750 ca        1 KAF     -0.126000
     28 NBA        -0.3280    8.9230    5.3400 n4        1 KAF     -0.676800
     29 CBE        -1.8270    9.1030    5.1070 c         1 KAF      0.591700
     30 OAC        -2.1550    9.5500    4.0240 o         1 KAF     -0.391100
     31 CBG        -2.6600    8.7240    6.2580 ca        1 KAF     -0.203600
     32 CAR        -2.8330    9.6290    7.3140 ca        1 KAF     -0.080000
     33 CAL        -3.6760    9.2900    8.3690 ca        1 KAF     -0.121500
     34 CAH        -4.3360    8.0580    8.3710 ca        1 KAF     -0.077000
     35 CAK        -4.1540    7.1610    7.3200 ca        1 KAF     -0.121500
     36 CAQ        -3.3130    7.4860    6.2530 ca        1 KAF     -0.080000
     37 HD1        -2.1410    2.9610   -0.0750 ha        1 KAF      0.135000
     38 HE1        -1.6710    0.9710   -1.5000 ha        1 KAF      0.148000
     39 HZ         -1.8880   -1.3280   -0.5500 ha        1 KAF      0.150000
     40 HE2        -2.5880   -1.6330    1.8270 ha        1 KAF      0.148000
     41 HD2        -3.0770    0.3500    3.2480 ha        1 KAF      0.135000
     42 HB         -3.6060    2.7010    3.3650 hc        1 KAF      0.095200
     43 HBA        -3.3870    3.7800    1.9290 hc        1 KAF      0.095200
     44 HA         -0.9670    3.9620    2.2920 hx        1 KAF      0.101700
     45 HN         -1.2990    2.4790    4.8260 hn        1 KAF      0.470300
     46 HAV         1.7800    3.7930    5.6960 hc        1 KAF      0.119200
     47 HAVA       -0.0020    4.1190    5.8920 hc        1 KAF      0.119200
     48 HAW         0.3530    5.4760    3.5560 hc        1 KAF      0.091200
     49 HAWA        2.0830    5.5350    4.1220 hc        1 KAF      0.091200
     50 HOAE       -1.0960    6.0120    5.9730 ho        1 KAF      0.465500
     51 HOAF        1.8390    6.4600    6.9320 ho        1 KAF      0.465500
     52 HBL        -0.5530    7.4880    3.7730 hx        1 KAF      0.158700
     53 HAX         1.7180    7.5060    2.9420 hc        1 KAF      0.087700
     54 HAXA        2.3650    8.4140    4.3710 hc        1 KAF      0.087700
     55 HAO         0.1040    8.6800    1.3620 ha        1 KAF      0.136000
     56 HAI         2.0020   12.9230    3.1860 ha        1 KAF      0.149500
     57 HAG         0.7020   12.9500    1.0540 ha        1 KAF      0.151000
     58 HAJ        -0.2420   10.8250    0.1430 ha        1 KAF      0.149500
     59 HAP         2.3720   10.7810    4.3960 ha        1 KAF      0.136000
     60 HNBA        0.1530    9.8060    5.1200 hn        1 KAF      0.463800
     61 HAR        -2.3290   10.6070    7.3050 ha        1 KAF      0.167000
     62 HAL        -3.8260    9.9980    9.1990 ha        1 KAF      0.160500
     63 HAH        -5.0050    7.7980    9.2080 ha        1 KAF      0.156000
     64 HAK        -4.6700    6.1870    7.3220 ha        1 KAF      0.160500
     65 HAQ        -3.1660    6.7670    5.4220 ha        1 KAF      0.167000
     66 H2         -0.8610    1.6640    3.4100 hn        1 KAF      0.470300
     67 HBA2       -0.1700    8.6850    6.3290 hn        1 KAF      0.463800
@<TRIPOS>BOND
     1    1    2 ar  
     2    1    6 ar  
     3    1   37 1   
     4    2    3 ar  
     5    2   38 1   
     6    3    4 ar  
     7    3   39 1   
     8    4    5 ar  
     9    4   40 1   
    10    5    6 ar  
    11    5   41 1   
    12    6    7 1   
    13    7    8 1   
    14    7   42 1   
    15    7   43 1   
    16    8    9 1   
    17    8   12 1   
    18    8   44 1   
    19    9   10 1   
    20    9   11 1   
    21   12   13 1   
    22   12   45 1   
    23   12   66 1   
    24   13   14 2   
    25   13   15 1   
    26   15   16 1   
    27   15   46 1   
    28   15   47 1   
    29   16   17 1   
    30   16   48 1   
    31   16   49 1   
    32   17   18 1   
    33   17   19 1   
    34   17   20 1   
    35   18   50 1   
    36   19   51 1   
    37   20   21 1   
    38   20   28 1   
    39   20   52 1   
    40   21   22 1   
    41   21   53 1   
    42   21   54 1   
    43   22   23 ar  
    44   22   27 ar  
    45   23   26 ar  
    46   23   55 1   
    47   24   25 ar  
    48   24   27 ar  
    49   24   56 1   
    50   25   26 ar  
    51   25   57 1   
    52   26   58 1   
    53   27   59 1   
    54   28   29 1   
    55   28   60 1   
    56   28   67 1   
    57   29   30 2   
    58   29   31 1   
    59   31   32 ar  
    60   31   36 ar  
    61   32   33 ar  
    62   32   61 1   
    63   33   34 ar  
    64   33   62 1   
    65   34   35 ar  
    66   34   63 1   
    67   35   36 ar  
    68   35   64 1   
    69   36   65 1   
@<TRIPOS>SUBSTRUCTURE
     1 KAF         1 TEMP              0 ****  ****    0 ROOT
