@<TRIPOS>MOLECULE
KAF
   67    69     1     0     0
SMALL
bcc


@<TRIPOS>ATOM
      1 CD1        -2.1900    1.9330    0.3620 ca        1 KAF     -0.135000
      2 CE1        -1.9230    0.8320   -0.4510 ca        1 KAF     -0.116500
      3 CZ         -2.0000   -0.4600    0.0720 ca        1 KAF     -0.109000
      4 CE2        -2.3510   -0.6490    1.4090 ca        1 KAF     -0.116500
      5 CD2        -2.6170    0.4500    2.2240 ca        1 KAF     -0.135000
      6 CG         -2.5350    1.7480    1.7060 ca        1 KAF     -0.139300
      7 CB         -2.8340    2.9200    2.5720 c3        1 KAF     -0.048100
      8 CA         -1.5650    3.5610    3.1330 c3        1 KAF      0.003500
      9 C          -1.9620    4.7170    4.1020 c         1 KAF      0.904600
     10 OXT        -1.9900    5.8870    3.6460 o         1 KAF     -0.808300
     11 O          -2.1470    4.4160    5.3160 o         1 KAF     -0.808300
     12 N          -0.7270    2.5580    3.8870 n4        1 KAF     -0.669800
     13 CBC         0.6890    3.0260    4.0660 c         1 KAF      0.552100
     14 OAA         1.5280    2.4750    3.3660 o         1 KAF     -0.428100
     15 CAV         0.9380    4.0990    5.0950 c3        1 KAF     -0.157400
     16 CAW         1.0650    5.4530    4.4200 c3        1 KAF     -0.131400
     17 CBM         0.7220    6.6270    5.3510 c3        1 KAF      0.358600
     18 OAE        -0.1970    6.3240    6.3690 oh        1 KAF     -0.632300
     19 OAF         1.8350    7.0640    6.0990 oh        1 KAF     -0.632300
     20 CBL         0.2480    7.8470    4.4840 c3        1 KAF      0.098500
     21 CAX         1.4330    8.3670    3.6560 c3        1 KAF     -0.050100
     22 CBF         1.1420    9.6460    2.9580 ca        1 KAF     -0.145300
     23 CAO         0.3920    9.6550    1.7760 ca        1 KAF     -0.126000
     24 CAI         1.4140   12.0470    2.7900 ca        1 KAF     -0.117000
     25 CAG         0.6610   12.0530    1.6150 ca        1 KAF     -0.104000
     26 CAJ         0.1520   10.8560    1.1090 ca        1 KAF     -0.117000
     27 CAP         1.6550   10.8490    3.4600 ca        1 KAF     -0.126000
     28 NBA        -0.3470    8.9140    5.3610 n4        1 KAF     -0.676800
     29 CBE        -1.8550    9.0580    5.1670 c         1 KAF      0.591700
     30 OAC        -2.2210    9.5050    4.0960 o         1 KAF     -0.391100
     31 CBG        -2.6500    8.6490    6.3340 ca        1 KAF     -0.203600
     32 CAR        -2.8190    9.5410    7.4020 ca        1 KAF     -0.080000
     33 CAL        -3.6270    9.1720    8.4750 ca        1 KAF     -0.121500
     34 CAH        -4.2560    7.9240    8.4830 ca        1 KAF     -0.077000
     35 CAK        -4.0770    7.0400    7.4200 ca        1 KAF     -0.121500
     36 CAQ        -3.2720    7.3950    6.3350 ca        1 KAF     -0.080000
     37 HD1        -2.1430    2.9500   -0.0570 ha        1 KAF      0.135000
     38 HE1        -1.6590    0.9830   -1.5090 ha        1 KAF      0.148000
     39 HZ         -1.7950   -1.3290   -0.5730 ha        1 KAF      0.150000
     40 HE2        -2.4290   -1.6690    1.8180 ha        1 KAF      0.148000
     41 HD2        -2.9320    0.2910    3.2670 ha        1 KAF      0.135000
     42 HB         -3.3590    3.7220    1.9820 hc        1 KAF      0.095200
     43 HBA        -3.5160    2.6270    3.4150 hc        1 KAF      0.095200
     44 HA         -0.9370    3.9630    2.2870 hx        1 KAF      0.101700
     45 HN         -1.1690    2.4530    4.8170 hn        1 KAF      0.470300
     46 HAV         0.1130    4.1170    5.8640 hc        1 KAF      0.119200
     47 HAVA        1.8970    3.8370    5.6220 hc        1 KAF      0.119200
     48 HAW         0.3760    5.4990    3.5320 hc        1 KAF      0.091200
     49 HAWA        2.1170    5.5980    4.0560 hc        1 KAF      0.091200
     50 HOAE       -1.0260    5.9800    5.9880 ho        1 KAF      0.465500
     51 HOAF        1.9190    6.4950    6.8790 ho        1 KAF      0.465500
     52 HBL        -0.5760    7.4870    3.7880 hx        1 KAF      0.158700
     53 HAX         1.6730    7.5680    2.9020 hc        1 KAF      0.087700
     54 HAXA        2.3330    8.4820    4.3220 hc        1 KAF      0.087700
     55 HAO        -0.0090    8.7130    1.3720 ha        1 KAF      0.136000
     56 HAI         1.8270   12.9890    3.1830 ha        1 KAF      0.149500
     57 HAG         0.4740   12.9990    1.0850 ha        1 KAF      0.151000
     58 HAJ        -0.4390   10.8570    0.1800 ha        1 KAF      0.149500
     59 HAP         2.2800   10.8480    4.3660 ha        1 KAF      0.136000
     60 HNBA        0.1060    9.8110    5.1370 hn        1 KAF      0.463800
     61 HAR        -2.3400   10.5310    7.3890 ha        1 KAF      0.167000
     62 HAL        -3.7730    9.8700    9.3150 ha        1 KAF      0.160500
     63 HAH        -4.8960    7.6400    9.3340 ha        1 KAF      0.156000
     64 HAK        -4.5680    6.0540    7.4250 ha        1 KAF      0.160500
     65 HAQ        -3.1270    6.6870    5.4940 ha        1 KAF      0.167000
     66 H2         -0.7460    1.6590    3.3850 hn        1 KAF      0.470300
     67 HBA2       -0.1580    8.6730    6.3440 hn        1 KAF      0.463800
@<TRIPOS>BOND
     1    1    2 ar  
     2    1    6 ar  
     3    1   37 1   
     4    2    3 ar  
     5    2   38 1   
     6    3    4 ar  
     7    3   39 1   
     8    4    5 ar  
     9    4   40 1   
    10    5    6 ar  
    11    5   41 1   
    12    6    7 1   
    13    7    8 1   
    14    7   42 1   
    15    7   43 1   
    16    8    9 1   
    17    8   12 1   
    18    8   44 1   
    19    9   10 1   
    20    9   11 1   
    21   12   13 1   
    22   12   45 1   
    23   12   66 1   
    24   13   14 2   
    25   13   15 1   
    26   15   16 1   
    27   15   46 1   
    28   15   47 1   
    29   16   17 1   
    30   16   48 1   
    31   16   49 1   
    32   17   18 1   
    33   17   19 1   
    34   17   20 1   
    35   18   50 1   
    36   19   51 1   
    37   20   21 1   
    38   20   28 1   
    39   20   52 1   
    40   21   22 1   
    41   21   53 1   
    42   21   54 1   
    43   22   23 ar  
    44   22   27 ar  
    45   23   26 ar  
    46   23   55 1   
    47   24   25 ar  
    48   24   27 ar  
    49   24   56 1   
    50   25   26 ar  
    51   25   57 1   
    52   26   58 1   
    53   27   59 1   
    54   28   29 1   
    55   28   60 1   
    56   28   67 1   
    57   29   30 2   
    58   29   31 1   
    59   31   32 ar  
    60   31   36 ar  
    61   32   33 ar  
    62   32   61 1   
    63   33   34 ar  
    64   33   62 1   
    65   34   35 ar  
    66   34   63 1   
    67   35   36 ar  
    68   35   64 1   
    69   36   65 1   
@<TRIPOS>SUBSTRUCTURE
     1 KAF         1 TEMP              0 ****  ****    0 ROOT
