@<TRIPOS>MOLECULE
KAF
   67    69     1     0     0
SMALL
bcc


@<TRIPOS>ATOM
      1 CD1        -1.7710    1.4050   -0.1720 ca        1 KAF     -0.136500
      2 CE1        -1.3660    0.4190   -1.0710 ca        1 KAF     -0.117500
      3 CZ         -1.1980   -0.8970   -0.6390 ca        1 KAF     -0.111000
      4 CE2        -1.4410   -1.2280    0.6950 ca        1 KAF     -0.117500
      5 CD2        -1.8450   -0.2440    1.5960 ca        1 KAF     -0.136500
      6 CG         -2.0100    1.0800    1.1680 ca        1 KAF     -0.135300
      7 CB         -2.4530    2.1270    2.1270 c3        1 KAF     -0.049100
      8 CA         -1.2820    2.9300    2.6880 c3        1 KAF     -0.006500
      9 C          -1.8150    3.9370    3.7650 c         1 KAF      0.910600
     10 OXT        -2.0210    5.1150    3.3950 o         1 KAF     -0.796800
     11 O          -1.8960    3.5020    4.9500 o         1 KAF     -0.796800
     12 N          -0.2560    2.0310    3.3350 ny        1 KAF     -0.666800
     13 CBC         1.0470    2.7410    3.5540 c         1 KAF      0.554100
     14 OAA         1.9440    2.4770    2.7630 o         1 KAF     -0.434100
     15 CAV         1.1350    3.6820    4.7280 c3        1 KAF     -0.156400
     16 CAW         0.9880    5.1200    4.2650 c3        1 KAF     -0.131400
     17 CBM         0.4970    6.0580    5.3750 c3        1 KAF      0.356600
     18 OAE        -0.3270    5.4680    6.3480 oh        1 KAF     -0.643300
     19 OAF         1.5610    6.5480    6.1670 oh        1 KAF     -0.643300
     20 CBL        -0.2200    7.3060    4.7480 c3        1 KAF      0.091500
     21 CAX         0.7340    8.0270    3.7890 c3        1 KAF     -0.049100
     22 CBF         0.2590    9.3780    3.3890 ca        1 KAF     -0.144300
     23 CAO        -0.7240    9.5190    2.4020 ca        1 KAF     -0.129000
     24 CAI         0.4130   11.7890    3.5650 ca        1 KAF     -0.120500
     25 CAG        -0.5700   11.9250    2.5830 ca        1 KAF     -0.109000
     26 CAJ        -1.1360   10.7900    2.0030 ca        1 KAF     -0.120500
     27 CAP         0.8270   10.5200    3.9670 ca        1 KAF     -0.129000
     28 NBA        -0.6970    8.2070    5.8530 ny        1 KAF     -0.659800
     29 CBE        -2.1440    8.6500    5.7780 c         1 KAF      0.565700
     30 OAC        -2.8450    8.1640    4.9040 o         1 KAF     -0.398100
     31 CBG        -2.5400    9.6540    6.7740 ca        1 KAF     -0.197600
     32 CAR        -1.8830    9.8270    8.0020 ca        1 KAF     -0.071000
     33 CAL        -2.3380   10.7900    8.8980 ca        1 KAF     -0.125500
     34 CAH        -3.4440   11.5840    8.5800 ca        1 KAF     -0.062000
     35 CAK        -4.1030   11.4080    7.3640 ca        1 KAF     -0.125500
     36 CAQ        -3.6600   10.4430    6.4610 ca        1 KAF     -0.071000
     37 HD1        -1.9170    2.4390   -0.5190 ha        1 KAF      0.135500
     38 HE1        -1.1860    0.6790   -2.1260 ha        1 KAF      0.147000
     39 HZ         -0.8840   -1.6760   -1.3510 ha        1 KAF      0.149000
     40 HE2        -1.3250   -2.2680    1.0340 ha        1 KAF      0.147000
     41 HD2        -2.0730   -0.5180    2.6370 ha        1 KAF      0.135500
     42 HB         -3.1290    2.8690    1.6170 hc        1 KAF      0.095700
     43 HBA        -3.0390    1.6710    2.9710 hc        1 KAF      0.095700
     44 HA         -0.7680    3.4900    1.8580 hx        1 KAF      0.099700
     45 HN         -0.1190    1.1980    2.7460 hn        1 KAF      0.469300
     46 HAV         2.1440    3.5270    5.2000 hc        1 KAF      0.117200
     47 HAVA        0.3470    3.4370    5.4980 hc        1 KAF      0.117200
     48 HAW         0.2590    5.1770    3.4100 hc        1 KAF      0.095200
     49 HAWA        1.9790    5.5060    3.9030 hc        1 KAF      0.095200
     50 HOAE       -1.0880    5.0250    5.9210 ho        1 KAF      0.471500
     51 HOAF        1.8090    5.8550    6.7970 ho        1 KAF      0.471500
     52 HBL        -1.1330    6.9190    4.1810 hx        1 KAF      0.183700
     53 HAX         1.7520    8.0970    4.2640 hc        1 KAF      0.086200
     54 HAXA        0.8300    7.3780    2.8750 hc        1 KAF      0.086200
     55 HAO        -1.1690    8.6240    1.9380 ha        1 KAF      0.141000
     56 HAI         0.8710   12.6840    4.0140 ha        1 KAF      0.149000
     57 HAG        -0.8900   12.9280    2.2600 ha        1 KAF      0.150000
     58 HAJ        -1.9050   10.8950    1.2220 ha        1 KAF      0.149000
     59 HAP         1.6290   10.4210    4.7160 ha        1 KAF      0.141000
     60 HNBA       -0.1100    9.0520    5.8690 hn        1 KAF      0.466300
     61 HAR        -1.0240    9.2050    8.2950 ha        1 KAF      0.149000
     62 HAL        -1.8260   10.9230    9.8650 ha        1 KAF      0.162500
     63 HAH        -3.7980   12.3450    9.2960 ha        1 KAF      0.162000
     64 HAK        -4.9810   12.0260    7.1150 ha        1 KAF      0.162500
     65 HAQ        -4.1860   10.2910    5.5030 ha        1 KAF      0.149000
     66 H2         -0.6520    1.7580    4.2510 hn        1 KAF      0.469300
     67 HBA2       -0.5730    7.7020    6.7450 hn        1 KAF      0.466300
@<TRIPOS>BOND
     1    1    2 ar  
     2    1    6 ar  
     3    1   37 1   
     4    2    3 ar  
     5    2   38 1   
     6    3    4 ar  
     7    3   39 1   
     8    4    5 ar  
     9    4   40 1   
    10    5    6 ar  
    11    5   41 1   
    12    6    7 1   
    13    7    8 1   
    14    7   42 1   
    15    7   43 1   
    16    8    9 1   
    17    8   12 1   
    18    8   44 1   
    19    9   10 1   
    20    9   11 1   
    21   12   13 1   
    22   12   45 1   
    23   12   66 1   
    24   13   14 2   
    25   13   15 1   
    26   15   16 1   
    27   15   46 1   
    28   15   47 1   
    29   16   17 1   
    30   16   48 1   
    31   16   49 1   
    32   17   18 1   
    33   17   19 1   
    34   17   20 1   
    35   18   50 1   
    36   19   51 1   
    37   20   21 1   
    38   20   28 1   
    39   20   52 1   
    40   21   22 1   
    41   21   53 1   
    42   21   54 1   
    43   22   23 ar  
    44   22   27 ar  
    45   23   26 ar  
    46   23   55 1   
    47   24   25 ar  
    48   24   27 ar  
    49   24   56 1   
    50   25   26 ar  
    51   25   57 1   
    52   26   58 1   
    53   27   59 1   
    54   28   29 1   
    55   28   60 1   
    56   28   67 1   
    57   29   30 2   
    58   29   31 1   
    59   31   32 ar  
    60   31   36 ar  
    61   32   33 ar  
    62   32   61 1   
    63   33   34 ar  
    64   33   62 1   
    65   34   35 ar  
    66   34   63 1   
    67   35   36 ar  
    68   35   64 1   
    69   36   65 1   
@<TRIPOS>SUBSTRUCTURE
     1 KAF         1 TEMP              0 ****  ****    0 ROOT
