@<TRIPOS>MOLECULE
KAF
   65    67     1     0     0
SMALL
bcc


@<TRIPOS>ATOM
      1 CD1         5.0090   -1.5700    0.4790 ca        1 KAF     -0.135500
      2 CE1         4.7360   -2.9360    0.5430 ca        1 KAF     -0.139000
      3 CZ          4.7550   -3.7160   -0.6120 ca        1 KAF     -0.160000
      4 CE2         5.0460   -3.1210   -1.8390 ca        1 KAF     -0.139000
      5 CD2         5.3190   -1.7570   -1.9060 ca        1 KAF     -0.135500
      6 CG          5.3070   -0.9640   -0.7470 ca        1 KAF     -0.044300
      7 CB          5.6520    0.4770   -0.8690 c3        1 KAF     -0.038100
      8 CA          5.1320    1.4180    0.2230 c3        1 KAF     -0.062300
      9 C           5.7380    2.8400   -0.1080 c         1 KAF      0.907600
     10 OXT         4.9550    3.7370   -0.5260 o         1 KAF     -0.826800
     11 O           6.9770    2.9670    0.0640 o         1 KAF     -0.826800
     12 N           3.6840    1.4560    0.3000 n         1 KAF     -0.501900
     13 CBC         3.0030    1.1540    1.4560 c         1 KAF      0.643100
     14 OAA         3.4910    0.4800    2.3920 o         1 KAF     -0.647100
     15 CAV         1.5480    1.6010    1.5410 c3        1 KAF     -0.158400
     16 CAW         0.6990    0.8980    0.5060 c3        1 KAF     -0.121400
     17 CBM        -0.7860    1.2560    0.6380 c3        1 KAF      0.320600
     18 OAE        -1.1900    1.3400    1.9940 oh        1 KAF     -0.622800
     19 OAF        -1.0710    2.5590    0.1760 oh        1 KAF     -0.622800
     20 CBL        -1.6850    0.2580   -0.1720 c3        1 KAF      0.084700
     21 CAX        -1.3160    0.3470   -1.6620 c3        1 KAF     -0.047100
     22 CBF        -2.1330   -0.5550   -2.5160 ca        1 KAF     -0.065300
     23 CAO        -1.9840   -1.9450   -2.4200 ca        1 KAF     -0.123000
     24 CAI        -2.7330   -2.7910   -3.2350 ca        1 KAF     -0.130500
     25 CAG        -3.6370   -2.2580   -4.1540 ca        1 KAF     -0.137000
     26 CAJ        -3.7880   -0.8760   -4.2560 ca        1 KAF     -0.130500
     27 CAP        -3.0400   -0.0280   -3.4410 ca        1 KAF     -0.123000
     28 NBA        -3.0970    0.4790    0.0500 n         1 KAF     -0.527900
     29 CBE        -3.7280   -0.0270    1.1710 c         1 KAF      0.672700
     30 OAC        -3.1670   -0.8600    1.9150 o         1 KAF     -0.622100
     31 CBG        -5.1380    0.4020    1.4080 ca        1 KAF     -0.129600
     32 CAR        -5.5160    1.7450    1.3160 ca        1 KAF     -0.090000
     33 CAL        -6.8390    2.1100    1.5640 ca        1 KAF     -0.141000
     34 CAH        -7.7830    1.1400    1.9000 ca        1 KAF     -0.116000
     35 CAK        -7.4040   -0.1990    1.9990 ca        1 KAF     -0.141000
     36 CAQ        -6.0820   -0.5700    1.7590 ca        1 KAF     -0.090000
     37 HD1         4.9680   -0.9600    1.3990 ha        1 KAF      0.147000
     38 HE1         4.5010   -3.3970    1.5140 ha        1 KAF      0.115500
     39 HZ          4.5400   -4.7920   -0.5570 ha        1 KAF      0.111000
     40 HE2         5.0600   -3.7280   -2.7550 ha        1 KAF      0.115500
     41 HD2         5.5470   -1.2920   -2.8760 ha        1 KAF      0.147000
     42 HB          6.7750    0.5780   -0.8490 hc        1 KAF      0.064700
     43 HBA         5.3040    0.8570   -1.8680 hc        1 KAF      0.064700
     44 HA          5.5490    1.0970    1.2200 h1        1 KAF      0.072700
     45 HN          3.2990    2.1940   -0.2610 hn        1 KAF      0.315500
     46 HAV         1.1720    1.3630    2.5710 hc        1 KAF      0.067700
     47 HAVA        1.4860    2.7120    1.4040 hc        1 KAF      0.067700
     48 HAW         1.0380    1.1900   -0.5230 hc        1 KAF      0.068200
     49 HAWA        0.8180   -0.2110    0.6150 hc        1 KAF      0.068200
     50 HOAE       -1.2640    0.4420    2.3420 ho        1 KAF      0.433500
     51 HOAF       -0.6380    3.1760    0.7830 ho        1 KAF      0.433500
     52 HBL        -1.4400   -0.7800    0.2090 h1        1 KAF      0.086700
     53 HAX        -1.4150    1.4130   -2.0010 hc        1 KAF      0.073700
     54 HAXA       -0.2340    0.0600   -1.7610 hc        1 KAF      0.073700
     55 HAO        -1.2700   -2.3660   -1.6960 ha        1 KAF      0.133500
     56 HAI        -2.6090   -3.8800   -3.1520 ha        1 KAF      0.126000
     57 HAG        -4.2260   -2.9270   -4.7980 ha        1 KAF      0.124000
     58 HAJ        -4.4980   -0.4530   -4.9820 ha        1 KAF      0.126000
     59 HAP        -3.1620    1.0620   -3.5270 ha        1 KAF      0.133500
     60 HNBA       -3.4780    1.2880   -0.3840 hn        1 KAF      0.313500
     61 HAR        -4.7740    2.5190    1.0690 ha        1 KAF      0.148000
     62 HAL        -7.1360    3.1670    1.4960 ha        1 KAF      0.132500
     63 HAH        -8.8260    1.4310    2.0910 ha        1 KAF      0.129000
     64 HAK        -8.1460   -0.9640    2.2710 ha        1 KAF      0.132500
     65 HAQ        -5.7650   -1.6210    1.8510 ha        1 KAF      0.148000
@<TRIPOS>BOND
     1    1    2 ar  
     2    1    6 ar  
     3    1   37 1   
     4    2    3 ar  
     5    2   38 1   
     6    3    4 ar  
     7    3   39 1   
     8    4    5 ar  
     9    4   40 1   
    10    5    6 ar  
    11    5   41 1   
    12    6    7 1   
    13    7    8 1   
    14    7   42 1   
    15    7   43 1   
    16    8    9 1   
    17    8   12 1   
    18    8   44 1   
    19    9   10 1   
    20    9   11 1   
    21   12   13 1   
    22   12   45 1   
    23   13   14 2   
    24   13   15 1   
    25   15   16 1   
    26   15   46 1   
    27   15   47 1   
    28   16   17 1   
    29   16   48 1   
    30   16   49 1   
    31   17   18 1   
    32   17   19 1   
    33   17   20 1   
    34   18   50 1   
    35   19   51 1   
    36   20   21 1   
    37   20   28 1   
    38   20   52 1   
    39   21   22 1   
    40   21   53 1   
    41   21   54 1   
    42   22   23 ar  
    43   22   27 ar  
    44   23   24 ar  
    45   23   55 1   
    46   24   25 ar  
    47   24   56 1   
    48   25   26 ar  
    49   25   57 1   
    50   26   27 ar  
    51   26   58 1   
    52   27   59 1   
    53   28   29 1   
    54   28   60 1   
    55   29   30 2   
    56   29   31 1   
    57   31   32 ar  
    58   31   36 ar  
    59   32   33 ar  
    60   32   61 1   
    61   33   34 ar  
    62   33   62 1   
    63   34   35 ar  
    64   34   63 1   
    65   35   36 ar  
    66   35   64 1   
    67   36   65 1   
@<TRIPOS>SUBSTRUCTURE
     1 KAF         1 TEMP              0 ****  ****    0 ROOT
