@<TRIPOS>MOLECULE
KAG
   46    48     1     0     0
SMALL
bcc


@<TRIPOS>ATOM
      1 OP3         1.9680    0.0150    5.2680 oh        1 KAG     -0.786400
      2 OP1         4.2320   -0.3480    4.4800 o         1 KAG     -0.842000
      3 P           2.9540   -1.0930    4.5760 p5        1 KAG      1.430800
      4 OP2         2.7430   -2.4200    5.1810 o         1 KAG     -0.842000
      5 O5'         2.2960   -1.1040    3.0620 os        1 KAG     -0.579200
      6 C5'         2.4670    0.0390    2.2820 c3        1 KAG      0.186400
      7 C4'         3.3200   -0.2860    1.0470 c3        1 KAG      0.085100
      8 O4'         2.7800    0.3780   -0.1050 os        1 KAG     -0.441600
      9 C3'         4.7920    0.1520    1.1900 c3        1 KAG      0.099100
     10 O3'         5.6760   -0.8140    0.6390 oh        1 KAG     -0.606800
     11 C2'         4.8680    1.4670    0.4110 c3        1 KAG     -0.138400
     12 C1'         3.6950    1.3950   -0.5930 c3        1 KAG      0.270800
     13 N9          3.0360    2.6430   -0.8380 nh        1 KAG     -0.127600
     14 C4          2.0650    2.8460   -1.8400 cc        1 KAG      0.000500
     15 N3          1.4980    1.9630   -2.7300 nc        1 KAG     -0.571300
     16 C8          3.2700    3.8880   -0.2020 c1        1 KAG      0.050400
     17 N7          2.4920    4.8610   -0.7580 nf        1 KAG     -0.613000
     18 C5          1.7440    4.2600   -1.7540 cd        1 KAG     -0.026600
     19 C6          0.7540    4.7940   -2.6670 c         1 KAG      0.724700
     20 O6          0.3390    5.9700   -2.7760 o         1 KAG     -0.700500
     21 N1          0.1890    3.8470   -3.5490 n         1 KAG     -0.472400
     22 C2          0.5770    2.4900   -3.5490 cd        1 KAG      0.476800
     23 N2         -0.0960    1.6510   -4.5340 nh        1 KAG     -0.757200
     24 C1A        -1.0420    0.7180   -3.9070 c3        1 KAG      0.171500
     25 C1M        -2.2670    1.4390   -3.3460 c3        1 KAG     -0.089100
     26 C2B        -1.5210   -0.3410   -4.9120 c3        1 KAG     -0.209400
     27 C3G        -0.4190   -1.2530   -5.3500 c         1 KAG      0.566900
     28 O2G        -0.4910   -1.9370   -6.3750 o         1 KAG     -0.561100
     29 H5'         1.4530    0.3780    1.9250 h1        1 KAG      0.038700
     30 H5''        2.9460    0.8590    2.8860 h1        1 KAG      0.038700
     31 H4'         3.2470   -1.3860    0.8250 h1        1 KAG      0.067700
     32 H3'         5.1050    0.2450    2.2680 h1        1 KAG      0.147700
     33 H2''        4.7500    2.3420    1.1010 hc        1 KAG      0.079700
     34 H2'         5.8360    1.5660   -0.1330 hc        1 KAG      0.079700
     35 H1'         4.0530    0.9860   -1.5890 h2        1 KAG      0.027700
     36 H8          2.3470    0.8860    5.2460 ho        1 KAG      0.424000
     37 H1         -0.5040    4.1540   -4.1900 hn        1 KAG      0.310500
     38 H2          0.6010    1.1240   -5.0330 hn        1 KAG      0.364800
     39 H1A        -0.5530    0.1660   -3.0430 h1        1 KAG      0.061700
     40 H1M        -2.8370    1.9510   -4.1570 hc        1 KAG      0.040700
     41 H2M        -1.9570    2.2000   -2.5890 hc        1 KAG      0.040700
     42 H3M        -2.9350    0.6950   -2.8500 hc        1 KAG      0.040700
     43 H2B        -1.9930    0.1470   -5.8040 hc        1 KAG      0.073200
     44 H1B        -2.3090   -0.9680   -4.4130 hc        1 KAG      0.073200
     45 H3G         0.4750   -1.2960   -4.6870 h4        1 KAG      0.015200
     46 HO3         5.3710   -0.9890   -0.2590 ho        1 KAG      0.380000
@<TRIPOS>BOND
     1    1    3 1   
     2    1   36 1   
     3    2    3 1   
     4    3    4 1   
     5    3    5 1   
     6    5    6 1   
     7    6    7 1   
     8    6   29 1   
     9    6   30 1   
    10    7    8 1   
    11    7    9 1   
    12    7   31 1   
    13    8   12 1   
    14    9   10 1   
    15    9   11 1   
    16    9   32 1   
    17   10   46 1   
    18   11   12 1   
    19   11   33 1   
    20   11   34 1   
    21   12   13 1   
    22   12   35 1   
    23   13   14 1   
    24   13   16 2   
    25   14   15 1   
    26   14   18 2   
    27   15   22 2   
    28   16   17 2   
    29   17   18 1   
    30   18   19 1   
    31   19   20 2   
    32   19   21 1   
    33   21   22 1   
    34   21   37 1   
    35   22   23 1   
    36   23   24 1   
    37   23   38 1   
    38   24   25 1   
    39   24   26 1   
    40   24   39 1   
    41   25   40 1   
    42   25   41 1   
    43   25   42 1   
    44   26   27 1   
    45   26   43 1   
    46   26   44 1   
    47   27   28 2   
    48   27   45 1   
@<TRIPOS>SUBSTRUCTURE
     1 KAG         1 TEMP              0 ****  ****    0 ROOT
