@<TRIPOS>MOLECULE
KAH
   22    21     1     0     0
SMALL
bcc


@<TRIPOS>ATOM
      1 C4         -0.7050    0.6940    1.1900 c3        1 KAH      0.123100
      2 C5          0.5410    0.2960    2.0360 c3        1 KAH      0.144500
      3 N5          1.3700   -0.7660    1.5030 n3        1 KAH     -0.917800
      4 C6          0.0550   -0.0210    3.4510 c3        1 KAH     -0.082100
      5 C3         -0.3150    1.2380   -0.1840 c3        1 KAH     -0.086400
      6 C2         -0.5670    0.3090   -1.3480 c3        1 KAH     -0.201400
      7 C1          0.3600   -0.9140   -1.3070 c         1 KAH      0.896600
      8 O1          1.5170   -0.8190   -1.8030 o         1 KAH     -0.849800
      9 OH1        -0.0710   -1.9670   -0.7400 o         1 KAH     -0.849800
     10 OXT        -1.6510   -0.3530    1.1470 oh        1 KAH     -0.640800
     11 H4         -1.2430    1.5100    1.7590 h1        1 KAH      0.030700
     12 H5          1.1940    1.2190    2.0930 h1        1 KAH      0.029700
     13 HN51        0.8220   -1.5960    1.3530 hn        1 KAH      0.376300
     14 HN52        1.7490   -0.4940    0.6120 hn        1 KAH      0.376300
     15 HC1         0.9030   -0.3300    4.1070 hc        1 KAH      0.027033
     16 HC2        -0.4240    0.8860    3.8890 hc        1 KAH      0.027033
     17 HC3        -0.7010   -0.8430    3.4210 hc        1 KAH      0.027033
     18 HC31       -0.8970    2.1850   -0.3550 hc        1 KAH      0.024700
     19 HC32        0.7720    1.5190   -0.1770 hc        1 KAH      0.024700
     20 HC21       -1.6320   -0.0340   -1.3450 hc        1 KAH      0.033200
     21 HC22       -0.3800    0.8650   -2.3020 hc        1 KAH      0.033200
     22 HXT        -1.2860   -1.0720    0.6000 ho        1 KAH      0.455000
@<TRIPOS>BOND
     1    1    2 1   
     2    1    5 1   
     3    1   10 1   
     4    1   11 1   
     5    2    3 1   
     6    2    4 1   
     7    2   12 1   
     8    3   13 1   
     9    3   14 1   
    10    4   15 1   
    11    4   16 1   
    12    4   17 1   
    13    5    6 1   
    14    5   18 1   
    15    5   19 1   
    16    6    7 1   
    17    6   20 1   
    18    6   21 1   
    19    7    8 1   
    20    7    9 1   
    21   10   22 1   
@<TRIPOS>SUBSTRUCTURE
     1 KAH         1 TEMP              0 ****  ****    0 ROOT
