@<TRIPOS>MOLECULE
KAI
   28    28     1     0     0
SMALL
bcc


@<TRIPOS>ATOM
      1 N           0.0710   -2.0090   -1.4140 n3        1 KAI     -0.800200
      2 CD         -1.3110   -1.7190   -1.0390 c3        1 KAI      0.155800
      3 CD1        -3.5680    0.0340   -0.3530 c2        1 KAI     -0.298000
      4 CD2        -2.5790    0.5800    1.8310 c3        1 KAI     -0.096900
      5 CA          0.9370   -1.0670   -0.6720 c3        1 KAI      0.028500
      6 CB          0.0270   -0.0470    0.0850 c3        1 KAI     -0.027700
      7 CB1        -0.1120    1.2450   -0.6940 c3        1 KAI     -0.176400
      8 CG         -1.2940   -0.8410    0.2310 c3        1 KAI     -0.063500
      9 CG1        -0.3620    2.5220    0.1170 c         1 KAI      0.904600
     10 CG2        -2.5340   -0.0650    0.4920 c2        1 KAI     -0.022400
     11 C           1.9130   -1.7950    0.2980 c         1 KAI      0.900600
     12 O           1.5210   -2.8580    0.8710 o         1 KAI     -0.860300
     13 OD1        -0.7810    3.5380   -0.5210 o         1 KAI     -0.873800
     14 OD2        -0.1330    2.5670    1.3630 o         1 KAI     -0.873800
     15 OXT         3.0780   -1.3280    0.4350 o         1 KAI     -0.860300
     16 HN1         0.3010   -2.9430   -1.1090 hn        1 KAI      0.347800
     17 HD1        -1.7720   -1.1560   -1.8960 h1        1 KAI      0.012700
     18 HD2        -1.9100   -2.6520   -0.8720 h1        1 KAI      0.012700
     19 HD11       -4.4660    0.6100   -0.1000 ha        1 KAI      0.087000
     20 HD12       -3.5750   -0.4110   -1.3530 ha        1 KAI      0.087000
     21 HD21       -2.4360   -0.1840    2.6340 hc        1 KAI      0.052700
     22 HD22       -1.7390    1.3320    1.8990 hc        1 KAI      0.052700
     23 HD23       -3.5490    1.1030    2.0060 hc        1 KAI      0.052700
     24 HA          1.5620   -0.5300   -1.4370 h1        1 KAI      0.052700
     25 HB          0.4570    0.1820    1.0940 hc        1 KAI      0.092700
     26 HB11        0.8390    1.4370   -1.2610 hc        1 KAI      0.027200
     27 HB12       -0.9350    1.1450   -1.4480 hc        1 KAI      0.027200
     28 HG         -1.1500   -1.5320    1.1140 hc        1 KAI      0.058700
@<TRIPOS>BOND
     1    1    2 1   
     2    1    5 1   
     3    1   16 1   
     4    2    8 1   
     5    2   17 1   
     6    2   18 1   
     7    3   10 2   
     8    3   19 1   
     9    3   20 1   
    10    4   10 1   
    11    4   21 1   
    12    4   22 1   
    13    4   23 1   
    14    5    6 1   
    15    5   11 1   
    16    5   24 1   
    17    6    7 1   
    18    6    8 1   
    19    6   25 1   
    20    7    9 1   
    21    7   26 1   
    22    7   27 1   
    23    8   10 1   
    24    8   28 1   
    25    9   13 1   
    26    9   14 1   
    27   11   12 1   
    28   11   15 1   
@<TRIPOS>SUBSTRUCTURE
     1 KAI         1 TEMP              0 ****  ****    0 ROOT
