@<TRIPOS>MOLECULE
KAI
   28    28     1     0     0
SMALL
bcc


@<TRIPOS>ATOM
      1 N           0.0210   -0.8580   -0.3230 n7        1 KAI     -0.769200
      2 CD          1.4020   -0.3910   -0.1620 c3        1 KAI      0.158800
      3 CD1         4.1430   -0.5850    0.9280 c2        1 KAI     -0.326000
      4 CD2         3.3200   -0.4250    3.2400 c3        1 KAI     -0.103900
      5 CA         -0.5640   -0.9400    1.0330 c3        1 KAI      0.030500
      6 CB          0.6270   -1.1410    2.0170 c3        1 KAI     -0.046700
      7 CB1         1.0360   -2.6000    2.1070 c3        1 KAI     -0.188400
      8 CG          1.6990   -0.2420    1.3500 c3        1 KAI     -0.079500
      9 CG1         0.9750   -3.2340    3.5020 c         1 KAI      0.908600
     10 CG2         3.1080   -0.4510    1.7690 c2        1 KAI     -0.014400
     11 C          -1.3910    0.3400    1.3630 c         1 KAI      0.933600
     12 O          -0.7990    1.4140    1.6710 o         1 KAI     -0.860300
     13 OD1         0.6370   -4.4550    3.5760 o         1 KAI     -0.869800
     14 OD2         1.3150   -2.5680    4.5270 o         1 KAI     -0.869800
     15 OXT        -2.6510    0.2340    1.3080 o         1 KAI     -0.860300
     16 HN1         0.0480   -1.7920   -0.6990 hn        1 KAI      0.303800
     17 HD1         1.4890    0.6070   -0.6680 h1        1 KAI      0.011200
     18 HD2         2.1280   -1.0950   -0.6510 h1        1 KAI      0.011200
     19 HD11        5.1710   -0.7020    1.2910 ha        1 KAI      0.084000
     20 HD12        4.0380   -0.5960   -0.1610 ha        1 KAI      0.084000
     21 HD21        2.9820    0.5580    3.6520 hc        1 KAI      0.057700
     22 HD22        4.3940   -0.5750    3.5060 hc        1 KAI      0.057700
     23 HD23        2.6980   -1.2330    3.7260 hc        1 KAI      0.057700
     24 HA         -1.2720   -1.8110    1.0910 h1        1 KAI      0.049700
     25 HB          0.3710   -0.7500    3.0330 hc        1 KAI      0.094700
     26 HB11        0.3980   -3.2230    1.4260 hc        1 KAI      0.019700
     27 HB12        2.0960   -2.7220    1.7580 hc        1 KAI      0.019700
     28 HG          1.4170    0.8190    1.6380 hc        1 KAI      0.108700
@<TRIPOS>BOND
     1    1    2 1   
     2    1    5 1   
     3    1   16 1   
     4    2    8 1   
     5    2   17 1   
     6    2   18 1   
     7    3   10 2   
     8    3   19 1   
     9    3   20 1   
    10    4   10 1   
    11    4   21 1   
    12    4   22 1   
    13    4   23 1   
    14    5    6 1   
    15    5   11 1   
    16    5   24 1   
    17    6    7 1   
    18    6    8 1   
    19    6   25 1   
    20    7    9 1   
    21    7   26 1   
    22    7   27 1   
    23    8   10 1   
    24    8   28 1   
    25    9   13 1   
    26    9   14 1   
    27   11   12 1   
    28   11   15 1   
@<TRIPOS>SUBSTRUCTURE
     1 KAI         1 TEMP              0 ****  ****    0 ROOT
