@<TRIPOS>MOLECULE
KAI
   28    28     1     0     0
SMALL
bcc


@<TRIPOS>ATOM
      1 N           0.0750   -0.7000   -0.3400 n3        1 KAI     -0.769200
      2 CD          1.4700   -0.3010   -0.1270 c3        1 KAI      0.158800
      3 CD1         4.1740   -0.6660    1.0090 c2        1 KAI     -0.326000
      4 CD2         3.3060   -0.5870    3.3080 c3        1 KAI     -0.103900
      5 CA         -0.5440   -0.8250    0.9970 c3        1 KAI      0.030500
      6 CB          0.6150   -1.1260    1.9950 c3        1 KAI     -0.046700
      7 CB1         0.9610   -2.6040    2.0180 c3        1 KAI     -0.188400
      8 CG          1.7380   -0.2410    1.3970 c3        1 KAI     -0.079500
      9 CG1         0.8420   -3.3030    3.3770 c         1 KAI      0.908600
     10 CG2         3.1270   -0.5310    1.8330 c2        1 KAI     -0.014400
     11 C          -1.3250    0.4710    1.3750 c         1 KAI      0.933600
     12 O          -0.6960    1.5020    1.7490 o         1 KAI     -0.860300
     13 OD1         0.4540   -4.5120    3.3810 o         1 KAI     -0.869800
     14 OD2         1.1840   -2.7040    4.4420 o         1 KAI     -0.869800
     15 OXT        -2.5870    0.4210    1.2890 o         1 KAI     -0.860300
     16 HN1         0.0710   -1.6140   -0.7620 hn        1 KAI      0.303800
     17 HD1         1.6100    0.7160   -0.5800 h1        1 KAI      0.011200
     18 HD2         2.1770   -1.0100   -0.6360 h1        1 KAI      0.011200
     19 HD11        5.1880   -0.8450    1.3860 ha        1 KAI      0.084000
     20 HD12        4.0950   -0.6180   -0.0820 ha        1 KAI      0.084000
     21 HD21        4.3660   -0.7960    3.5880 hc        1 KAI      0.057700
     22 HD22        2.6400   -1.3910    3.7400 hc        1 KAI      0.057700
     23 HD23        3.0010    0.3870    3.7630 hc        1 KAI      0.057700
     24 HA         -1.2890   -1.6670    0.9960 h1        1 KAI      0.049700
     25 HB          0.3520   -0.7750    3.0240 hc        1 KAI      0.094700
     26 HB11        0.3120   -3.1640    1.2940 hc        1 KAI      0.019700
     27 HB12        2.0220   -2.7530    1.6850 hc        1 KAI      0.019700
     28 HG          1.4940    0.8160    1.7330 hc        1 KAI      0.108700
@<TRIPOS>BOND
     1    1    2 1   
     2    1    5 1   
     3    1   16 1   
     4    2    8 1   
     5    2   17 1   
     6    2   18 1   
     7    3   10 2   
     8    3   19 1   
     9    3   20 1   
    10    4   10 1   
    11    4   21 1   
    12    4   22 1   
    13    4   23 1   
    14    5    6 1   
    15    5   11 1   
    16    5   24 1   
    17    6    7 1   
    18    6    8 1   
    19    6   25 1   
    20    7    9 1   
    21    7   26 1   
    22    7   27 1   
    23    8   10 1   
    24    8   28 1   
    25    9   13 1   
    26    9   14 1   
    27   11   12 1   
    28   11   15 1   
@<TRIPOS>SUBSTRUCTURE
     1 KAI         1 TEMP              0 ****  ****    0 ROOT
