@<TRIPOS>MOLECULE
KAI
   28    28     1     0     0
SMALL
bcc


@<TRIPOS>ATOM
      1 N           0.0020   -0.7120   -0.2890 n3        1 KAI     -0.769200
      2 CD          1.4050   -0.3150   -0.1310 c3        1 KAI      0.158800
      3 CD1         4.1490   -0.6800    0.9050 c2        1 KAI     -0.326000
      4 CD2         3.3680   -0.5810    3.2340 c3        1 KAI     -0.103900
      5 CA         -0.5670   -0.8240    1.0710 c3        1 KAI      0.030500
      6 CB          0.6280   -1.1210    2.0270 c3        1 KAI     -0.046700
      7 CB1         0.9700   -2.6000    2.0490 c3        1 KAI     -0.188400
      8 CG          1.7300   -0.2440    1.3810 c3        1 KAI     -0.079500
      9 CG1         0.8990   -3.2890    3.4170 c         1 KAI      0.908600
     10 CG2         3.1340   -0.5350    1.7670 c2        1 KAI     -0.014400
     11 C          -1.3290    0.4770    1.4690 c         1 KAI      0.933600
     12 O          -0.6830    1.5090    1.8120 o         1 KAI     -0.860300
     13 OD1         0.5050   -4.4950    3.4450 o         1 KAI     -0.869800
     14 OD2         1.2850   -2.6840    4.4630 o         1 KAI     -0.869800
     15 OXT        -2.5930    0.4310    1.4300 o         1 KAI     -0.860300
     16 HN1        -0.0210   -1.6290   -0.7040 hn        1 KAI      0.303800
     17 HD1         1.5310    0.6980   -0.5970 h1        1 KAI      0.011200
     18 HD2         2.0900   -1.0300   -0.6610 h1        1 KAI      0.011200
     19 HD11        5.1760   -0.8600    1.2450 ha        1 KAI      0.084000
     20 HD12        4.0290   -0.6400   -0.1820 ha        1 KAI      0.084000
     21 HD21        3.0820    0.3970    3.6930 hc        1 KAI      0.057700
     22 HD22        2.7170   -1.3800    3.6970 hc        1 KAI      0.057700
     23 HD23        4.4380   -0.7920    3.4760 hc        1 KAI      0.057700
     24 HA         -1.3140   -1.6630    1.1050 h1        1 KAI      0.049700
     25 HB          0.4040   -0.7620    3.0630 hc        1 KAI      0.094700
     26 HB11        0.2930   -3.1630    1.3530 hc        1 KAI      0.019700
     27 HB12        2.0180   -2.7550    1.6780 hc        1 KAI      0.019700
     28 HG          1.5020    0.8150    1.7170 hc        1 KAI      0.108700
@<TRIPOS>BOND
     1    1    2 1   
     2    1    5 1   
     3    1   16 1   
     4    2    8 1   
     5    2   17 1   
     6    2   18 1   
     7    3   10 2   
     8    3   19 1   
     9    3   20 1   
    10    4   10 1   
    11    4   21 1   
    12    4   22 1   
    13    4   23 1   
    14    5    6 1   
    15    5   11 1   
    16    5   24 1   
    17    6    7 1   
    18    6    8 1   
    19    6   25 1   
    20    7    9 1   
    21    7   26 1   
    22    7   27 1   
    23    8   10 1   
    24    8   28 1   
    25    9   13 1   
    26    9   14 1   
    27   11   12 1   
    28   11   15 1   
@<TRIPOS>SUBSTRUCTURE
     1 KAI         1 TEMP              0 ****  ****    0 ROOT
