@<TRIPOS>MOLECULE
KAM
   53    53     1     0     0
SMALL
bcc


@<TRIPOS>ATOM
      1 N1          1.6300   -0.7530    0.5900 nb        1 KAM     -0.663000
      2 C2          2.0170    0.4830    0.9850 ca        1 KAM      0.323600
      3 C2A         3.0590    1.2100    0.1980 c3        1 KAM     -0.143400
      4 C3          1.4530    1.1170    2.1230 ca        1 KAM     -0.015200
      5 O3          1.9060    2.3600    2.5200 oh        1 KAM     -0.509100
      6 C4          0.4720    0.4610    2.8950 ca        1 KAM     -0.102300
      7 C4A        -0.2220    1.0410    4.0980 c3        1 KAM      0.214100
      8 C5          0.0760   -0.8180    2.4630 ca        1 KAM     -0.175600
      9 C6          0.6880   -1.3710    1.3150 ca        1 KAM      0.402200
     10 C5A        -0.9720   -1.5990    3.2010 c3        1 KAM      0.222700
     11 OP4        -1.3080   -2.7750    2.5430 os        1 KAM     -0.570200
     12 P          -2.9090   -3.0160    2.1610 p5        1 KAM      1.427800
     13 OP1        -3.0880   -4.4590    1.9410 o         1 KAM     -0.831500
     14 OP2        -3.6920   -2.1280    3.0490 o         1 KAM     -0.831500
     15 OP3        -2.9360   -2.1970    0.7480 oh        1 KAM     -0.781400
     16 N9C         0.2900    2.1970    4.7880 n3        1 KAM     -0.813200
     17 C9C         2.5400    1.1800    5.3810 c3        1 KAM     -0.127100
     18 C8C         1.2870    1.9430    5.8170 c3        1 KAM      0.082500
     19 C7C         1.7630    3.2510    6.4620 c         1 KAM      0.574100
     20 O7C         1.9720    4.2720    5.8020 o         1 KAM     -0.537100
     21 C6C         1.9630    3.1660    7.9470 c3        1 KAM     -0.178400
     22 C5C         2.8070    4.2930    8.5020 c3        1 KAM     -0.074400
     23 C4C         2.9760    4.1620   10.0010 c3        1 KAM     -0.079400
     24 C3C         3.8530    5.2610   10.5660 c3        1 KAM     -0.063400
     25 C2C         4.0670    5.0960   12.0510 c3        1 KAM     -0.191400
     26 C1C         4.8340    6.2860   12.6520 c         1 KAM      0.907600
     27 O1C         5.8210    6.0330   13.4040 o         1 KAM     -0.856800
     28 O2C         4.4370    7.4590   12.3920 o         1 KAM     -0.856800
     29 HA21        3.5320    0.5560   -0.5750 hc        1 KAM      0.042367
     30 HA22        3.8580    1.5810    0.8870 hc        1 KAM      0.042367
     31 HA23        2.5960    2.0870   -0.3210 hc        1 KAM      0.042367
     32 HO3         2.1020    2.8670    1.7190 ho        1 KAM      0.413000
     33 H4A1       -1.2610    1.3320    3.7480 h1        1 KAM      0.067700
     34 H4A2       -0.3460    0.2110    4.8560 h1        1 KAM      0.067700
     35 HC6         0.3790   -2.3770    0.9690 h4        1 KAM      0.060100
     36 HA51       -1.8890   -0.9570    3.3560 h1        1 KAM      0.049200
     37 HA52       -0.5400   -1.8690    4.2120 h1        1 KAM      0.049200
     38 HNC9       -3.2970   -1.3240    0.8530 ho        1 KAM      0.424000
     39 HC91        2.2570    0.1720    4.9930 hc        1 KAM      0.046367
     40 HC92        3.0700    1.7360    4.5690 hc        1 KAM      0.046367
     41 HC93        3.2290    1.0540    6.2490 hc        1 KAM      0.046367
     42 HC8         0.7670    1.3320    6.6160 h1        1 KAM      0.060700
     43 HC61        2.4370    2.1780    8.1940 hc        1 KAM      0.062700
     44 HC62        0.9470    3.1790    8.4270 hc        1 KAM      0.062700
     45 HC51        2.3290    5.2760    8.2540 hc        1 KAM      0.048700
     46 HC52        3.8130    4.2850    8.0050 hc        1 KAM      0.048700
     47 HC41        3.4270    3.1640   10.2420 hc        1 KAM      0.025200
     48 HC42        1.9690    4.1960   10.4950 hc        1 KAM      0.025200
     49 HC31        3.3850    6.2640   10.3770 hc        1 KAM      0.043700
     50 HC32        4.8440    5.2550   10.0430 hc        1 KAM      0.043700
     51 HC21        3.0790    5.0270   12.5730 hc        1 KAM      0.018700
     52 HC22        4.6300    4.1510   12.2580 hc        1 KAM      0.018700
     53 H9C2        0.6220    2.9000    4.1500 hn        1 KAM      0.388800
@<TRIPOS>BOND
     1    1    2 ar  
     2    1    9 ar  
     3    2    3 1   
     4    2    4 ar  
     5    3   29 1   
     6    3   30 1   
     7    3   31 1   
     8    4    5 1   
     9    4    6 ar  
    10    5   32 1   
    11    6    7 1   
    12    6    8 ar  
    13    7   16 1   
    14    7   33 1   
    15    7   34 1   
    16    8    9 ar  
    17    8   10 1   
    18    9   35 1   
    19   10   11 1   
    20   10   36 1   
    21   10   37 1   
    22   11   12 1   
    23   12   13 1   
    24   12   14 1   
    25   12   15 1   
    26   15   38 1   
    27   16   18 1   
    28   16   53 1   
    29   17   18 1   
    30   17   39 1   
    31   17   40 1   
    32   17   41 1   
    33   18   19 1   
    34   18   42 1   
    35   19   20 2   
    36   19   21 1   
    37   21   22 1   
    38   21   43 1   
    39   21   44 1   
    40   22   23 1   
    41   22   45 1   
    42   22   46 1   
    43   23   24 1   
    44   23   47 1   
    45   23   48 1   
    46   24   25 1   
    47   24   49 1   
    48   24   50 1   
    49   25   26 1   
    50   25   51 1   
    51   25   52 1   
    52   26   27 1   
    53   26   28 1   
@<TRIPOS>SUBSTRUCTURE
     1 KAM         1 TEMP              0 ****  ****    0 ROOT
