@<TRIPOS>MOLECULE
KAM
   53    53     1     0     0
SMALL
bcc


@<TRIPOS>ATOM
      1 N1          0.3470    0.3220   -0.2170 nb        1 KAM     -0.660000
      2 C2          1.5230    0.7960    0.2660 ca        1 KAM      0.319600
      3 C2A         2.5230    1.3810   -0.6760 c3        1 KAM     -0.141400
      4 C3          1.8210    0.7550    1.6490 ca        1 KAM     -0.011200
      5 O3          3.0460    1.1610    2.1420 oh        1 KAM     -0.510100
      6 C4          0.8880    0.2260    2.5680 ca        1 KAM     -0.069300
      7 C4A         1.2210    0.1770    4.0310 c3        1 KAM      0.214100
      8 C5         -0.3100   -0.2820    2.0530 ca        1 KAM     -0.148600
      9 C6         -0.5220   -0.2030    0.6540 ca        1 KAM      0.395200
     10 C5A        -1.3640   -0.8840    2.9360 c3        1 KAM      0.216700
     11 OP4        -2.4100   -1.4160    2.1920 os        1 KAM     -0.574200
     12 P          -2.8870   -2.9750    2.5120 p5        1 KAM      1.429800
     13 OP1        -3.4460   -3.5160    1.2630 o         1 KAM     -0.833500
     14 OP2        -1.8470   -3.5820    3.3730 o         1 KAM     -0.833500
     15 OP3        -4.0650   -2.6370    3.5920 oh        1 KAM     -0.778400
     16 N9C         1.5090    1.4840    4.5960 n7        1 KAM     -0.809200
     17 C9C         2.9810    0.4120    6.3750 c3        1 KAM     -0.127100
     18 C8C         1.9250    1.4520    5.9900 c3        1 KAM      0.077500
     19 C7C         2.4650    2.8150    6.4440 c         1 KAM      0.573100
     20 O7C         3.1720    3.5130    5.7130 o         1 KAM     -0.540100
     21 C6C         2.0720    3.2050    7.8380 c3        1 KAM     -0.177400
     22 C5C         3.0270    4.1970    8.4680 c3        1 KAM     -0.074400
     23 C4C         2.5590    4.6090    9.8480 c3        1 KAM     -0.079400
     24 C3C         3.5480    5.5410   10.5180 c3        1 KAM     -0.064400
     25 C2C         3.0650    5.9840   11.8780 c3        1 KAM     -0.192400
     26 C1C         4.1510    6.7580   12.6440 c         1 KAM      0.907600
     27 O1C         3.8150    7.8360   13.2150 o         1 KAM     -0.856800
     28 O2C         5.3210    6.2770   12.6930 o         1 KAM     -0.856800
     29 HA21        2.2200    1.2500   -1.7430 hc        1 KAM      0.040700
     30 HA22        2.6350    2.4770   -0.4740 hc        1 KAM      0.040700
     31 HA23        3.5150    0.8860   -0.5250 hc        1 KAM      0.040700
     32 HO3         3.3600    1.8840    1.5800 ho        1 KAM      0.414000
     33 H4A1        0.3570   -0.2530    4.6140 h1        1 KAM      0.047200
     34 H4A2        2.0930   -0.5390    4.1380 h1        1 KAM      0.047200
     35 HC6        -1.4700   -0.5960    0.2310 h4        1 KAM      0.061100
     36 HA51       -1.7680   -0.0540    3.5900 h1        1 KAM      0.053700
     37 HA52       -0.9000   -1.6850    3.5850 h1        1 KAM      0.053700
     38 HNC9        2.2000    1.9630    4.0420 hn        1 KAM      0.378800
     39 HC91        3.2880    0.5650    7.4380 hc        1 KAM      0.044367
     40 HC92        3.8840    0.5030    5.7250 hc        1 KAM      0.044367
     41 HC93        2.5660   -0.6190    6.2740 hc        1 KAM      0.044367
     42 HC8         0.9890    1.2310    6.5870 h1        1 KAM      0.067700
     43 HC61        1.0410    3.6490    7.7850 hc        1 KAM      0.063700
     44 HC62        2.0070    2.2840    8.4770 hc        1 KAM      0.063700
     45 HC51        4.0490    3.7400    8.5360 hc        1 KAM      0.048700
     46 HC52        3.1160    5.1000    7.8070 hc        1 KAM      0.048700
     47 HC41        1.5600    5.1130    9.7690 hc        1 KAM      0.026200
     48 HC42        2.4180    3.6950   10.4830 hc        1 KAM      0.026200
     49 HC31        4.5410    5.0300   10.6370 hc        1 KAM      0.044700
     50 HC32        3.7140    6.4400    9.8690 hc        1 KAM      0.044700
     51 HC21        2.1550    6.6260   11.7770 hc        1 KAM      0.018700
     52 HC22        2.7870    5.0900   12.4930 hc        1 KAM      0.018700
     53 H9C2       -3.7650   -2.7520    4.4860 ho        1 KAM      0.423000
@<TRIPOS>BOND
     1    1    2 ar  
     2    1    9 ar  
     3    2    3 1   
     4    2    4 ar  
     5    3   29 1   
     6    3   30 1   
     7    3   31 1   
     8    4    5 1   
     9    4    6 ar  
    10    5   32 1   
    11    6    7 1   
    12    6    8 ar  
    13    7   16 1   
    14    7   33 1   
    15    7   34 1   
    16    8    9 ar  
    17    8   10 1   
    18    9   35 1   
    19   10   11 1   
    20   10   36 1   
    21   10   37 1   
    22   11   12 1   
    23   12   13 1   
    24   12   14 1   
    25   12   15 1   
    26   15   53 1   
    27   16   18 1   
    28   16   38 1   
    29   17   18 1   
    30   17   39 1   
    31   17   40 1   
    32   17   41 1   
    33   18   19 1   
    34   18   42 1   
    35   19   20 2   
    36   19   21 1   
    37   21   22 1   
    38   21   43 1   
    39   21   44 1   
    40   22   23 1   
    41   22   45 1   
    42   22   46 1   
    43   23   24 1   
    44   23   47 1   
    45   23   48 1   
    46   24   25 1   
    47   24   49 1   
    48   24   50 1   
    49   25   26 1   
    50   25   51 1   
    51   25   52 1   
    52   26   27 1   
    53   26   28 1   
@<TRIPOS>SUBSTRUCTURE
     1 KAM         1 TEMP              0 ****  ****    0 ROOT
