@<TRIPOS>MOLECULE
KAM
   52    52     1     0     0
SMALL
bcc


@<TRIPOS>ATOM
      1 N1          0.9240   -1.0990    5.8250 nb        1 KAM     -0.673000
      2 C2          1.9940   -1.1190    4.9860 ca        1 KAM      0.305600
      3 C2A         3.2750   -1.7450    5.4230 c3        1 KAM     -0.109400
      4 C3          1.9310   -0.5390    3.6960 ca        1 KAM      0.016800
      5 O3          3.0990   -0.5870    2.9630 oh        1 KAM     -0.534100
      6 C4          0.7340    0.0610    3.2430 ca        1 KAM     -0.175300
      7 C4A         0.6680    0.7250    1.8990 c3        1 KAM      0.205100
      8 C5         -0.3630    0.0780    4.1130 ca        1 KAM     -0.102600
      9 C6         -0.1970   -0.5170    5.3960 ca        1 KAM      0.381200
     10 C5A        -1.6980    0.6940    3.7640 c3        1 KAM      0.240700
     11 OP4        -2.6240    0.5190    4.7490 os        1 KAM     -0.556200
     12 P          -3.5230    1.9640    5.1990 p5        1 KAM      1.309900
     13 OP1        -4.6700    1.9210    4.2310 o         1 KAM     -0.924167
     14 OP2        -3.8260    1.6740    6.6400 o         1 KAM     -0.924167
     15 OP3        -2.4980    3.0370    4.9270 o         1 KAM     -0.924167
     16 N9C         1.0110   -0.1630    0.7960 n3        1 KAM     -0.845200
     17 C9C         2.0800    1.2720   -0.9040 c3        1 KAM     -0.088100
     18 C8C         0.8440    0.4520   -0.5160 c3        1 KAM      0.088500
     19 C7C         0.5750   -0.5560   -1.6350 c         1 KAM      0.563100
     20 O7C         0.6270   -1.7790   -1.4700 o         1 KAM     -0.538100
     21 C6C         0.2030    0.0380   -2.9690 c3        1 KAM     -0.181400
     22 C5C         1.2620   -0.2430   -4.0180 c3        1 KAM     -0.071400
     23 C4C         0.8470    0.2860   -5.3750 c3        1 KAM     -0.079400
     24 C3C         1.8970    0.0130   -6.4330 c3        1 KAM     -0.064400
     25 C2C         1.5010    0.5860   -7.7730 c3        1 KAM     -0.189400
     26 C1C         2.4770    0.1810   -8.8890 c         1 KAM      0.906600
     27 O1C         2.8820    1.0860   -9.6780 o         1 KAM     -0.860300
     28 O2C         2.8160   -1.0340   -8.9970 o         1 KAM     -0.860300
     29 HA21        4.0340   -0.9450    5.6090 hc        1 KAM      0.025033
     30 HA22        3.1550   -2.3490    6.3550 hc        1 KAM      0.025033
     31 HA23        3.6620   -2.4060    4.6090 hc        1 KAM      0.025033
     32 HO3         2.9070   -0.2940    2.0620 ho        1 KAM      0.432000
     33 H4A1        1.4170    1.5710    1.8860 h1        1 KAM      0.050700
     34 H4A2       -0.3540    1.1900    1.7640 h1        1 KAM      0.050700
     35 HC6        -1.0650   -0.4850    6.0920 h4        1 KAM      0.081100
     36 HA51       -1.5340    1.7990    3.5580 h1        1 KAM      0.024700
     37 HA52       -2.0270    0.1770    2.8060 h1        1 KAM      0.024700
     38 HNC9        0.5020   -1.0250    0.8500 hn        1 KAM      0.385800
     39 HC91        2.9860    0.6230   -0.9530 hc        1 KAM      0.039367
     40 HC92        1.9210    1.7440   -1.9030 hc        1 KAM      0.039367
     41 HC93        2.2570    2.0770   -0.1520 hc        1 KAM      0.039367
     42 HC8        -0.0480    1.1580   -0.5190 h1        1 KAM      0.049700
     43 HC61       -0.7710   -0.4200   -3.2920 hc        1 KAM      0.059700
     44 HC62        0.0400    1.1430   -2.8760 hc        1 KAM      0.059700
     45 HC51        2.2290    0.2330   -3.7080 hc        1 KAM      0.045700
     46 HC52        1.4380   -1.3490   -4.0800 hc        1 KAM      0.045700
     47 HC41       -0.1230   -0.1890   -5.6800 hc        1 KAM      0.027700
     48 HC42        0.6640    1.3910   -5.3050 hc        1 KAM      0.027700
     49 HC31        2.8760    0.4560   -6.1120 hc        1 KAM      0.042700
     50 HC32        2.0550   -1.0920   -6.5440 hc        1 KAM      0.042700
     51 HC21        0.4850    0.2120   -8.0600 hc        1 KAM      0.018700
     52 HC22        1.4510    1.7020   -7.7160 hc        1 KAM      0.018700
@<TRIPOS>BOND
     1    1    2 ar  
     2    1    9 ar  
     3    2    3 1   
     4    2    4 ar  
     5    3   29 1   
     6    3   30 1   
     7    3   31 1   
     8    4    5 1   
     9    4    6 ar  
    10    5   32 1   
    11    6    7 1   
    12    6    8 ar  
    13    7   16 1   
    14    7   33 1   
    15    7   34 1   
    16    8    9 ar  
    17    8   10 1   
    18    9   35 1   
    19   10   11 1   
    20   10   36 1   
    21   10   37 1   
    22   11   12 1   
    23   12   13 1   
    24   12   14 1   
    25   12   15 1   
    26   16   18 1   
    27   16   38 1   
    28   17   18 1   
    29   17   39 1   
    30   17   40 1   
    31   17   41 1   
    32   18   19 1   
    33   18   42 1   
    34   19   20 2   
    35   19   21 1   
    36   21   22 1   
    37   21   43 1   
    38   21   44 1   
    39   22   23 1   
    40   22   45 1   
    41   22   46 1   
    42   23   24 1   
    43   23   47 1   
    44   23   48 1   
    45   24   25 1   
    46   24   49 1   
    47   24   50 1   
    48   25   26 1   
    49   25   51 1   
    50   25   52 1   
    51   26   27 1   
    52   26   28 1   
@<TRIPOS>SUBSTRUCTURE
     1 KAM         1 TEMP              0 ****  ****    0 ROOT
