@<TRIPOS>MOLECULE
KAM
   53    53     1     0     0
SMALL
bcc


@<TRIPOS>ATOM
      1 N1          0.5800   -0.0070   -0.2200 nb        1 KAM     -0.664000
      2 C2          1.6130    0.7200    0.2740 ca        1 KAM      0.327600
      3 C2A         2.4700    1.5160   -0.6540 c3        1 KAM     -0.141400
      4 C3          1.8980    0.7510    1.6610 ca        1 KAM     -0.018200
      5 O3          3.0150    1.4060    2.1420 oh        1 KAM     -0.512100
      6 C4          1.0930    0.0370    2.5750 ca        1 KAM     -0.066300
      7 C4A         1.3950    0.0610    4.0460 c3        1 KAM      0.214100
      8 C5          0.0490   -0.7340    2.0480 ca        1 KAM     -0.159600
      9 C6         -0.1580   -0.7120    0.6470 ca        1 KAM      0.404200
     10 C5A        -0.8190   -1.5960    2.9170 c3        1 KAM      0.234700
     11 OP4        -1.6910   -2.3720    2.1620 os        1 KAM     -0.572200
     12 P          -3.2700   -2.4490    2.6790 p5        1 KAM      1.428800
     13 OP1        -3.9120   -3.5540    1.9500 o         1 KAM     -0.832000
     14 OP2        -3.2290   -2.2200    4.1400 o         1 KAM     -0.832000
     15 OP3        -3.7650   -1.0000    2.1150 oh        1 KAM     -0.783400
     16 N9C         1.4990    1.3990    4.5990 n3        1 KAM     -0.808200
     17 C9C         2.9810    0.4880    6.4590 c3        1 KAM     -0.126100
     18 C8C         1.8660    1.4360    6.0070 c3        1 KAM      0.077500
     19 C7C         2.2860    2.8460    6.4450 c         1 KAM      0.573100
     20 O7C         2.9020    3.6070    5.6940 o         1 KAM     -0.542100
     21 C6C         1.8990    3.2080    7.8490 c3        1 KAM     -0.178400
     22 C5C         2.8990    4.1350    8.5080 c3        1 KAM     -0.074400
     23 C4C         2.4420    4.5450    9.8920 c3        1 KAM     -0.079400
     24 C3C         3.4740    5.4110   10.5860 c3        1 KAM     -0.064400
     25 C2C         3.0100    5.8510   11.9530 c3        1 KAM     -0.192400
     26 C1C         4.1310    6.5570   12.7340 c         1 KAM      0.907600
     27 O1C         3.8470    7.6400   13.3240 o         1 KAM     -0.856800
     28 O2C         5.2760    6.0190   12.7740 o         1 KAM     -0.856800
     29 HA21        3.5460    1.2720   -0.4710 hc        1 KAM      0.041700
     30 HA22        2.3130    2.6080   -0.4660 hc        1 KAM      0.041700
     31 HA23        2.2340    1.3070   -1.7260 hc        1 KAM      0.041700
     32 HO3         3.0850    2.2440    1.6600 ho        1 KAM      0.414000
     33 H4A1        0.5780   -0.4670    4.6180 h1        1 KAM      0.045700
     34 H4A2        2.3480   -0.5370    4.1850 h1        1 KAM      0.045700
     35 HC6        -0.9840   -1.3130    0.2150 h4        1 KAM      0.061100
     36 HA51       -0.1350   -2.2820    3.5020 h1        1 KAM      0.043200
     37 HA52       -1.3970   -0.9540    3.6450 h1        1 KAM      0.043200
     38 HNC9        2.1400    1.9580    4.0620 hn        1 KAM      0.379800
     39 HC91        3.8950    0.6230    5.8340 hc        1 KAM      0.043700
     40 HC92        3.2410    0.6950    7.5250 hc        1 KAM      0.043700
     41 HC93        2.6420   -0.5730    6.3790 hc        1 KAM      0.043700
     42 HC8         0.9260    1.1610    6.5770 h1        1 KAM      0.072700
     43 HC61        0.8920    3.7060    7.8020 hc        1 KAM      0.064200
     44 HC62        1.7830    2.2770    8.4640 hc        1 KAM      0.064200
     45 HC51        3.8940    3.6220    8.5770 hc        1 KAM      0.048200
     46 HC52        3.0420    5.0450    7.8670 hc        1 KAM      0.048200
     47 HC41        1.4720    5.1030    9.8170 hc        1 KAM      0.026200
     48 HC42        2.2480    3.6280   10.5100 hc        1 KAM      0.026200
     49 HC31        4.4390    4.8470   10.6970 hc        1 KAM      0.044700
     50 HC32        3.6900    6.3120    9.9550 hc        1 KAM      0.044700
     51 HC21        2.6880    4.9600   12.5500 hc        1 KAM      0.019200
     52 HC22        2.1330    6.5390   11.8620 hc        1 KAM      0.019200
     53 H9C2       -3.7720   -0.3360    2.7960 ho        1 KAM      0.427000
@<TRIPOS>BOND
     1    1    2 ar  
     2    1    9 ar  
     3    2    3 1   
     4    2    4 ar  
     5    3   29 1   
     6    3   30 1   
     7    3   31 1   
     8    4    5 1   
     9    4    6 ar  
    10    5   32 1   
    11    6    7 1   
    12    6    8 ar  
    13    7   16 1   
    14    7   33 1   
    15    7   34 1   
    16    8    9 ar  
    17    8   10 1   
    18    9   35 1   
    19   10   11 1   
    20   10   36 1   
    21   10   37 1   
    22   11   12 1   
    23   12   13 1   
    24   12   14 1   
    25   12   15 1   
    26   15   53 1   
    27   16   18 1   
    28   16   38 1   
    29   17   18 1   
    30   17   39 1   
    31   17   40 1   
    32   17   41 1   
    33   18   19 1   
    34   18   42 1   
    35   19   20 2   
    36   19   21 1   
    37   21   22 1   
    38   21   43 1   
    39   21   44 1   
    40   22   23 1   
    41   22   45 1   
    42   22   46 1   
    43   23   24 1   
    44   23   47 1   
    45   23   48 1   
    46   24   25 1   
    47   24   49 1   
    48   24   50 1   
    49   25   26 1   
    50   25   51 1   
    51   25   52 1   
    52   26   27 1   
    53   26   28 1   
@<TRIPOS>SUBSTRUCTURE
     1 KAM         1 TEMP              0 ****  ****    0 ROOT
