@<TRIPOS>MOLECULE
KAO
   59    62     1     0     0
SMALL
bcc


@<TRIPOS>ATOM
      1 N1          0.0360    0.1960    0.2450 na        1 KAO      0.129300
      2 C2          1.3980   -0.2210    0.4320 cc        1 KAO      0.017300
      3 C3          1.5900   -0.3160    1.8230 cd        1 KAO     -0.266300
      4 C4          0.3000   -0.0010    2.4040 cd        1 KAO      0.334600
      5 N5         -0.6110    0.2560    1.4250 nc        1 KAO     -0.498800
      6 N6          2.2910   -0.4800   -0.6100 ns        1 KAO     -0.438100
      7 C7          3.6480   -0.0780   -0.4900 c         1 KAO      0.765100
      8 C8         -0.0110    0.0450    3.8690 c3        1 KAO     -0.074300
      9 C9         -0.4650    1.4500    4.2510 c3        1 KAO     -0.086433
     10 C10        -1.1200   -0.9500    4.1910 c3        1 KAO     -0.086433
     11 C11         1.2310   -0.3140    4.6750 c3        1 KAO     -0.086433
     12 C12        -0.6370    0.1620   -1.0100 ca        1 KAO      0.005800
     13 C13        -0.1320    0.9130   -2.0920 ca        1 KAO     -0.129000
     14 C14        -0.7820    0.8830   -3.3210 ca        1 KAO     -0.123000
     15 C15        -1.9470    0.1290   -3.5000 ca        1 KAO     -0.073300
     16 C16        -2.4560   -0.5990   -2.4200 ca        1 KAO     -0.123000
     17 C17        -1.8160   -0.5900   -1.1840 ca        1 KAO     -0.129000
     18 C18        -2.6430    0.1200   -4.8070 c3        1 KAO     -0.056800
     19 O19         4.1280    0.2420    0.6170 o         1 KAO     -0.590100
     20 N20         4.4130   -0.0790   -1.6780 ns        1 KAO     -0.459100
     21 C21         5.8180    0.0360   -1.6820 ca        1 KAO      0.063600
     22 C22         6.5510   -0.6030   -2.7100 ca        1 KAO     -0.156500
     23 C23         7.9280   -0.4490   -2.7930 ca        1 KAO     -0.095000
     24 C24         8.6230    0.3300   -1.8570 cp        1 KAO     -0.056000
     25 C25         7.8980    0.9570   -0.8350 ca        1 KAO     -0.095000
     26 C26         6.5170    0.8220   -0.7420 ca        1 KAO     -0.156500
     27 C27        10.0680    0.4820   -1.9450 cp        1 KAO     -0.146300
     28 C28        10.8750    0.5120   -0.7970 ca        1 KAO     -0.085000
     29 C29        12.2550    0.6580   -0.9390 ca        1 KAO     -0.244300
     30 C30        12.7910    0.7700   -2.2340 ca        1 KAO      0.392200
     31 N31        12.0380    0.7450   -3.3520 nb        1 KAO     -0.664000
     32 C32        10.7090    0.6050   -3.2010 ca        1 KAO      0.401200
     33 H1          2.5180   -0.5440    2.3370 ha        1 KAO      0.190000
     34 H2          1.8890   -0.5360   -1.5220 hn        1 KAO      0.316500
     35 H3         -0.6570    1.4980    5.3500 hc        1 KAO      0.039811
     36 H4         -1.4040    1.7190    3.7110 hc        1 KAO      0.039811
     37 H5          0.3250    2.1960    3.9920 hc        1 KAO      0.039811
     38 H6         -0.8180   -1.9800    3.8840 hc        1 KAO      0.039811
     39 H7         -2.0610   -0.6760    3.6560 hc        1 KAO      0.039811
     40 H8         -1.3210   -0.9490    5.2890 hc        1 KAO      0.039811
     41 H9          0.9930   -0.2840    5.7660 hc        1 KAO      0.039811
     42 H10         1.5820   -1.3410    4.4140 hc        1 KAO      0.039811
     43 H11         2.0540    0.4110    4.4680 hc        1 KAO      0.039811
     44 H12         0.7590    1.5480   -1.9670 ha        1 KAO      0.150000
     45 H13        -0.3790    1.4720   -4.1590 ha        1 KAO      0.139000
     46 H14        -3.3770   -1.1890   -2.5460 ha        1 KAO      0.139000
     47 H15        -2.2420   -1.1650   -0.3460 ha        1 KAO      0.150000
     48 H16        -1.9270    0.3030   -5.6450 hc        1 KAO      0.048033
     49 H17        -3.4210    0.9250   -4.8290 hc        1 KAO      0.048033
     50 H18        -3.1510   -0.8600   -4.9820 hc        1 KAO      0.048033
     51 H19         4.0410   -0.5680   -2.4640 hn        1 KAO      0.308500
     52 H20         6.0390   -1.2270   -3.4580 ha        1 KAO      0.151500
     53 H21         8.4810   -0.9580   -3.5980 ha        1 KAO      0.139000
     54 H22         8.4260    1.5780   -0.0940 ha        1 KAO      0.139000
     55 H23         5.9780    1.3260    0.0770 ha        1 KAO      0.151500
     56 H24        10.4220    0.4150    0.2010 ha        1 KAO      0.143000
     57 H25        12.9130    0.6840   -0.0610 ha        1 KAO      0.144000
     58 H26        13.8780    0.8860   -2.3910 h4        1 KAO      0.023100
     59 H27        10.1180    0.5960   -4.1350 h4        1 KAO      0.023100
@<TRIPOS>BOND
     1    1    2 1   
     2    1    5 1   
     3    1   12 1   
     4    2    3 2   
     5    2    6 1   
     6    3    4 1   
     7    3   33 1   
     8    4    5 2   
     9    4    8 1   
    10    6    7 1   
    11    6   34 1   
    12    7   19 2   
    13    7   20 1   
    14    8    9 1   
    15    8   10 1   
    16    8   11 1   
    17    9   35 1   
    18    9   36 1   
    19    9   37 1   
    20   10   38 1   
    21   10   39 1   
    22   10   40 1   
    23   11   41 1   
    24   11   42 1   
    25   11   43 1   
    26   12   13 ar  
    27   12   17 ar  
    28   13   14 ar  
    29   13   44 1   
    30   14   15 ar  
    31   14   45 1   
    32   15   16 ar  
    33   15   18 1   
    34   16   17 ar  
    35   16   46 1   
    36   17   47 1   
    37   18   48 1   
    38   18   49 1   
    39   18   50 1   
    40   20   21 1   
    41   20   51 1   
    42   21   22 ar  
    43   21   26 ar  
    44   22   23 ar  
    45   22   52 1   
    46   23   24 ar  
    47   23   53 1   
    48   24   25 ar  
    49   24   27 1   
    50   25   26 ar  
    51   25   54 1   
    52   26   55 1   
    53   27   28 ar  
    54   27   32 ar  
    55   28   29 ar  
    56   28   56 1   
    57   29   30 ar  
    58   29   57 1   
    59   30   31 ar  
    60   30   58 1   
    61   31   32 ar  
    62   32   59 1   
@<TRIPOS>SUBSTRUCTURE
     1 KAO         1 TEMP              0 ****  ****    0 ROOT
