@<TRIPOS>MOLECULE
KAO
   61    64     1     0     0
SMALL
bcc


@<TRIPOS>ATOM
      1 N1          0.3930   -0.0430   -0.2190 na        1 KAO      0.266300
      2 C2          1.7700   -0.4040   -0.2630 cc        1 KAO     -0.260700
      3 C3          2.3020   -0.1570    1.0380 cd        1 KAO     -0.224300
      4 C4          1.1950    0.3580    1.7840 cd        1 KAO      0.362600
      5 N5          0.0690    0.4030    0.9750 nc        1 KAO     -0.374800
      6 N6          2.4400   -0.9530   -1.4090 n4        1 KAO     -0.445200
      7 C7          3.0360    0.1250   -2.2760 c         1 KAO      0.481100
      8 C8          1.1980    0.7840    3.2240 c3        1 KAO     -0.086300
      9 C9          0.7940    2.2510    3.3210 c3        1 KAO     -0.096433
     10 C10         0.2060   -0.0720    4.0050 c3        1 KAO     -0.096433
     11 C11         2.5920    0.6000    3.8090 c3        1 KAO     -0.096433
     12 C12        -0.5070   -0.2300   -1.3230 ca        1 KAO     -0.117200
     13 C13        -1.2770    0.8490   -1.7930 ca        1 KAO     -0.115000
     14 C14        -2.1590    0.6440   -2.8520 ca        1 KAO     -0.112000
     15 C15        -2.3010   -0.6180   -3.4410 ca        1 KAO      0.001700
     16 C16        -1.5420   -1.6920   -2.9450 ca        1 KAO     -0.112000
     17 C17        -0.6590   -1.5160   -1.8870 ca        1 KAO     -0.115000
     18 C18        -3.2620   -0.8310   -4.5440 c3        1 KAO     -0.085800
     19 O19         2.8990    0.0850   -3.4870 o         1 KAO     -0.314100
     20 N20         3.7960    1.2240   -1.6030 n4        1 KAO     -0.474200
     21 C21         5.2070    0.8620   -1.4360 ca        1 KAO     -0.166400
     22 C22         6.0360    0.7560   -2.5720 ca        1 KAO     -0.079500
     23 C23         7.3870    0.4990   -2.4010 ca        1 KAO     -0.118000
     24 C24         7.9480    0.3490   -1.1140 cp        1 KAO      0.121000
     25 C25         7.0950    0.4540    0.0060 ca        1 KAO     -0.118000
     26 C26         5.7410    0.7070   -0.1400 ca        1 KAO     -0.079500
     27 C27         9.3640    0.1070   -0.9500 cp        1 KAO     -0.252300
     28 C28         9.8710   -0.6240    0.1440 ca        1 KAO     -0.050000
     29 C29        11.2430   -0.8270    0.2500 ca        1 KAO     -0.239300
     30 C30        12.0860   -0.2860   -0.7440 ca        1 KAO      0.464200
     31 N31        11.6250    0.4220   -1.7940 nb        1 KAO     -0.642000
     32 C32        10.3000    0.6100   -1.8910 ca        1 KAO      0.453200
     33 H1          3.3030   -0.3630    1.4080 ha        1 KAO      0.193000
     34 H2          1.7660   -1.4900   -2.0040 hn        1 KAO      0.514300
     35 H3          0.8300    2.5730    4.3910 hc        1 KAO      0.055033
     36 H4          1.4920    2.8930    2.7350 hc        1 KAO      0.055033
     37 H5         -0.2470    2.4020    2.9460 hc        1 KAO      0.055033
     38 H6          0.4620   -1.1550    3.9140 hc        1 KAO      0.055033
     39 H7          0.2430    0.2130    5.0850 hc        1 KAO      0.055033
     40 H8         -0.8350    0.0880    3.6340 hc        1 KAO      0.055033
     41 H9          3.3410    1.2120    3.2520 hc        1 KAO      0.055033
     42 H10         2.8970   -0.4730    3.7800 hc        1 KAO      0.055033
     43 H11         2.5900    0.9350    4.8770 hc        1 KAO      0.055033
     44 H12        -1.2140    1.8440   -1.3210 ha        1 KAO      0.154000
     45 H13        -2.7680    1.4900   -3.2170 ha        1 KAO      0.175500
     46 H14        -1.6720   -2.6970   -3.3840 ha        1 KAO      0.175500
     47 H15        -0.1540   -2.3950   -1.4560 ha        1 KAO      0.154000
     48 H16        -4.2600   -1.1220   -4.1200 hc        1 KAO      0.078367
     49 H17        -3.4010    0.1010   -5.1460 hc        1 KAO      0.078367
     50 H18        -2.9230   -1.6500   -5.2260 hc        1 KAO      0.078367
     51 H19         3.7370    2.0570   -2.2200 hn        1 KAO      0.503800
     52 H20         5.6320    0.8780   -3.5920 ha        1 KAO      0.159500
     53 H21         8.0330    0.4070   -3.2940 ha        1 KAO      0.188500
     54 H22         7.5180    0.3600    1.0230 ha        1 KAO      0.188500
     55 H23         5.1120    0.8160    0.7610 ha        1 KAO      0.159500
     56 H24         9.1920   -1.0480    0.8990 ha        1 KAO      0.141000
     57 H25        11.6710   -1.3970    1.0890 ha        1 KAO      0.175000
     58 H26        13.1860   -0.4250   -0.7000 h4        1 KAO      0.060100
     59 H27         9.9730    1.2160   -2.7560 h4        1 KAO      0.031100
     60 H62         3.1910   -1.5870   -1.0820 hn        1 KAO      0.514300
     61 H202        3.3770    1.4480   -0.6810 hn        1 KAO      0.503800
@<TRIPOS>BOND
     1    1    2 1   
     2    1    5 1   
     3    1   12 1   
     4    2    3 2   
     5    2    6 1   
     6    3    4 1   
     7    3   33 1   
     8    4    5 2   
     9    4    8 1   
    10    6    7 1   
    11    6   34 1   
    12    6   60 1   
    13    7   19 2   
    14    7   20 1   
    15    8    9 1   
    16    8   10 1   
    17    8   11 1   
    18    9   35 1   
    19    9   36 1   
    20    9   37 1   
    21   10   38 1   
    22   10   39 1   
    23   10   40 1   
    24   11   41 1   
    25   11   42 1   
    26   11   43 1   
    27   12   13 ar  
    28   12   17 ar  
    29   13   14 ar  
    30   13   44 1   
    31   14   15 ar  
    32   14   45 1   
    33   15   16 ar  
    34   15   18 1   
    35   16   17 ar  
    36   16   46 1   
    37   17   47 1   
    38   18   48 1   
    39   18   49 1   
    40   18   50 1   
    41   20   21 1   
    42   20   51 1   
    43   20   61 1   
    44   21   22 ar  
    45   21   26 ar  
    46   22   23 ar  
    47   22   52 1   
    48   23   24 ar  
    49   23   53 1   
    50   24   25 ar  
    51   24   27 1   
    52   25   26 ar  
    53   25   54 1   
    54   26   55 1   
    55   27   28 ar  
    56   27   32 ar  
    57   28   29 ar  
    58   28   56 1   
    59   29   30 ar  
    60   29   57 1   
    61   30   31 ar  
    62   30   58 1   
    63   31   32 ar  
    64   32   59 1   
@<TRIPOS>SUBSTRUCTURE
     1 KAO         1 TEMP              0 ****  ****    0 ROOT
