@<TRIPOS>MOLECULE
KAO
   59    62     1     0     0
SMALL
bcc


@<TRIPOS>ATOM
      1 N1          0.0350    0.2030    0.2440 na        1 KAO      0.129300
      2 C2          1.3960   -0.2140    0.4330 cc        1 KAO      0.017300
      3 C3          1.5880   -0.3030    1.8240 cd        1 KAO     -0.266300
      4 C4          0.2980    0.0150    2.4040 cd        1 KAO      0.334600
      5 N5         -0.6130    0.2680    1.4240 nc        1 KAO     -0.498800
      6 N6          2.2890   -0.4780   -0.6070 n         1 KAO     -0.438100
      7 C7          3.6460   -0.0770   -0.4890 c         1 KAO      0.765100
      8 C8         -0.0130    0.0680    3.8680 c3        1 KAO     -0.074300
      9 C9         -0.4680    1.4740    4.2440 c3        1 KAO     -0.086433
     10 C10        -1.1220   -0.9260    4.1950 c3        1 KAO     -0.086433
     11 C11         1.2290   -0.2870    4.6760 c3        1 KAO     -0.086433
     12 C12        -0.6390    0.1640   -1.0110 ca        1 KAO      0.005800
     13 C13        -0.1320    0.9090   -2.0960 ca        1 KAO     -0.129500
     14 C14        -0.7820    0.8750   -3.3250 ca        1 KAO     -0.122500
     15 C15        -1.9480    0.1220   -3.5010 ca        1 KAO     -0.073300
     16 C16        -2.4600   -0.5990   -2.4170 ca        1 KAO     -0.122500
     17 C17        -1.8200   -0.5860   -1.1820 ca        1 KAO     -0.129500
     18 C18        -2.6270    0.0830   -4.8160 c3        1 KAO     -0.056800
     19 O19         4.1260    0.2470    0.6170 o         1 KAO     -0.590100
     20 N20         4.4120   -0.0830   -1.6760 n         1 KAO     -0.459100
     21 C21         5.8170    0.0310   -1.6800 ca        1 KAO      0.063600
     22 C22         6.5490   -0.6120   -2.7060 ca        1 KAO     -0.156500
     23 C23         7.9270   -0.4600   -2.7880 ca        1 KAO     -0.095000
     24 C24         8.6220    0.3210   -1.8550 cp        1 KAO     -0.056000
     25 C25         7.8970    0.9530   -0.8350 ca        1 KAO     -0.095000
     26 C26         6.5170    0.8200   -0.7430 ca        1 KAO     -0.156500
     27 C27        10.0680    0.4710   -1.9420 cp        1 KAO     -0.146300
     28 C28        10.8740    0.5040   -0.7940 ca        1 KAO     -0.085000
     29 C29        12.2540    0.6480   -0.9350 ca        1 KAO     -0.244300
     30 C30        12.7910    0.7550   -2.2310 ca        1 KAO      0.392200
     31 N31        12.0390    0.7280   -3.3480 nb        1 KAO     -0.664000
     32 C32        10.7100    0.5890   -3.1980 ca        1 KAO      0.401200
     33 H1          2.5160   -0.5290    2.3400 ha        1 KAO      0.190000
     34 H2          1.8870   -0.5370   -1.5200 hn        1 KAO      0.316500
     35 H3          0.3210    2.2190    3.9820 hc        1 KAO      0.039811
     36 H4         -1.4070    1.7410    3.7030 hc        1 KAO      0.039811
     37 H5         -0.6600    1.5280    5.3430 hc        1 KAO      0.039811
     38 H6         -1.3230   -0.9200    5.2930 hc        1 KAO      0.039811
     39 H7         -2.0630   -0.6550    3.6590 hc        1 KAO      0.039811
     40 H8         -0.8200   -1.9570    3.8920 hc        1 KAO      0.039811
     41 H9          2.0520    0.4370    4.4660 hc        1 KAO      0.039811
     42 H10         1.5800   -1.3150    4.4210 hc        1 KAO      0.039811
     43 H11         0.9910   -0.2520    5.7670 hc        1 KAO      0.039811
     44 H12         0.7590    1.5440   -1.9740 ha        1 KAO      0.150000
     45 H13        -0.3790    1.4620   -4.1650 ha        1 KAO      0.139000
     46 H14        -3.3850   -1.1840   -2.5400 ha        1 KAO      0.139000
     47 H15        -2.2480   -1.1540   -0.3400 ha        1 KAO      0.150000
     48 H16        -3.7350   -0.0030   -4.6900 hc        1 KAO      0.048033
     49 H17        -2.2730   -0.8030   -5.4020 hc        1 KAO      0.048033
     50 H18        -2.4100    1.0050   -5.4090 hc        1 KAO      0.048033
     51 H19         4.0400   -0.5730   -2.4610 hn        1 KAO      0.308500
     52 H20         6.0370   -1.2390   -3.4520 ha        1 KAO      0.151500
     53 H21         8.4790   -0.9720   -3.5910 ha        1 KAO      0.139000
     54 H22         8.4250    1.5760   -0.0960 ha        1 KAO      0.139000
     55 H23         5.9780    1.3270    0.0740 ha        1 KAO      0.151500
     56 H24        10.4200    0.4110    0.2040 ha        1 KAO      0.143000
     57 H25        12.9110    0.6750   -0.0570 ha        1 KAO      0.144000
     58 H26        13.8780    0.8700   -2.3860 h4        1 KAO      0.023100
     59 H27        10.1190    0.5790   -4.1320 h4        1 KAO      0.023100
@<TRIPOS>BOND
     1    1    2 1   
     2    1    5 1   
     3    1   12 1   
     4    2    3 2   
     5    2    6 1   
     6    3    4 1   
     7    3   33 1   
     8    4    5 2   
     9    4    8 1   
    10    6    7 1   
    11    6   34 1   
    12    7   19 2   
    13    7   20 1   
    14    8    9 1   
    15    8   10 1   
    16    8   11 1   
    17    9   35 1   
    18    9   36 1   
    19    9   37 1   
    20   10   38 1   
    21   10   39 1   
    22   10   40 1   
    23   11   41 1   
    24   11   42 1   
    25   11   43 1   
    26   12   13 ar  
    27   12   17 ar  
    28   13   14 ar  
    29   13   44 1   
    30   14   15 ar  
    31   14   45 1   
    32   15   16 ar  
    33   15   18 1   
    34   16   17 ar  
    35   16   46 1   
    36   17   47 1   
    37   18   48 1   
    38   18   49 1   
    39   18   50 1   
    40   20   21 1   
    41   20   51 1   
    42   21   22 ar  
    43   21   26 ar  
    44   22   23 ar  
    45   22   52 1   
    46   23   24 ar  
    47   23   53 1   
    48   24   25 ar  
    49   24   27 1   
    50   25   26 ar  
    51   25   54 1   
    52   26   55 1   
    53   27   28 ar  
    54   27   32 ar  
    55   28   29 ar  
    56   28   56 1   
    57   29   30 ar  
    58   29   57 1   
    59   30   31 ar  
    60   30   58 1   
    61   31   32 ar  
    62   32   59 1   
@<TRIPOS>SUBSTRUCTURE
     1 KAO         1 TEMP              0 ****  ****    0 ROOT
