@<TRIPOS>MOLECULE
KAO
   59    62     1     0     0
SMALL
bcc


@<TRIPOS>ATOM
      1 N1         -3.6340    0.4620   -0.1380 na        1 KAO      0.126300
      2 C2         -2.3020    0.7880    0.2920 cc        1 KAO      0.020300
      3 C3         -2.2490    2.1900    0.3670 cd        1 KAO     -0.269300
      4 C4         -3.5890    2.6370    0.0320 cd        1 KAO      0.334600
      5 N5         -4.3940    1.5720   -0.2200 nc        1 KAO     -0.495800
      6 N6         -1.3140   -0.1580    0.5740 n         1 KAO     -0.439100
      7 C7          0.0310    0.0930    0.1940 c         1 KAO      0.766100
      8 C8         -3.9990    4.0770   -0.0300 c3        1 KAO     -0.076300
      9 C9         -3.1560    4.7780   -1.0910 c3        1 KAO     -0.085100
     10 C10        -5.4720    4.2350   -0.3810 c3        1 KAO     -0.085100
     11 C11        -3.7400    4.7170    1.3300 c3        1 KAO     -0.085100
     12 C12        -4.1830   -0.8520   -0.0810 ca        1 KAO      0.005800
     13 C13        -3.5700   -1.8940   -0.8070 ca        1 KAO     -0.129500
     14 C14        -4.0980   -3.1790   -0.7570 ca        1 KAO     -0.122500
     15 C15        -5.2450   -3.4570   -0.0050 ca        1 KAO     -0.073300
     16 C16        -5.8640   -2.4160    0.6960 ca        1 KAO     -0.122500
     17 C17        -5.3460   -1.1250    0.6660 ca        1 KAO     -0.129500
     18 C18        -5.7950   -4.8300    0.0510 c3        1 KAO     -0.056800
     19 O19         0.4030    1.2400   -0.1290 o         1 KAO     -0.590100
     20 N20         0.9100   -1.0130    0.2180 n         1 KAO     -0.459100
     21 C21         2.3100   -0.8770    0.1260 ca        1 KAO      0.063600
     22 C22         3.1300   -1.8230    0.7870 ca        1 KAO     -0.156500
     23 C23         4.5110   -1.7690    0.6580 ca        1 KAO     -0.095000
     24 C24         5.1230   -0.7740   -0.1170 cp        1 KAO     -0.056000
     25 C25         4.3120    0.1660   -0.7650 ca        1 KAO     -0.095000
     26 C26         2.9270    0.1220   -0.6550 ca        1 KAO     -0.156500
     27 C27         6.5730   -0.7190   -0.2430 cp        1 KAO     -0.146300
     28 C28         7.2620    0.5040   -0.2680 ca        1 KAO     -0.085000
     29 C29         8.6510    0.5000   -0.3890 ca        1 KAO     -0.244300
     30 C30         9.3160   -0.7360   -0.4810 ca        1 KAO      0.392200
     31 N31         8.6770   -1.9230   -0.4610 nb        1 KAO     -0.664000
     32 C32         7.3380   -1.9050   -0.3440 ca        1 KAO      0.401200
     33 H1         -1.3820    2.8010    0.5960 ha        1 KAO      0.189000
     34 H2         -1.6240   -1.1060    0.6330 hn        1 KAO      0.316500
     35 H3         -3.3520    4.3360   -2.0960 hc        1 KAO      0.039367
     36 H4         -3.4130    5.8640   -1.1190 hc        1 KAO      0.039367
     37 H5         -2.0700    4.6700   -0.8570 hc        1 KAO      0.039367
     38 H6         -6.1140    3.7360    0.3840 hc        1 KAO      0.039367
     39 H7         -5.7350    5.3200   -0.4140 hc        1 KAO      0.039367
     40 H8         -5.6890    3.7850   -1.3790 hc        1 KAO      0.039367
     41 H9         -2.6640    4.6110    1.6110 hc        1 KAO      0.039367
     42 H10        -3.9960    5.8030    1.2920 hc        1 KAO      0.039367
     43 H11        -4.3650    4.2280    2.1150 hc        1 KAO      0.039367
     44 H12        -2.6910   -1.6960   -1.4410 ha        1 KAO      0.150000
     45 H13        -3.6130   -3.9860   -1.3290 ha        1 KAO      0.139000
     46 H14        -6.7760   -2.6190    1.2790 ha        1 KAO      0.139000
     47 H15        -5.8570   -0.3210    1.2200 ha        1 KAO      0.150000
     48 H16        -5.3860   -5.3680    0.9440 hc        1 KAO      0.048033
     49 H17        -6.9100   -4.8110    0.1360 hc        1 KAO      0.048033
     50 H18        -5.5200   -5.4110   -0.8640 hc        1 KAO      0.048033
     51 H19         0.6090   -1.8290    0.7060 hn        1 KAO      0.308500
     52 H20         2.6840   -2.6150    1.4090 ha        1 KAO      0.151500
     53 H21         5.1320   -2.5120    1.1820 ha        1 KAO      0.139000
     54 H22         4.7740    0.9520   -1.3830 ha        1 KAO      0.139000
     55 H23         2.3180    0.8800   -1.1750 ha        1 KAO      0.151500
     56 H24         6.7100    1.4520   -0.1870 ha        1 KAO      0.143000
     57 H25         9.2180    1.4390   -0.4090 ha        1 KAO      0.144000
     58 H26        10.4150   -0.7840   -0.5770 h4        1 KAO      0.023100
     59 H27         6.8430   -2.8930   -0.3390 h4        1 KAO      0.023100
@<TRIPOS>BOND
     1    1    2 1   
     2    1    5 1   
     3    1   12 1   
     4    2    3 2   
     5    2    6 1   
     6    3    4 1   
     7    3   33 1   
     8    4    5 2   
     9    4    8 1   
    10    6    7 1   
    11    6   34 1   
    12    7   19 2   
    13    7   20 1   
    14    8    9 1   
    15    8   10 1   
    16    8   11 1   
    17    9   35 1   
    18    9   36 1   
    19    9   37 1   
    20   10   38 1   
    21   10   39 1   
    22   10   40 1   
    23   11   41 1   
    24   11   42 1   
    25   11   43 1   
    26   12   13 ar  
    27   12   17 ar  
    28   13   14 ar  
    29   13   44 1   
    30   14   15 ar  
    31   14   45 1   
    32   15   16 ar  
    33   15   18 1   
    34   16   17 ar  
    35   16   46 1   
    36   17   47 1   
    37   18   48 1   
    38   18   49 1   
    39   18   50 1   
    40   20   21 1   
    41   20   51 1   
    42   21   22 ar  
    43   21   26 ar  
    44   22   23 ar  
    45   22   52 1   
    46   23   24 ar  
    47   23   53 1   
    48   24   25 ar  
    49   24   27 1   
    50   25   26 ar  
    51   25   54 1   
    52   26   55 1   
    53   27   28 ar  
    54   27   32 ar  
    55   28   29 ar  
    56   28   56 1   
    57   29   30 ar  
    58   29   57 1   
    59   30   31 ar  
    60   30   58 1   
    61   31   32 ar  
    62   32   59 1   
@<TRIPOS>SUBSTRUCTURE
     1 KAO         1 TEMP              0 ****  ****    0 ROOT
