@<TRIPOS>MOLECULE
KAP
   29    28     1     0     0
SMALL
bcc


@<TRIPOS>ATOM
      1 CA          3.0140    2.7910   -0.1220 c3        1 KAP     -0.195400
      2 C           4.4800    2.8890    0.2400 c         1 KAP      0.908600
      3 OI1         4.8190    3.2200    1.4070 o         1 KAP     -0.851800
      4 OI2         5.3600    2.6390   -0.6240 o         1 KAP     -0.851800
      5 CB          2.5080    1.4000    0.1900 c3        1 KAP     -0.067400
      6 CG          1.0860    1.2580   -0.3040 c3        1 KAP     -0.079400
      7 CD          0.5030   -0.0420    0.2050 c3        1 KAP     -0.074400
      8 CE         -0.9030   -0.2080   -0.3300 c3        1 KAP     -0.186400
      9 CZ         -1.5350   -1.4360    0.2860 c         1 KAP      0.580100
     10 CH         -2.7990   -2.0140   -0.3080 c3        1 KAP      0.069500
     11 CS         -3.9210   -1.9120    0.6990 c3        1 KAP     -0.086100
     12 O          -1.0270   -1.9590    1.2580 o         1 KAP     -0.547100
     13 N          -2.5850   -3.3800   -0.6420 n3        1 KAP     -0.906800
     14 HA2         2.5060    3.4470    0.3960 hc        1 KAP      0.020200
     15 HA1         2.9020    2.9720   -1.0770 hc        1 KAP      0.020200
     16 HB2         2.5340    1.2540    1.1570 hc        1 KAP      0.045700
     17 HB1         3.0760    0.7390   -0.2540 hc        1 KAP      0.045700
     18 HG2         0.5500    2.0070    0.0250 hc        1 KAP      0.030700
     19 HG1         1.0790    1.2570   -1.2830 hc        1 KAP      0.030700
     20 HD2         0.4800   -0.0280    1.1820 hc        1 KAP      0.038200
     21 HD1         1.0570   -0.7890   -0.0980 hc        1 KAP      0.038200
     22 HE2        -0.8720   -0.3100   -1.3030 hc        1 KAP      0.070700
     23 HE1        -1.4340    0.5810   -0.1020 hc        1 KAP      0.070700
     24 HH         -3.0380   -1.5150   -1.1140 h1        1 KAP      0.036700
     25 HS3        -3.7450   -2.5190    1.4480 hc        1 KAP      0.042700
     26 HS2        -4.7680   -2.1590    0.2710 hc        1 KAP      0.042700
     27 HS1        -3.9790   -0.9910    1.0310 hc        1 KAP      0.042700
     28 H1         -1.9710   -3.4360   -1.3200 hn        1 KAP      0.356800
     29 H2         -3.3750   -3.7560   -0.9140 hn        1 KAP      0.356800
@<TRIPOS>BOND
     1    1    2 1   
     2    1    5 1   
     3    1   14 1   
     4    1   15 1   
     5    2    3 1   
     6    2    4 1   
     7    5    6 1   
     8    5   16 1   
     9    5   17 1   
    10    6    7 1   
    11    6   18 1   
    12    6   19 1   
    13    7    8 1   
    14    7   20 1   
    15    7   21 1   
    16    8    9 1   
    17    8   22 1   
    18    8   23 1   
    19    9   10 1   
    20    9   12 2   
    21   10   11 1   
    22   10   13 1   
    23   10   24 1   
    24   11   25 1   
    25   11   26 1   
    26   11   27 1   
    27   13   28 1   
    28   13   29 1   
@<TRIPOS>SUBSTRUCTURE
     1 KAP         1 TEMP              0 ****  ****    0 ROOT
