@<TRIPOS>MOLECULE
KAP
   30    29     1     0     0
SMALL
bcc


@<TRIPOS>ATOM
      1 CA         -0.8020    0.8770   -1.5160 c3        1 KAP     -0.126400
      2 C          -1.8500    1.8950   -1.8410 c         1 KAP      0.632100
      3 OI1        -1.7980    2.8230   -2.6550 o         1 KAP     -0.551000
      4 OI2        -3.0160    1.7560   -1.1500 oh        1 KAP     -0.616100
      5 CB         -0.9760   -0.3660   -2.3680 c3        1 KAP     -0.081400
      6 CG         -2.0210   -1.3020   -1.7930 c3        1 KAP     -0.092400
      7 CD         -2.5100   -2.3080   -2.8190 c3        1 KAP     -0.070400
      8 CE         -3.8840   -1.9720   -3.3660 c3        1 KAP     -0.179400
      9 CZ         -3.8950   -0.6690   -4.1150 c         1 KAP      0.528100
     10 CH         -4.8260    0.4120   -3.5570 c3        1 KAP      0.067500
     11 CS         -6.2640    0.0120   -3.8880 c3        1 KAP     -0.090100
     12 O          -3.1930   -0.4740   -5.1120 o         1 KAP     -0.537100
     13 N          -4.5200    1.7680   -3.9640 n8        1 KAP     -0.901800
     14 HA2         0.1980    1.3440   -1.7220 hc        1 KAP      0.079200
     15 HA1        -0.8590    0.6170   -0.4270 hc        1 KAP      0.079200
     16 HB2        -1.2620   -0.0710   -3.4150 hc        1 KAP      0.060700
     17 HB1         0.0090   -0.9000   -2.4330 hc        1 KAP      0.060700
     18 HG2        -1.5810   -1.8460   -0.9160 hc        1 KAP      0.050700
     19 HG1        -2.8840   -0.6980   -1.4010 hc        1 KAP      0.050700
     20 HD2        -1.7830   -2.3760   -3.6720 hc        1 KAP      0.053700
     21 HD1        -2.5640   -3.3240   -2.3450 hc        1 KAP      0.053700
     22 HE2        -4.6270   -1.9420   -2.5270 hc        1 KAP      0.064700
     23 HE1        -4.2030   -2.7840   -4.0750 hc        1 KAP      0.064700
     24 HH         -4.6970    0.3930   -2.4290 h1        1 KAP      0.077700
     25 HS3        -6.4310    0.0030   -4.9920 hc        1 KAP      0.046700
     26 HS2        -6.9810    0.7310   -3.4250 hc        1 KAP      0.046700
     27 HS1        -6.4680   -1.0090   -3.4860 hc        1 KAP      0.046700
     28 H1         -4.7770    1.9190   -4.9200 hn        1 KAP      0.362800
     29 H2         -3.5380    1.9490   -3.8640 hn        1 KAP      0.362800
     30 HN3        -3.6500    2.4400   -1.4290 ho        1 KAP      0.455000
@<TRIPOS>BOND
     1    1    2 1   
     2    1    5 1   
     3    1   14 1   
     4    1   15 1   
     5    2    3 2   
     6    2    4 1   
     7    4   30 1   
     8    5    6 1   
     9    5   16 1   
    10    5   17 1   
    11    6    7 1   
    12    6   18 1   
    13    6   19 1   
    14    7    8 1   
    15    7   20 1   
    16    7   21 1   
    17    8    9 1   
    18    8   22 1   
    19    8   23 1   
    20    9   10 1   
    21    9   12 2   
    22   10   11 1   
    23   10   13 1   
    24   10   24 1   
    25   11   25 1   
    26   11   26 1   
    27   11   27 1   
    28   13   28 1   
    29   13   29 1   
@<TRIPOS>SUBSTRUCTURE
     1 KAP         1 TEMP              0 ****  ****    0 ROOT
