@<TRIPOS>MOLECULE
KAP
   30    29     1     0     0
SMALL
bcc


@<TRIPOS>ATOM
      1 CA         -0.7440    0.7590   -1.5400 c3        1 KAP     -0.126400
      2 C          -1.7610    1.8200   -1.8180 c         1 KAP      0.632100
      3 OI1        -1.6920    2.7660   -2.6090 o         1 KAP     -0.551000
      4 OI2        -2.9180    1.7040   -1.1070 oh        1 KAP     -0.616100
      5 CB         -0.9780   -0.4560   -2.4190 c3        1 KAP     -0.081400
      6 CG         -2.0440   -1.3690   -1.8470 c3        1 KAP     -0.092400
      7 CD         -2.5880   -2.3300   -2.8870 c3        1 KAP     -0.070400
      8 CE         -3.9590   -1.9330   -3.3990 c3        1 KAP     -0.179400
      9 CZ         -3.9380   -0.6110   -4.1140 c         1 KAP      0.528100
     10 CH         -4.8200    0.4870   -3.5110 c3        1 KAP      0.067500
     11 CS         -6.2770    0.1460   -3.8240 c3        1 KAP     -0.090100
     12 O          -3.2480   -0.4150   -5.1200 o         1 KAP     -0.537100
     13 N          -4.4730    1.8420   -3.8900 n3        1 KAP     -0.901800
     14 HA2         0.2690    1.1950   -1.7540 hc        1 KAP      0.079200
     15 HA1        -0.7890    0.4720   -0.4570 hc        1 KAP      0.079200
     16 HB2        -1.2730   -0.1240   -3.4520 hc        1 KAP      0.060700
     17 HB1        -0.0150   -1.0220   -2.5170 hc        1 KAP      0.060700
     18 HG2        -1.6070   -1.9500   -0.9920 hc        1 KAP      0.050700
     19 HG1        -2.8780   -0.7460   -1.4220 hc        1 KAP      0.050700
     20 HD2        -2.6700   -3.3560   -2.4380 hc        1 KAP      0.053700
     21 HD1        -1.8800   -2.4020   -3.7560 hc        1 KAP      0.053700
     22 HE2        -4.6850   -1.8980   -2.5440 hc        1 KAP      0.064700
     23 HE1        -4.3200   -2.7150   -4.1210 hc        1 KAP      0.064700
     24 HH         -4.6700    0.4340   -2.3860 h1        1 KAP      0.077700
     25 HS3        -6.4650    0.1720   -4.9250 hc        1 KAP      0.046700
     26 HS2        -6.5100   -0.8770   -3.4430 hc        1 KAP      0.046700
     27 HS1        -6.9590    0.8780   -3.3290 hc        1 KAP      0.046700
     28 H1         -3.5320    2.4170   -1.3570 ho        1 KAP      0.455000
     29 H2         -3.4830    1.9860   -3.8050 hn        1 KAP      0.362800
     30 HN3        -4.7430    2.0260   -4.8370 hn        1 KAP      0.362800
@<TRIPOS>BOND
     1    1    2 1   
     2    1    5 1   
     3    1   14 1   
     4    1   15 1   
     5    2    3 2   
     6    2    4 1   
     7    4   28 1   
     8    5    6 1   
     9    5   16 1   
    10    5   17 1   
    11    6    7 1   
    12    6   18 1   
    13    6   19 1   
    14    7    8 1   
    15    7   20 1   
    16    7   21 1   
    17    8    9 1   
    18    8   22 1   
    19    8   23 1   
    20    9   10 1   
    21    9   12 2   
    22   10   11 1   
    23   10   13 1   
    24   10   24 1   
    25   11   25 1   
    26   11   26 1   
    27   11   27 1   
    28   13   29 1   
    29   13   30 1   
@<TRIPOS>SUBSTRUCTURE
     1 KAP         1 TEMP              0 ****  ****    0 ROOT
