@<TRIPOS>MOLECULE
KAP
   29    28     1     0     0
SMALL
bcc


@<TRIPOS>ATOM
      1 CA          0.7820    0.0520   -3.0600 c3        1 KAP     -0.195400
      2 C           0.2180   -0.7710   -4.2320 c         1 KAP      0.908600
      3 OI1         1.0450   -1.3400   -5.0020 o         1 KAP     -0.850800
      4 OI2        -1.0370   -0.8270   -4.3810 o         1 KAP     -0.850800
      5 CB          0.0390   -0.2400   -1.7800 c3        1 KAP     -0.064400
      6 CG          0.5000    0.6530   -0.6470 c3        1 KAP     -0.079400
      7 CD         -0.2170    0.3220    0.6440 c3        1 KAP     -0.072400
      8 CE          0.3250    1.1510    1.7940 c3        1 KAP     -0.177400
      9 CZ         -0.3320    0.7850    3.0910 c         1 KAP      0.534100
     10 CH          0.5170   -0.0220    4.0810 c3        1 KAP      0.061500
     11 CS          0.8330   -1.3820    3.4600 c3        1 KAP     -0.092100
     12 O          -1.4810    1.1390    3.3790 o         1 KAP     -0.551100
     13 N          -0.0430   -0.1390    5.4160 n3        1 KAP     -0.888800
     14 HA2         0.6820    1.1360   -3.3220 hc        1 KAP      0.019200
     15 HA1         1.8710   -0.1740   -2.9400 hc        1 KAP      0.019200
     16 HB2         0.1940   -1.3150   -1.4970 hc        1 KAP      0.045700
     17 HB1        -1.0610   -0.1020   -1.9620 hc        1 KAP      0.045700
     18 HG2         0.3140    1.7260   -0.9140 hc        1 KAP      0.028200
     19 HG1         1.6060    0.5350   -0.5040 hc        1 KAP      0.028200
     20 HD2        -0.0910   -0.7700    0.8750 hc        1 KAP      0.047700
     21 HD1        -1.3160    0.5140    0.5300 hc        1 KAP      0.047700
     22 HE2         0.1330    2.2380    1.5860 hc        1 KAP      0.060200
     23 HE1         1.4350    1.0100    1.8710 hc        1 KAP      0.060200
     24 HH          1.4890    0.5480    4.2000 h1        1 KAP      0.071700
     25 HS3         1.4660   -1.9870    4.1520 hc        1 KAP      0.049367
     26 HS2        -0.1040   -1.9480    3.2430 hc        1 KAP      0.049367
     27 HS1         1.3900   -1.2330    2.5030 hc        1 KAP      0.049367
     28 H1         -0.4320    0.7430    5.6940 hn        1 KAP      0.349300
     29 H2         -0.7810   -0.8180    5.4210 hn        1 KAP      0.349300
@<TRIPOS>BOND
     1    1    2 1   
     2    1    5 1   
     3    1   14 1   
     4    1   15 1   
     5    2    3 1   
     6    2    4 1   
     7    5    6 1   
     8    5   16 1   
     9    5   17 1   
    10    6    7 1   
    11    6   18 1   
    12    6   19 1   
    13    7    8 1   
    14    7   20 1   
    15    7   21 1   
    16    8    9 1   
    17    8   22 1   
    18    8   23 1   
    19    9   10 1   
    20    9   12 2   
    21   10   11 1   
    22   10   13 1   
    23   10   24 1   
    24   11   25 1   
    25   11   26 1   
    26   11   27 1   
    27   13   28 1   
    28   13   29 1   
@<TRIPOS>SUBSTRUCTURE
     1 KAP         1 TEMP              0 ****  ****    0 ROOT
