@<TRIPOS>MOLECULE
KAP
   30    29     1     0     0
SMALL
bcc


@<TRIPOS>ATOM
      1 CA         -0.9100    0.5250   -1.4730 c3        1 KAP     -0.125400
      2 C          -0.6050    1.9100   -1.9440 c         1 KAP      0.636100
      3 OI1         0.4280    2.5680   -1.8010 o         1 KAP     -0.545000
      4 OI2        -1.6330    2.5240   -2.6020 oh        1 KAP     -0.618100
      5 CB         -1.4160   -0.3490   -2.6010 c3        1 KAP     -0.082400
      6 CG         -2.0020   -1.6440   -2.0800 c3        1 KAP     -0.081400
      7 CD         -2.7470   -2.4030   -3.1600 c3        1 KAP     -0.072400
      8 CE         -4.1900   -1.9650   -3.3210 c3        1 KAP     -0.179400
      9 CZ         -4.3140   -0.6300   -4.0010 c         1 KAP      0.525100
     10 CH         -5.0340    0.4670   -3.2070 c3        1 KAP      0.077500
     11 CS         -6.5360    0.2010   -3.3240 c3        1 KAP     -0.088100
     12 O          -3.8730   -0.4240   -5.1360 o         1 KAP     -0.538100
     13 N          -4.6840    1.8230   -3.5740 n3        1 KAP     -0.895800
     14 HA2         0.0220    0.0900   -1.0240 hc        1 KAP      0.079700
     15 HA1        -1.6850    0.6040   -0.6640 hc        1 KAP      0.079700
     16 HB2        -2.1990    0.2140   -3.1800 hc        1 KAP      0.058700
     17 HB1        -0.5790   -0.5720   -3.3130 hc        1 KAP      0.058700
     18 HG2        -1.1720   -2.2880   -1.6840 hc        1 KAP      0.043700
     19 HG1        -2.6930   -1.4330   -1.2210 hc        1 KAP      0.043700
     20 HD2        -2.2160   -2.2880   -4.1430 hc        1 KAP      0.056200
     21 HD1        -2.7430   -3.4950   -2.9000 hc        1 KAP      0.056200
     22 HE2        -4.6970   -1.9400   -2.3220 hc        1 KAP      0.064700
     23 HE1        -4.7280   -2.7210   -3.9550 hc        1 KAP      0.064700
     24 HH         -4.7360    0.3400   -2.1210 h1        1 KAP      0.069700
     25 HS3        -6.8780    0.3040   -4.3820 hc        1 KAP      0.046367
     26 HS2        -7.1050    0.9250   -2.6930 hc        1 KAP      0.046367
     27 HS1        -6.7550   -0.8350   -2.9730 hc        1 KAP      0.046367
     28 H1         -4.9000    1.9910   -4.5380 hn        1 KAP      0.362300
     29 H2         -3.7050    1.9810   -3.4250 hn        1 KAP      0.362300
     30 HN3        -1.3660    3.4220   -2.8600 ho        1 KAP      0.448000
@<TRIPOS>BOND
     1    1    2 1   
     2    1    5 1   
     3    1   14 1   
     4    1   15 1   
     5    2    3 2   
     6    2    4 1   
     7    4   30 1   
     8    5    6 1   
     9    5   16 1   
    10    5   17 1   
    11    6    7 1   
    12    6   18 1   
    13    6   19 1   
    14    7    8 1   
    15    7   20 1   
    16    7   21 1   
    17    8    9 1   
    18    8   22 1   
    19    8   23 1   
    20    9   10 1   
    21    9   12 2   
    22   10   11 1   
    23   10   13 1   
    24   10   24 1   
    25   11   25 1   
    26   11   26 1   
    27   11   27 1   
    28   13   28 1   
    29   13   29 1   
@<TRIPOS>SUBSTRUCTURE
     1 KAP         1 TEMP              0 ****  ****    0 ROOT
