@<TRIPOS>MOLECULE
KAW
   69    60     1     0     0
SMALL
bcc


@<TRIPOS>ATOM
      1 CD2        -0.2850    3.9580   -5.0870 c1        1 KAW     -0.039500
      2 CE3        -0.7340    5.1490   -5.6860 c1        1 KAW     -0.138375
      3 CZ3        -0.5270    5.3650   -7.0410 c1        1 KAW     -0.138375
      4 CH2         0.1230    4.4050   -7.8060 c1        1 KAW     -0.138375
      5 CZ2         0.5660    3.2310   -7.2160 c1        1 KAW     -0.138375
      6 CE2         0.3570    3.0110   -5.8430 c1        1 KAW     -0.039500
      7 NE1         0.7250    1.9730   -5.0050 n1        1 KAW     -0.225000
      8 CD1         0.3100    2.2820   -3.7390 c1        1 KAW     -0.054000
      9 CG         -0.3160    3.5110   -3.7830 c1        1 KAW     -0.151000
     10 CB         -0.7300    4.1550   -2.4720 c2        1 KAW     -0.077000
     11 CA         -1.5570    3.1710   -1.6650 c3        1 KAW     -0.063000
     12 C          -1.0470    1.7700   -1.9030 c2        1 KAW      0.321000
     13 O          -0.0050    1.3720   -1.3180 o         1 KAW     -0.594500
     14 OXT        -1.7010    0.9780   -2.6310 o         1 KAW     -0.594500
     15 N          -1.4500    3.4850   -0.2840 n         1 KAW     -0.322000
     16 CBC        -1.9640    2.5890    0.6900 c2        1 KAW      0.285000
     17 OAA        -3.1000    2.1690    0.5890 o         1 KAW     -0.371000
     18 CAV        -1.1290    2.2290    1.9000 c3        1 KAW     -0.183000
     19 CAW        -1.4440    0.8110    2.3270 c3        1 KAW     -0.183000
     20 CBM        -0.2100    0.1800    2.9280 c3        1 KAW      0.205000
     21 OAE         0.9210    0.5550    2.1800 oh        1 KAW     -0.374000
     22 OAF        -0.0590    0.6170    4.2580 oh        1 KAW     -0.374000
     23 CBL        -0.3520   -1.3260    2.9070 c3        1 KAW     -0.007000
     24 CAX        -0.8460   -1.8050    4.2530 c3        1 KAW     -0.135000
     25 CBF        -1.4520   -3.1820    4.1070 c2        1 KAW     -0.050000
     26 CAO        -0.8020   -4.2850    4.6380 c2        1 KAW     -0.121000
     27 CAI        -1.3800   -5.5420    4.5450 c1        1 KAW     -0.135000
     28 CAG        -2.6080   -5.6950    3.9210 c1        1 KAW     -0.138375
     29 CAJ        -3.2580   -4.5920    3.3900 c1        1 KAW     -0.138375
     30 CAP        -2.6800   -3.3350    3.4830 c1        1 KAW     -0.119000
     31 NBA         0.9080   -1.9160    2.6280 n         1 KAW     -0.366000
     32 CBE         1.1290   -2.5610    1.3860 c2        1 KAW      0.351000
     33 OAC         0.1850   -2.8800    0.6910 o         1 KAW     -0.406000
     34 CBG         2.5360   -2.8800    0.9410 c2        1 KAW     -0.127000
     35 CAQ         2.8860   -2.7510   -0.3940 c2        1 KAW     -0.083000
     36 CAK         4.1750   -3.0520   -0.8040 c1        1 KAW     -0.134000
     37 CAH         5.1140   -3.4810    0.1210 c1        1 KAW     -0.138375
     38 CAL         4.7630   -3.6100    1.4560 c1        1 KAW     -0.138375
     39 CAR         3.4740   -3.3100    1.8650 c1        1 KAW     -0.089000
     40 HE3        -1.1910    5.8230   -5.1480 ha        1 KAW      0.118625
     41 HZ3        -0.8180    6.2020   -7.4520 ha        1 KAW      0.118625
     42 HH2         0.2680    4.5580   -8.7600 ha        1 KAW      0.118625
     43 HZ2         1.0230    2.5570   -7.7540 ha        1 KAW      0.118625
     44 HNE1        1.1670    1.2150   -5.2530 DU        1 KAW      0.235000
     45 HD1         0.4770    1.7540   -2.9390 DU        1 KAW      0.235000
     46 HB         -1.2630    4.9550   -2.6560 ha        1 KAW      0.086500
     47 HBA         0.0680    4.4040   -1.9650 ha        1 KAW      0.086500
     48 HA         -2.4930    3.2280   -1.9400 h1        1 KAW      0.128000
     49 HN         -1.0750    4.2730   -0.0250 hn        1 KAW      0.205000
     50 HAV        -1.3350    2.8430    2.6320 hc        1 KAW      0.105000
     51 HAVA       -0.1800    2.2970    1.6740 hc        1 KAW      0.105000
     52 HAW        -1.7300    0.2920    1.5480 hc        1 KAW      0.117500
     53 HAWA       -2.1620    0.8230    2.9920 hc        1 KAW      0.117500
     54 HBL        -0.9920   -1.5830    2.2140 h1        1 KAW      0.136000
     55 HAX        -0.0970   -1.8440    4.8810 hc        1 KAW      0.096000
     56 HAXA       -1.5230   -1.1860    4.5920 hc        1 KAW      0.096000
     57 HAO         0.0510   -4.1730    5.0990 ha        1 KAW      0.135000
     58 HAI        -0.9130   -6.3210    4.8990 ha        1 KAW      0.121000
     59 HAG        -3.0150   -6.5790    3.8560 ha        1 KAW      0.118625
     60 HAJ        -4.1230   -4.6990    2.9510 ha        1 KAW      0.118625
     61 HAP        -3.1380   -2.5590    3.1090 ha        1 KAW      0.135000
     62 HNBA        1.5640   -1.9120    3.2620 hn        1 KAW      0.271000
     63 HAQ         2.2250   -2.4490   -1.0460 ha        1 KAW      0.214000
     64 HAK         4.4220   -2.9610   -1.7440 ha        1 KAW      0.150000
     65 HAH         6.0260   -3.6800   -0.1660 ha        1 KAW      0.118625
     66 HAL         5.4250   -3.9130    2.1070 ha        1 KAW      0.118625
     67 HAR         3.2280   -3.3980    2.8060 ha        1 KAW      0.143000
     68 H29         0.7400    0.9920    4.3570 ho        1 KAW      0.248000
     69 H30         0.8270    0.2770    1.3410 ho        1 KAW      0.248000
@<TRIPOS>BOND
     1    1    6 1   
     2    2    3 1   
     3    2   40 1   
     4    3   41 1   
     5    4    5 1   
     6    4   42 1   
     7    5   43 1   
     8    7    8 1   
     9    8    9 1   
    10   10   11 1   
    11   10   46 1   
    12   10   47 1   
    13   11   12 1   
    14   11   15 1   
    15   11   48 1   
    16   12   13 1   
    17   12   14 1   
    18   15   16 1   
    19   15   49 1   
    20   16   17 1   
    21   16   18 1   
    22   18   19 1   
    23   18   50 1   
    24   18   51 1   
    25   19   20 1   
    26   19   52 1   
    27   19   53 1   
    28   20   21 1   
    29   20   22 1   
    30   20   23 1   
    31   21   69 1   
    32   22   68 1   
    33   23   24 1   
    34   23   31 1   
    35   23   54 1   
    36   24   25 1   
    37   24   55 1   
    38   24   56 1   
    39   25   26 1   
    40   25   30 1   
    41   26   27 1   
    42   26   57 1   
    43   27   58 1   
    44   28   29 1   
    45   28   59 1   
    46   29   60 1   
    47   30   61 1   
    48   31   32 1   
    49   31   62 1   
    50   32   33 1   
    51   32   34 1   
    52   34   35 1   
    53   34   39 1   
    54   35   36 1   
    55   35   63 1   
    56   36   64 1   
    57   37   38 1   
    58   37   65 1   
    59   38   66 1   
    60   39   67 1   
@<TRIPOS>SUBSTRUCTURE
     1 KAW         1 TEMP              0 ****  ****    0 ROOT
