@<TRIPOS>MOLECULE
KAW
   71    74     1     0     0
SMALL
bcc


@<TRIPOS>ATOM
      1 CD2         0.5030   -0.2480   -1.7000 ca        1 KAW     -0.115800
      2 CE3         1.6760    0.3890   -1.2830 ca        1 KAW     -0.135000
      3 CZ3         1.6100    1.7080   -0.8640 ca        1 KAW     -0.130000
      4 CH2         0.3910    2.4130   -0.8550 ca        1 KAW     -0.107000
      5 CZ2        -0.7910    1.8260   -1.2740 ca        1 KAW     -0.121000
      6 CE2        -0.7400    0.4900   -1.7050 ca        1 KAW     -0.045200
      7 NE1        -1.7440   -0.3570   -2.1850 na        1 KAW     -0.174400
      8 CD1        -1.1740   -1.5880   -2.4930 cc        1 KAW     -0.057100
      9 CG          0.1930   -1.5740   -2.1960 cd        1 KAW     -0.220400
     10 CB          1.1480   -2.6690   -2.3850 c3        1 KAW     -0.010200
     11 CA          1.3690   -3.4900   -1.1100 c3        1 KAW      0.005500
     12 C           2.5180   -4.5130   -1.3610 c         1 KAW      0.902600
     13 O           2.2070   -5.6850   -1.6880 o         1 KAW     -0.811800
     14 OXT         3.7010   -4.1240   -1.1380 o         1 KAW     -0.811800
     15 N           1.7440   -2.6100    0.0570 ny        1 KAW     -0.666800
     16 CBC         1.5710   -3.3110    1.3710 c         1 KAW      0.550100
     17 OAA         0.5970   -2.9800    2.0350 o         1 KAW     -0.432100
     18 CAV         2.6100   -4.3330    1.7550 c3        1 KAW     -0.157400
     19 CAW         2.0870   -5.7320    1.4870 c3        1 KAW     -0.130400
     20 CBM         3.2020   -6.7650    1.2640 c3        1 KAW      0.358600
     21 OAE         4.3960   -6.2440    0.7370 oh        1 KAW     -0.633800
     22 OAF         3.6560   -7.3380    2.4710 oh        1 KAW     -0.633800
     23 CBL         2.6450   -7.9400    0.3840 c3        1 KAW      0.098500
     24 CAX         1.5820   -8.7070    1.1840 c3        1 KAW     -0.050100
     25 CBF         1.1420   -9.9620    0.5220 ca        1 KAW     -0.144300
     26 CAO         1.6140  -11.1980    0.9840 ca        1 KAW     -0.126000
     27 CAI         1.1780  -12.3810    0.3890 ca        1 KAW     -0.117000
     28 CAG         0.2680  -12.3380   -0.6680 ca        1 KAW     -0.104000
     29 CAJ        -0.2080  -11.1100   -1.1280 ca        1 KAW     -0.117000
     30 CAP         0.2250   -9.9250   -0.5340 ca        1 KAW     -0.126000
     31 NBA         3.7680   -8.8300   -0.0740 ny        1 KAW     -0.675800
     32 CBE         4.0070   -8.7430   -1.5800 c         1 KAW      0.591700
     33 OAC         3.1410   -9.2160   -2.2930 o         1 KAW     -0.392100
     34 CBG         5.2850   -8.1150   -1.9480 ca        1 KAW     -0.203600
     35 CAQ         5.3010   -6.7720   -2.3420 ca        1 KAW     -0.080000
     36 CAK         6.5090   -6.2020   -2.7500 ca        1 KAW     -0.121500
     37 CAH         7.6770   -6.9620   -2.7630 ca        1 KAW     -0.078000
     38 CAL         7.6510   -8.3010   -2.3650 ca        1 KAW     -0.121500
     39 CAR         6.4560   -8.8840   -1.9530 ca        1 KAW     -0.080000
     40 HE3         2.6390   -0.1390   -1.3300 ha        1 KAW      0.124000
     41 HZ3         2.5260    2.2270   -0.5420 ha        1 KAW      0.142000
     42 HH2         0.3850    3.4610   -0.5150 ha        1 KAW      0.147000
     43 HZ2        -1.7360    2.3870   -1.2770 ha        1 KAW      0.148000
     44 HNE1       -2.6800   -0.0930   -2.3540 hn        1 KAW      0.314700
     45 HD1        -1.7800   -2.3980   -2.9090 h4        1 KAW      0.178000
     46 HB          0.7810   -3.3940   -3.1630 hc        1 KAW      0.090700
     47 HBA         2.1350   -2.2630   -2.7410 hc        1 KAW      0.090700
     48 HA          0.4210   -4.0310   -0.8340 hx        1 KAW      0.098700
     49 HN          2.7400   -2.3650   -0.0720 hn        1 KAW      0.474800
     50 HAV         3.5730   -4.1570    1.1950 hc        1 KAW      0.117700
     51 HAVA        2.8180   -4.1990    2.8530 hc        1 KAW      0.117700
     52 HAW         1.4330   -5.7220    0.5720 hc        1 KAW      0.091200
     53 HAWA        1.4670   -6.0790    2.3570 hc        1 KAW      0.091200
     54 HBL         2.1720   -7.4880   -0.5470 hx        1 KAW      0.159700
     55 HAX         1.9760   -8.9270    2.2150 hc        1 KAW      0.087200
     56 HAXA        0.7050   -8.0120    1.3020 hc        1 KAW      0.087200
     57 HAO         2.3040  -11.2410    1.8400 ha        1 KAW      0.136000
     58 HAI         1.5450  -13.3500    0.7610 ha        1 KAW      0.148500
     59 HAG        -0.0780  -13.2740   -1.1350 ha        1 KAW      0.150000
     60 HAJ        -0.9300  -11.0740   -1.9590 ha        1 KAW      0.148500
     61 HAP        -0.1550   -8.9580   -0.8980 ha        1 KAW      0.136000
     62 HNBA        3.5350   -9.8020    0.1720 hn        1 KAW      0.463800
     63 HAQ         4.3750   -6.1620   -2.3280 ha        1 KAW      0.167500
     64 HAK         6.5270   -5.1440   -3.0600 ha        1 KAW      0.160000
     65 HAH         8.6270   -6.5070   -3.0910 ha        1 KAW      0.155000
     66 HAL         8.5750   -8.9000   -2.3800 ha        1 KAW      0.160000
     67 HAR         6.4340   -9.9440   -1.6570 ha        1 KAW      0.167500
     68 H29         4.3090   -6.7390    2.8640 ho        1 KAW      0.466000
     69 H30         4.2210   -5.7800   -0.1040 ho        1 KAW      0.466000
     70 H2          1.1700   -1.7510    0.0310 hn        1 KAW      0.474800
     71 HBA2        4.6280   -8.5490    0.4170 hn        1 KAW      0.463800
@<TRIPOS>BOND
     1    1    2 ar  
     2    1    6 ar  
     3    1    9 1   
     4    2    3 ar  
     5    2   40 1   
     6    3    4 ar  
     7    3   41 1   
     8    4    5 ar  
     9    4   42 1   
    10    5    6 ar  
    11    5   43 1   
    12    6    7 1   
    13    7    8 1   
    14    7   44 1   
    15    8    9 2   
    16    8   45 1   
    17    9   10 1   
    18   10   11 1   
    19   10   46 1   
    20   10   47 1   
    21   11   12 1   
    22   11   15 1   
    23   11   48 1   
    24   12   13 1   
    25   12   14 1   
    26   15   16 1   
    27   15   49 1   
    28   15   70 1   
    29   16   17 2   
    30   16   18 1   
    31   18   19 1   
    32   18   50 1   
    33   18   51 1   
    34   19   20 1   
    35   19   52 1   
    36   19   53 1   
    37   20   21 1   
    38   20   22 1   
    39   20   23 1   
    40   21   69 1   
    41   22   68 1   
    42   23   24 1   
    43   23   31 1   
    44   23   54 1   
    45   24   25 1   
    46   24   55 1   
    47   24   56 1   
    48   25   26 ar  
    49   25   30 ar  
    50   26   27 ar  
    51   26   57 1   
    52   27   28 ar  
    53   27   58 1   
    54   28   29 ar  
    55   28   59 1   
    56   29   30 ar  
    57   29   60 1   
    58   30   61 1   
    59   31   32 1   
    60   31   62 1   
    61   31   71 1   
    62   32   33 2   
    63   32   34 1   
    64   34   35 ar  
    65   34   39 ar  
    66   35   36 ar  
    67   35   63 1   
    68   36   37 ar  
    69   36   64 1   
    70   37   38 ar  
    71   37   65 1   
    72   38   39 ar  
    73   38   66 1   
    74   39   67 1   
@<TRIPOS>SUBSTRUCTURE
     1 KAW         1 TEMP              0 ****  ****    0 ROOT
