@<TRIPOS>MOLECULE
KAW
   71    74     1     0     0
SMALL
bcc


@<TRIPOS>ATOM
      1 CD2         0.4960   -0.2610   -1.7510 ca        1 KAW     -0.115800
      2 CE3         1.6640    0.3820   -1.3280 ca        1 KAW     -0.135000
      3 CZ3         1.5910    1.7030   -0.9180 ca        1 KAW     -0.130000
      4 CH2         0.3700    2.4060   -0.9250 ca        1 KAW     -0.107000
      5 CZ2        -0.8070    1.8130   -1.3510 ca        1 KAW     -0.121000
      6 CE2        -0.7480    0.4740   -1.7720 ca        1 KAW     -0.045200
      7 NE1        -1.7460   -0.3790   -2.2560 na        1 KAW     -0.174400
      8 CD1        -1.1710   -1.6100   -2.5500 cc        1 KAW     -0.057100
      9 CG          0.1940   -1.5910   -2.2410 cd        1 KAW     -0.220400
     10 CB          1.1540   -2.6850   -2.4140 c3        1 KAW     -0.010200
     11 CA          1.3660   -3.4960   -1.1320 c3        1 KAW      0.005500
     12 C           2.5190   -4.5170   -1.3660 c         1 KAW      0.902600
     13 O           2.2160   -5.6930   -1.6880 o         1 KAW     -0.811800
     14 OXT         3.7000   -4.1230   -1.1350 o         1 KAW     -0.811800
     15 N           1.7270   -2.6070    0.0330 n4        1 KAW     -0.666800
     16 CBC         1.5440   -3.3010    1.3490 c         1 KAW      0.550100
     17 OAA         0.5630   -2.9700    2.0020 o         1 KAW     -0.432100
     18 CAV         2.5830   -4.3160    1.7500 c3        1 KAW     -0.157400
     19 CAW         2.0680   -5.7200    1.4860 c3        1 KAW     -0.130400
     20 CBM         3.1890   -6.7500    1.2800 c3        1 KAW      0.358600
     21 OAE         4.3850   -6.2280    0.7600 oh        1 KAW     -0.633800
     22 OAF         3.6340   -7.3140    2.4940 oh        1 KAW     -0.633800
     23 CBL         2.6440   -7.9320    0.4030 c3        1 KAW      0.098500
     24 CAX         1.5760   -8.6970    1.1980 c3        1 KAW     -0.050100
     25 CBF         1.1470   -9.9600    0.5410 ca        1 KAW     -0.144300
     26 CAO         1.6190  -11.1910    1.0150 ca        1 KAW     -0.126000
     27 CAI         1.1930  -12.3790    0.4250 ca        1 KAW     -0.117000
     28 CAG         0.2930  -12.3470   -0.6410 ca        1 KAW     -0.104000
     29 CAJ        -0.1840  -11.1230   -1.1130 ca        1 KAW     -0.117000
     30 CAP         0.2390   -9.9330   -0.5240 ca        1 KAW     -0.126000
     31 NBA         3.7730   -8.8210   -0.0400 n4        1 KAW     -0.675800
     32 CBE         4.0270   -8.7440   -1.5440 c         1 KAW      0.591700
     33 OAC         3.1680   -9.2240   -2.2610 o         1 KAW     -0.392100
     34 CBG         5.3050   -8.1120   -1.9040 ca        1 KAW     -0.203600
     35 CAQ         5.3190   -6.7720   -2.3080 ca        1 KAW     -0.080000
     36 CAK         6.5280   -6.2000   -2.7080 ca        1 KAW     -0.121500
     37 CAH         7.7000   -6.9550   -2.7060 ca        1 KAW     -0.078000
     38 CAL         7.6760   -8.2920   -2.2970 ca        1 KAW     -0.121500
     39 CAR         6.4790   -8.8770   -1.8930 ca        1 KAW     -0.080000
     40 HE3         2.6290   -0.1440   -1.3620 ha        1 KAW      0.124000
     41 HZ3         2.5030    2.2270   -0.5920 ha        1 KAW      0.142000
     42 HH2         0.3580    3.4560   -0.5920 ha        1 KAW      0.147000
     43 HZ2        -1.7530    2.3710   -1.3660 ha        1 KAW      0.148000
     44 HNE1       -2.6810   -0.1180   -2.4350 hn        1 KAW      0.314700
     45 HD1        -1.7710   -2.4240   -2.9660 h4        1 KAW      0.178000
     46 HB          2.1430   -2.2780   -2.7640 hc        1 KAW      0.090700
     47 HBA         0.7950   -3.4150   -3.1910 hc        1 KAW      0.090700
     48 HA          0.4170   -4.0390   -0.8610 hx        1 KAW      0.098700
     49 HN          1.1500   -1.7510   -0.0040 hn        1 KAW      0.474800
     50 HAV         2.7810   -4.1750    2.8480 hc        1 KAW      0.117700
     51 HAVA        3.5510   -4.1410    1.1970 hc        1 KAW      0.117700
     52 HAW         1.4410   -6.0630    2.3530 hc        1 KAW      0.091200
     53 HAWA        1.4220   -5.7180    0.5650 hc        1 KAW      0.091200
     54 HBL         2.1780   -7.4890   -0.5350 hx        1 KAW      0.159700
     55 HAX         0.6960   -8.0060    1.3030 hc        1 KAW      0.087200
     56 HAXA        1.9610   -8.9090    2.2340 hc        1 KAW      0.087200
     57 HAO         2.3010  -11.2250    1.8790 ha        1 KAW      0.136000
     58 HAI         1.5600  -13.3440    0.8070 ha        1 KAW      0.148500
     59 HAG        -0.0460  -13.2870   -1.1040 ha        1 KAW      0.150000
     60 HAJ        -0.8980  -11.0960   -1.9510 ha        1 KAW      0.148500
     61 HAP        -0.1410   -8.9700   -0.8980 ha        1 KAW      0.136000
     62 HNBA        4.6280   -8.5350    0.4580 hn        1 KAW      0.463800
     63 HAQ         4.3900   -6.1660   -2.3060 ha        1 KAW      0.167500
     64 HAK         6.5450   -5.1440   -3.0260 ha        1 KAW      0.160000
     65 HAH         8.6500   -6.4990   -3.0280 ha        1 KAW      0.155000
     66 HAL         8.6030   -8.8860   -2.3000 ha        1 KAW      0.160000
     67 HAR         6.4590   -9.9340   -1.5890 ha        1 KAW      0.167500
     68 H29         4.2800   -6.7090    2.8900 ho        1 KAW      0.466000
     69 H30         4.2170   -5.7700   -0.0850 ho        1 KAW      0.466000
     70 H2          2.7230   -2.3600   -0.0890 hn        1 KAW      0.474800
     71 HBA2        3.5420   -9.7920    0.2110 hn        1 KAW      0.463800
@<TRIPOS>BOND
     1    1    2 ar  
     2    1    6 ar  
     3    1    9 1   
     4    2    3 ar  
     5    2   40 1   
     6    3    4 ar  
     7    3   41 1   
     8    4    5 ar  
     9    4   42 1   
    10    5    6 ar  
    11    5   43 1   
    12    6    7 1   
    13    7    8 1   
    14    7   44 1   
    15    8    9 2   
    16    8   45 1   
    17    9   10 1   
    18   10   11 1   
    19   10   46 1   
    20   10   47 1   
    21   11   12 1   
    22   11   15 1   
    23   11   48 1   
    24   12   13 1   
    25   12   14 1   
    26   15   16 1   
    27   15   49 1   
    28   15   70 1   
    29   16   17 2   
    30   16   18 1   
    31   18   19 1   
    32   18   50 1   
    33   18   51 1   
    34   19   20 1   
    35   19   52 1   
    36   19   53 1   
    37   20   21 1   
    38   20   22 1   
    39   20   23 1   
    40   21   69 1   
    41   22   68 1   
    42   23   24 1   
    43   23   31 1   
    44   23   54 1   
    45   24   25 1   
    46   24   55 1   
    47   24   56 1   
    48   25   26 ar  
    49   25   30 ar  
    50   26   27 ar  
    51   26   57 1   
    52   27   28 ar  
    53   27   58 1   
    54   28   29 ar  
    55   28   59 1   
    56   29   30 ar  
    57   29   60 1   
    58   30   61 1   
    59   31   32 1   
    60   31   62 1   
    61   31   71 1   
    62   32   33 2   
    63   32   34 1   
    64   34   35 ar  
    65   34   39 ar  
    66   35   36 ar  
    67   35   63 1   
    68   36   37 ar  
    69   36   64 1   
    70   37   38 ar  
    71   37   65 1   
    72   38   39 ar  
    73   38   66 1   
    74   39   67 1   
@<TRIPOS>SUBSTRUCTURE
     1 KAW         1 TEMP              0 ****  ****    0 ROOT
