@<TRIPOS>MOLECULE
KAW
   71    74     1     0     0
SMALL
bcc


@<TRIPOS>ATOM
      1 CD2         0.4870   -0.2590   -1.7290 ca        1 KAW     -0.115800
      2 CE3         1.6700    0.3810   -1.3490 ca        1 KAW     -0.135000
      3 CZ3         1.6170    1.7060   -0.9470 ca        1 KAW     -0.130000
      4 CH2         0.3990    2.4130   -0.9180 ca        1 KAW     -0.107000
      5 CZ2        -0.7940    1.8220   -1.3010 ca        1 KAW     -0.121000
      6 CE2        -0.7540    0.4800   -1.7150 ca        1 KAW     -0.045200
      7 NE1        -1.7710   -0.3720   -2.1600 na        1 KAW     -0.174400
      8 CD1        -1.2100   -1.6070   -2.4650 cc        1 KAW     -0.057100
      9 CG          0.1640   -1.5920   -2.1990 cd        1 KAW     -0.220400
     10 CB          1.1120   -2.6910   -2.3960 c3        1 KAW     -0.010200
     11 CA          1.3620   -3.4940   -1.1150 c3        1 KAW      0.005500
     12 C           2.5020   -4.5230   -1.3790 c         1 KAW      0.902600
     13 O           2.1820   -5.6990   -1.6830 o         1 KAW     -0.811800
     14 OXT         3.6910   -4.1340   -1.1900 o         1 KAW     -0.811800
     15 N           1.7660   -2.5990    0.0300 n4        1 KAW     -0.666800
     16 CBC         1.6230   -3.2820    1.3570 c         1 KAW      0.550100
     17 OAA         0.6650   -2.9400    2.0390 o         1 KAW     -0.432100
     18 CAV         2.6680   -4.3010    1.7310 c3        1 KAW     -0.157400
     19 CAW         2.1360   -5.7030    1.4950 c3        1 KAW     -0.130400
     20 CBM         3.2440   -6.7410    1.2600 c3        1 KAW      0.358600
     21 OAE         4.4260   -6.2300    0.6980 oh        1 KAW     -0.633800
     22 OAF         3.7250   -7.2990    2.4630 oh        1 KAW     -0.633800
     23 CBL         2.6640   -7.9260    0.4090 c3        1 KAW      0.098500
     24 CAX         1.6190   -8.6800    1.2440 c3        1 KAW     -0.050100
     25 CBF         1.1600   -9.9430    0.6100 ca        1 KAW     -0.144300
     26 CAO         1.6400  -11.1740    1.0770 ca        1 KAW     -0.126000
     27 CAI         1.1880  -12.3630    0.5080 ca        1 KAW     -0.117000
     28 CAG         0.2540  -12.3320   -0.5280 ca        1 KAW     -0.104000
     29 CAJ        -0.2310  -11.1090   -0.9930 ca        1 KAW     -0.117000
     30 CAP         0.2190   -9.9180   -0.4250 ca        1 KAW     -0.126000
     31 NBA         3.7740   -8.8250   -0.0630 n4        1 KAW     -0.675800
     32 CBE         3.9780   -8.7590   -1.5750 c         1 KAW      0.591700
     33 OAC         3.0950   -9.2390   -2.2620 o         1 KAW     -0.392100
     34 CBG         5.2480   -8.1390   -1.9820 ca        1 KAW     -0.203600
     35 CAQ         5.2580   -6.8010   -2.3940 ca        1 KAW     -0.080000
     36 CAK         6.4570   -6.2400   -2.8380 ca        1 KAW     -0.121500
     37 CAH         7.6240   -7.0020   -2.8680 ca        1 KAW     -0.078000
     38 CAL         7.6040   -8.3360   -2.4500 ca        1 KAW     -0.121500
     39 CAR         6.4180   -8.9110   -2.0030 ca        1 KAW     -0.080000
     40 HE3         2.6320   -0.1490   -1.4110 ha        1 KAW      0.124000
     41 HZ3         2.5410    2.2270   -0.6540 ha        1 KAW      0.142000
     42 HH2         0.4020    3.4660   -0.5930 ha        1 KAW      0.147000
     43 HZ2        -1.7380    2.3850   -1.2900 ha        1 KAW      0.148000
     44 HNE1       -2.7100   -0.1080   -2.3110 hn        1 KAW      0.314700
     45 HD1        -1.8270   -2.4220   -2.8540 h4        1 KAW      0.178000
     46 HB          0.7260   -3.4250   -3.1560 hc        1 KAW      0.090700
     47 HBA         2.0920   -2.2920   -2.7800 hc        1 KAW      0.090700
     48 HA          0.4200   -4.0300   -0.8100 hx        1 KAW      0.098700
     49 HN          2.7590   -2.3580   -0.1250 hn        1 KAW      0.474800
     50 HAV         2.9030   -4.1530    2.8210 hc        1 KAW      0.117700
     51 HAVA        3.6190   -4.1350    1.1460 hc        1 KAW      0.117700
     52 HAW         1.5360   -6.0360    2.3840 hc        1 KAW      0.091200
     53 HAWA        1.4610   -5.7040    0.5950 hc        1 KAW      0.091200
     54 HBL         2.1710   -7.4870   -0.5170 hx        1 KAW      0.159700
     55 HAX         0.7460   -7.9820    1.3730 hc        1 KAW      0.087200
     56 HAXA        2.0360   -8.8870    2.2680 hc        1 KAW      0.087200
     57 HAO         2.3500  -11.2070    1.9170 ha        1 KAW      0.136000
     58 HAI         1.5610  -13.3280    0.8840 ha        1 KAW      0.148500
     59 HAG        -0.1060  -13.2730   -0.9740 ha        1 KAW      0.150000
     60 HAJ        -0.9720  -11.0830   -1.8070 ha        1 KAW      0.148500
     61 HAP        -0.1670   -8.9540   -0.7930 ha        1 KAW      0.136000
     62 HNBA        3.5450   -9.7930    0.2010 hn        1 KAW      0.463800
     63 HAQ         4.3330   -6.1890   -2.3680 ha        1 KAW      0.167500
     64 HAK         6.4700   -5.1870   -3.1630 ha        1 KAW      0.160000
     65 HAH         8.5660   -6.5540   -3.2240 ha        1 KAW      0.155000
     66 HAL         8.5270   -8.9370   -2.4780 ha        1 KAW      0.160000
     67 HAR         6.4010   -9.9660   -1.6910 ha        1 KAW      0.167500
     68 H29         4.3880   -6.6960    2.8330 ho        1 KAW      0.466000
     69 H30         4.2330   -5.7770   -0.1450 ho        1 KAW      0.466000
     70 H2          1.1930   -1.7400    0.0060 hn        1 KAW      0.474800
     71 HBA2        4.6460   -8.5400    0.4040 hn        1 KAW      0.463800
@<TRIPOS>BOND
     1    1    2 ar  
     2    1    6 ar  
     3    1    9 1   
     4    2    3 ar  
     5    2   40 1   
     6    3    4 ar  
     7    3   41 1   
     8    4    5 ar  
     9    4   42 1   
    10    5    6 ar  
    11    5   43 1   
    12    6    7 1   
    13    7    8 1   
    14    7   44 1   
    15    8    9 2   
    16    8   45 1   
    17    9   10 1   
    18   10   11 1   
    19   10   46 1   
    20   10   47 1   
    21   11   12 1   
    22   11   15 1   
    23   11   48 1   
    24   12   13 1   
    25   12   14 1   
    26   15   16 1   
    27   15   49 1   
    28   15   70 1   
    29   16   17 2   
    30   16   18 1   
    31   18   19 1   
    32   18   50 1   
    33   18   51 1   
    34   19   20 1   
    35   19   52 1   
    36   19   53 1   
    37   20   21 1   
    38   20   22 1   
    39   20   23 1   
    40   21   69 1   
    41   22   68 1   
    42   23   24 1   
    43   23   31 1   
    44   23   54 1   
    45   24   25 1   
    46   24   55 1   
    47   24   56 1   
    48   25   26 ar  
    49   25   30 ar  
    50   26   27 ar  
    51   26   57 1   
    52   27   28 ar  
    53   27   58 1   
    54   28   29 ar  
    55   28   59 1   
    56   29   30 ar  
    57   29   60 1   
    58   30   61 1   
    59   31   32 1   
    60   31   62 1   
    61   31   71 1   
    62   32   33 2   
    63   32   34 1   
    64   34   35 ar  
    65   34   39 ar  
    66   35   36 ar  
    67   35   63 1   
    68   36   37 ar  
    69   36   64 1   
    70   37   38 ar  
    71   37   65 1   
    72   38   39 ar  
    73   38   66 1   
    74   39   67 1   
@<TRIPOS>SUBSTRUCTURE
     1 KAW         1 TEMP              0 ****  ****    0 ROOT
