@<TRIPOS>MOLECULE
KAW
   69    72     1     0     0
SMALL
bcc


@<TRIPOS>ATOM
      1 CD2        -5.2320   -0.0300    1.5990 ca        1 KAW     -0.087800
      2 CE3        -5.5460    0.9490    2.5390 ca        1 KAW     -0.079000
      3 CZ3        -5.7160    0.5800    3.8670 ca        1 KAW     -0.176000
      4 CH2        -5.5800   -0.7570    4.2760 ca        1 KAW     -0.129000
      5 CZ2        -5.2720   -1.7650    3.3730 ca        1 KAW     -0.158000
      6 CE2        -5.0960   -1.4080    2.0280 ca        1 KAW     -0.055200
      7 NE1        -4.8190   -2.1850    0.9020 na        1 KAW     -0.202400
      8 CD1        -4.7160   -1.3300   -0.2070 cc        1 KAW     -0.105100
      9 CG         -4.9810   -0.0150    0.1680 cd        1 KAW     -0.113400
     10 CB         -5.0380    1.1760   -0.6890 c3        1 KAW     -0.010200
     11 CA         -4.3850    1.0250   -2.0690 c3        1 KAW     -0.060300
     12 C          -4.7980    2.3010   -2.9030 c         1 KAW      0.908600
     13 O          -6.0020    2.3660   -3.2570 o         1 KAW     -0.827300
     14 OXT        -3.9090    3.1640   -3.1510 o         1 KAW     -0.827300
     15 N          -2.9430    0.8780   -2.0040 n         1 KAW     -0.500900
     16 CBC        -2.2810   -0.2320   -2.4620 c         1 KAW      0.646100
     17 OAA        -2.8280   -1.3480   -2.6350 o         1 KAW     -0.664100
     18 CAV        -0.7790   -0.1030   -2.6920 c3        1 KAW     -0.160400
     19 CAW        -0.0510    0.2490   -1.4150 c3        1 KAW     -0.121400
     20 CBM         1.4720    0.2180   -1.5920 c3        1 KAW      0.320600
     21 OAE         1.8870   -0.8900   -2.3720 oh        1 KAW     -0.622300
     22 OAF         1.9500    1.3010   -2.3600 oh        1 KAW     -0.622300
     23 CBL         2.2060    0.2570   -0.2060 c3        1 KAW      0.085700
     24 CAX         1.8620    1.5760    0.5060 c3        1 KAW     -0.047100
     25 CBF         2.5380    1.7140    1.8240 ca        1 KAW     -0.066300
     26 CAO         3.5510    2.6620    2.0060 ca        1 KAW     -0.122500
     27 CAI         4.1680    2.8030    3.2480 ca        1 KAW     -0.130000
     28 CAG         3.7790    2.0000    4.3190 ca        1 KAW     -0.137000
     29 CAJ         2.7680    1.0530    4.1440 ca        1 KAW     -0.130000
     30 CAP         2.1500    0.9110    2.9040 ca        1 KAW     -0.122500
     31 NBA         3.6330    0.0650   -0.3280 n         1 KAW     -0.527900
     32 CBE         4.1740   -1.2000   -0.4620 c         1 KAW      0.672700
     33 OAC         3.4830   -2.2260   -0.2790 o         1 KAW     -0.623100
     34 CBG         5.6350   -1.2880   -0.7530 ca        1 KAW     -0.129600
     35 CAQ         6.4050   -2.2070   -0.0320 ca        1 KAW     -0.090000
     36 CAK         7.7700   -2.3210   -0.2890 ca        1 KAW     -0.141000
     37 CAH         8.3650   -1.5270   -1.2710 ca        1 KAW     -0.116000
     38 CAL         7.5940   -0.6210   -1.9990 ca        1 KAW     -0.141000
     39 CAR         6.2290   -0.4980   -1.7420 ca        1 KAW     -0.090000
     40 HE3        -5.6560    1.9960    2.2210 ha        1 KAW      0.136000
     41 HZ3        -5.9630    1.3440    4.6170 ha        1 KAW      0.115000
     42 HH2        -5.7200   -1.0080    5.3370 ha        1 KAW      0.112000
     43 HZ2        -5.1700   -2.8070    3.7000 ha        1 KAW      0.117000
     44 HNE1       -4.5080   -3.1170    0.9250 hn        1 KAW      0.284700
     45 HD1        -4.4500   -1.7220   -1.1970 h4        1 KAW      0.206000
     46 HB         -6.1170    1.4390   -0.8850 hc        1 KAW      0.062200
     47 HBA        -4.5780    2.0450   -0.1450 hc        1 KAW      0.062200
     48 HA         -4.8250    0.1230   -2.5830 h1        1 KAW      0.068700
     49 HN         -2.4710    1.7580   -2.1100 hn        1 KAW      0.318500
     50 HAV        -0.4050   -1.0840   -3.0890 hc        1 KAW      0.068200
     51 HAVA       -0.5890    0.6780   -3.4740 hc        1 KAW      0.068200
     52 HAW        -0.3430    1.2810   -1.0850 hc        1 KAW      0.068200
     53 HAWA       -0.3370   -0.4720   -0.6070 hc        1 KAW      0.068200
     54 HBL         1.7970   -0.6090    0.4000 h1        1 KAW      0.086700
     55 HAX         2.1230    2.4360   -0.1670 hc        1 KAW      0.074200
     56 HAXA        0.7490    1.5960    0.6650 hc        1 KAW      0.074200
     57 HAO         3.8590    3.3010    1.1650 ha        1 KAW      0.133000
     58 HAI         4.9620    3.5520    3.3820 ha        1 KAW      0.126500
     59 HAG         4.2640    2.1120    5.2980 ha        1 KAW      0.124000
     60 HAJ         2.4570    0.4190    4.9870 ha        1 KAW      0.126500
     61 HAP         1.3510    0.1660    2.7690 ha        1 KAW      0.133000
     62 HNBA        4.1440    0.8410   -0.6830 hn        1 KAW      0.314500
     63 HAQ         5.9200   -2.8390    0.7280 ha        1 KAW      0.148000
     64 HAK         8.3760   -3.0400    0.2800 ha        1 KAW      0.132500
     65 HAH         9.4420   -1.6200   -1.4740 ha        1 KAW      0.129000
     66 HAL         8.0610   -0.0040   -2.7800 ha        1 KAW      0.132500
     67 HAR         5.6240    0.2070   -2.3330 ha        1 KAW      0.148000
     68 H29         1.6190    1.1780   -3.2600 ho        1 KAW      0.433000
     69 H30         1.8270   -1.6840   -1.8250 ho        1 KAW      0.433000
@<TRIPOS>BOND
     1    1    2 ar  
     2    1    6 ar  
     3    1    9 1   
     4    2    3 ar  
     5    2   40 1   
     6    3    4 ar  
     7    3   41 1   
     8    4    5 ar  
     9    4   42 1   
    10    5    6 ar  
    11    5   43 1   
    12    6    7 1   
    13    7    8 1   
    14    7   44 1   
    15    8    9 2   
    16    8   45 1   
    17    9   10 1   
    18   10   11 1   
    19   10   46 1   
    20   10   47 1   
    21   11   12 1   
    22   11   15 1   
    23   11   48 1   
    24   12   13 1   
    25   12   14 1   
    26   15   16 1   
    27   15   49 1   
    28   16   17 2   
    29   16   18 1   
    30   18   19 1   
    31   18   50 1   
    32   18   51 1   
    33   19   20 1   
    34   19   52 1   
    35   19   53 1   
    36   20   21 1   
    37   20   22 1   
    38   20   23 1   
    39   21   69 1   
    40   22   68 1   
    41   23   24 1   
    42   23   31 1   
    43   23   54 1   
    44   24   25 1   
    45   24   55 1   
    46   24   56 1   
    47   25   26 ar  
    48   25   30 ar  
    49   26   27 ar  
    50   26   57 1   
    51   27   28 ar  
    52   27   58 1   
    53   28   29 ar  
    54   28   59 1   
    55   29   30 ar  
    56   29   60 1   
    57   30   61 1   
    58   31   32 1   
    59   31   62 1   
    60   32   33 2   
    61   32   34 1   
    62   34   35 ar  
    63   34   39 ar  
    64   35   36 ar  
    65   35   63 1   
    66   36   37 ar  
    67   36   64 1   
    68   37   38 ar  
    69   37   65 1   
    70   38   39 ar  
    71   38   66 1   
    72   39   67 1   
@<TRIPOS>SUBSTRUCTURE
     1 KAW         1 TEMP              0 ****  ****    0 ROOT
