@<TRIPOS>MOLECULE
KB2
   63    65     1     0     0
SMALL
bcc


@<TRIPOS>ATOM
      1 C1          6.6160   -2.7840   -0.0860 ca        1 KB2      0.411200
      2 N2          6.1660   -2.3610    1.0810 nb        1 KB2     -0.655000
      3 C3          5.1990   -1.3720    1.0810 ca        1 KB2      0.394600
      4 C4          4.6930   -0.8140   -0.1340 ca        1 KB2     -0.146300
      5 C5          5.2120   -1.3050   -1.3680 ca        1 KB2     -0.081000
      6 C6          6.1690   -2.2860   -1.3520 ca        1 KB2     -0.249300
      7 C7          3.7040    0.1990   -0.0850 ca        1 KB2     -0.114000
      8 C8          3.2260    0.6550    1.1240 ca        1 KB2     -0.082300
      9 C9          3.7190    0.1010    2.3320 ca        1 KB2     -0.108000
     10 C10         4.6770   -0.8810    2.3210 ca        1 KB2     -0.164300
     11 C11         2.2000    1.7510    1.1770 c3        1 KB2      0.209100
     12 N12         0.9080    1.3460    0.6610 n3        1 KB2     -0.823200
     13 C13         0.0270    2.4510    0.2260 c3        1 KB2      0.189900
     14 C14        -1.3750    1.9010    0.1610 cc        1 KB2      0.259600
     15 N15        -2.5330    2.6650   -0.1360 nc        1 KB2     -0.356000
     16 N16        -3.5680    1.9360   -0.0730 nd        1 KB2     -0.175800
     17 N17        -3.2180    0.6700    0.2760 na        1 KB2      0.035400
     18 C18        -1.8250    0.5930    0.4310 cd        1 KB2     -0.184600
     19 C19        -4.1490   -0.4450    0.3720 c3        1 KB2     -0.032000
     20 C20        -3.9550   -1.2240    1.6830 c         1 KB2      0.560100
     21 O21        -2.8780   -1.7490    1.9700 o         1 KB2     -0.511100
     22 C22        -5.1650   -1.3050    2.5480 c3        1 KB2     -0.201100
     23 C23        -4.0250   -1.4250   -0.8080 c3        1 KB2     -0.096400
     24 C24        -5.1750   -2.4100   -0.8070 c3        1 KB2     -0.082400
     25 C25        -5.0640   -3.3710   -1.9720 c3        1 KB2     -0.079400
     26 C26        -6.2020   -4.3580   -1.9810 c3        1 KB2     -0.094100
     27 C27         0.4620    3.0180   -1.1650 c3        1 KB2     -0.083700
     28 C28         0.1350    2.0610   -2.2920 c3        1 KB2     -0.091100
     29 C29        -0.1010    4.3880   -1.4770 c3        1 KB2     -0.091100
     30 C30         0.0340    3.5920    1.2590 c3        1 KB2     -0.089100
     31 H1          7.3880   -3.5750   -0.0540 h4        1 KB2      0.022100
     32 H5          4.8320   -0.8850   -2.3110 ha        1 KB2      0.137000
     33 H6          6.5990   -2.6960   -2.2750 ha        1 KB2      0.144000
     34 H7          3.3300    0.6190   -1.0320 ha        1 KB2      0.132000
     35 H9          3.3150    0.4680    3.2880 ha        1 KB2      0.141000
     36 H10         5.0560   -1.3070    3.2640 ha        1 KB2      0.152000
     37 H11         2.0370    2.0690    2.2480 h1        1 KB2      0.043700
     38 H11A        2.6310    2.6440    0.6300 h1        1 KB2      0.043700
     39 HN12        1.0130    0.6890   -0.0900 hn        1 KB2      0.363800
     40 H18        -1.3160   -0.3220    0.7390 h4        1 KB2      0.217000
     41 H19        -5.1970   -0.0140    0.3650 h1        1 KB2      0.095700
     42 H22        -6.0260   -1.7150    1.9640 hc        1 KB2      0.072700
     43 H22A       -4.9770   -1.9620    3.4320 hc        1 KB2      0.072700
     44 H22B       -5.4330   -0.2810    2.9090 hc        1 KB2      0.072700
     45 H23        -4.0250   -0.8540   -1.7730 hc        1 KB2      0.066200
     46 H23A       -3.0490   -1.9740   -0.7330 hc        1 KB2      0.066200
     47 H24        -5.1790   -2.9870    0.1550 hc        1 KB2      0.042700
     48 H24A       -6.1500   -1.8570   -0.8690 hc        1 KB2      0.042700
     49 H25        -5.0580   -2.7920   -2.9340 hc        1 KB2      0.044200
     50 H25A       -4.0870   -3.9210   -1.9110 hc        1 KB2      0.044200
     51 H26        -6.1020   -5.0550   -2.8480 hc        1 KB2      0.035367
     52 H26A       -6.2090   -4.9620   -1.0420 hc        1 KB2      0.035367
     53 H26B       -7.1830   -3.8290   -2.0660 hc        1 KB2      0.035367
     54 H27         1.5870    3.1350   -1.1300 hc        1 KB2      0.037700
     55 H28        -0.9690    1.9270   -2.3910 hc        1 KB2      0.038200
     56 H28A        0.5250    2.4650   -3.2580 hc        1 KB2      0.038200
     57 H28B        0.6000    1.0590   -2.1270 hc        1 KB2      0.038200
     58 H29         0.2850    5.1500   -0.7580 hc        1 KB2      0.038200
     59 H29A        0.2170    4.6930   -2.5050 hc        1 KB2      0.038200
     60 H29B       -1.2150    4.3980   -1.4440 hc        1 KB2      0.038200
     61 H30         1.0180    4.1190    1.2510 hc        1 KB2      0.047033
     62 H30A       -0.7680    4.3300    1.0170 hc        1 KB2      0.047033
     63 H30B       -0.1550    3.1920    2.2840 hc        1 KB2      0.047033
@<TRIPOS>BOND
     1    1    2 ar  
     2    1    6 ar  
     3    1   31 1   
     4    2    3 ar  
     5    3    4 ar  
     6    3   10 ar  
     7    4    5 ar  
     8    4    7 ar  
     9    5    6 ar  
    10    5   32 1   
    11    6   33 1   
    12    7    8 ar  
    13    7   34 1   
    14    8    9 ar  
    15    8   11 1   
    16    9   10 ar  
    17    9   35 1   
    18   10   36 1   
    19   11   12 1   
    20   11   37 1   
    21   11   38 1   
    22   12   13 1   
    23   12   39 1   
    24   13   14 1   
    25   13   27 1   
    26   13   30 1   
    27   14   15 1   
    28   14   18 2   
    29   15   16 2   
    30   16   17 1   
    31   17   18 1   
    32   17   19 1   
    33   18   40 1   
    34   19   20 1   
    35   19   23 1   
    36   19   41 1   
    37   20   21 2   
    38   20   22 1   
    39   22   42 1   
    40   22   43 1   
    41   22   44 1   
    42   23   24 1   
    43   23   45 1   
    44   23   46 1   
    45   24   25 1   
    46   24   47 1   
    47   24   48 1   
    48   25   26 1   
    49   25   49 1   
    50   25   50 1   
    51   26   51 1   
    52   26   52 1   
    53   26   53 1   
    54   27   28 1   
    55   27   29 1   
    56   27   54 1   
    57   28   55 1   
    58   28   56 1   
    59   28   57 1   
    60   29   58 1   
    61   29   59 1   
    62   29   60 1   
    63   30   61 1   
    64   30   62 1   
    65   30   63 1   
@<TRIPOS>SUBSTRUCTURE
     1 KB2         1 TEMP              0 ****  ****    0 ROOT
