@<TRIPOS>MOLECULE
KB2
   64    66     1     0     0
SMALL
bcc


@<TRIPOS>ATOM
      1 C1         -1.6070    1.5890    1.1810 ca        1 KB2      0.442200
      2 N2         -0.5990    0.8730    0.7160 nb        1 KB2     -0.651000
      3 C3          0.4800    0.6580    1.5530 ca        1 KB2      0.420600
      4 C4          0.5200    1.1820    2.8820 ca        1 KB2     -0.161300
      5 C5         -0.5930    1.9510    3.3380 ca        1 KB2     -0.078000
      6 C6         -1.6540    2.1580    2.4960 ca        1 KB2     -0.227300
      7 C7          1.6450    0.9320    3.7040 ca        1 KB2     -0.051000
      8 C8          2.7050    0.1920    3.2250 ca        1 KB2     -0.186300
      9 C9          2.6770   -0.3260    1.9040 ca        1 KB2     -0.134000
     10 C10         1.6010   -0.1050    1.0850 ca        1 KB2     -0.135300
     11 C11         3.9130   -0.0470    4.0680 c3        1 KB2      0.170100
     12 N12         3.9330   -1.4530    4.5760 n4        1 KB2     -0.765000
     13 C13         5.1760   -1.8280    5.3890 c3        1 KB2      0.171900
     14 C14         5.0910   -3.2900    5.6960 cc        1 KB2      0.142600
     15 N15         3.8860   -4.0410    5.7460 nc        1 KB2     -0.380000
     16 N16         4.1370   -5.2440    6.0500 nd        1 KB2     -0.122800
     17 N17         5.4720   -5.4040    6.2370 na        1 KB2      0.069400
     18 C18         6.1310   -4.1920    6.0110 cd        1 KB2     -0.136600
     19 C19         6.1220   -6.6740    6.5720 c3        1 KB2     -0.051000
     20 C20         7.1080   -6.5020    7.7420 c         1 KB2      0.569100
     21 O21         7.9230   -5.5770    7.7550 o         1 KB2     -0.523100
     22 C22         6.9920   -7.5220    8.8180 c3        1 KB2     -0.202100
     23 C23         6.8660   -7.2750    5.3680 c3        1 KB2     -0.093400
     24 C24         7.3330   -8.6840    5.6660 c3        1 KB2     -0.084400
     25 C25         7.9590   -9.3130    4.4380 c3        1 KB2     -0.078400
     26 C26         8.4490  -10.7080    4.7280 c3        1 KB2     -0.097100
     27 C27         5.2360   -0.9700    6.6880 c3        1 KB2     -0.070700
     28 C28         3.9500   -1.0160    7.4870 c3        1 KB2     -0.109100
     29 C29         6.4020   -1.3950    7.5590 c3        1 KB2     -0.109100
     30 C30         6.4360   -1.5670    4.5510 c3        1 KB2     -0.125100
     31 H1         -2.4560    1.7450    0.4860 h4        1 KB2      0.044100
     32 H5         -0.5770    2.3650    4.3580 ha        1 KB2      0.148000
     33 H6         -2.5340    2.7430    2.7980 ha        1 KB2      0.164000
     34 H7          1.6560    1.3500    4.7240 ha        1 KB2      0.140000
     35 H9          3.5430   -0.8960    1.5320 ha        1 KB2      0.133000
     36 H10         1.5810   -0.5050    0.0570 ha        1 KB2      0.172000
     37 H11         4.8480    0.1210    3.4590 hx        1 KB2      0.104200
     38 H11A        3.9280    0.6460    4.9570 hx        1 KB2      0.104200
     39 HN12        3.1060   -1.6050    5.1690 hn        1 KB2      0.458300
     40 H18         7.2140   -4.0790    6.1280 h4        1 KB2      0.230000
     41 H19         5.3080   -7.3950    6.8910 h1        1 KB2      0.114700
     42 H22         6.0880   -7.2980    9.4390 hc        1 KB2      0.083700
     43 H22A        7.8940   -7.5000    9.4790 hc        1 KB2      0.083700
     44 H22B        6.8810   -8.5460    8.3840 hc        1 KB2      0.083700
     45 H23         6.1810   -7.2960    4.4790 hc        1 KB2      0.066200
     46 H23A        7.7460   -6.6290    5.1110 hc        1 KB2      0.066200
     47 H24         6.4670   -9.3120    6.0060 hc        1 KB2      0.048700
     48 H24A        8.0850   -8.6680    6.4990 hc        1 KB2      0.048700
     49 H25         8.8150   -8.6770    4.0880 hc        1 KB2      0.044700
     50 H25A        7.2060   -9.3420    3.6070 hc        1 KB2      0.044700
     51 H26         9.2220  -10.6970    5.5340 hc        1 KB2      0.042033
     52 H26A        8.9030  -11.1540    3.8100 hc        1 KB2      0.042033
     53 H26B        7.6060  -11.3630    5.0570 hc        1 KB2      0.042033
     54 H27         5.4250    0.0970    6.3710 hc        1 KB2      0.059700
     55 H28         3.1430   -0.4150    7.0020 hc        1 KB2      0.057033
     56 H28A        3.5940   -2.0640    7.6260 hc        1 KB2      0.057033
     57 H28B        4.1250   -0.5770    8.5020 hc        1 KB2      0.057033
     58 H29         6.4340   -0.7530    8.4740 hc        1 KB2      0.057033
     59 H29A        7.3720   -1.2760    7.0190 hc        1 KB2      0.057033
     60 H29B        6.2960   -2.4590    7.8810 hc        1 KB2      0.057033
     61 H30         7.3090   -2.0590    5.0480 hc        1 KB2      0.072700
     62 H30A        6.3430   -1.9960    3.5230 hc        1 KB2      0.072700
     63 H30B        6.6510   -0.4730    4.4790 hc        1 KB2      0.072700
     64 H122        3.8680   -2.0940    3.7760 hn        1 KB2      0.458300
@<TRIPOS>BOND
     1    1    2 ar  
     2    1    6 ar  
     3    1   31 1   
     4    2    3 ar  
     5    3    4 ar  
     6    3   10 ar  
     7    4    5 ar  
     8    4    7 ar  
     9    5    6 ar  
    10    5   32 1   
    11    6   33 1   
    12    7    8 ar  
    13    7   34 1   
    14    8    9 ar  
    15    8   11 1   
    16    9   10 ar  
    17    9   35 1   
    18   10   36 1   
    19   11   12 1   
    20   11   37 1   
    21   11   38 1   
    22   12   13 1   
    23   12   39 1   
    24   12   64 1   
    25   13   14 1   
    26   13   27 1   
    27   13   30 1   
    28   14   15 1   
    29   14   18 2   
    30   15   16 2   
    31   16   17 1   
    32   17   18 1   
    33   17   19 1   
    34   18   40 1   
    35   19   20 1   
    36   19   23 1   
    37   19   41 1   
    38   20   21 2   
    39   20   22 1   
    40   22   42 1   
    41   22   43 1   
    42   22   44 1   
    43   23   24 1   
    44   23   45 1   
    45   23   46 1   
    46   24   25 1   
    47   24   47 1   
    48   24   48 1   
    49   25   26 1   
    50   25   49 1   
    51   25   50 1   
    52   26   51 1   
    53   26   52 1   
    54   26   53 1   
    55   27   28 1   
    56   27   29 1   
    57   27   54 1   
    58   28   55 1   
    59   28   56 1   
    60   28   57 1   
    61   29   58 1   
    62   29   59 1   
    63   29   60 1   
    64   30   61 1   
    65   30   62 1   
    66   30   63 1   
@<TRIPOS>SUBSTRUCTURE
     1 KB2         1 TEMP              0 ****  ****    0 ROOT
