@<TRIPOS>MOLECULE
KB2
   63    59     1     0     0
SMALL
bcc


@<TRIPOS>ATOM
      1 C1         -4.9270    2.7690   -6.9720 c1        1 KB2     -0.119500
      2 N2         -3.6930    2.1790   -6.8690 n1        1 KB2     -0.131000
      3 C3         -2.9980    2.2230   -5.6680 c1        1 KB2      0.001000
      4 C4         -3.5480    2.8610   -4.5760 c1        1 KB2     -0.082000
      5 C5         -4.8000    3.4600   -4.6800 c1        1 KB2     -0.079000
      6 C6         -5.4860    3.4150   -5.8710 c1        1 KB2     -0.119500
      7 C7         -2.8780    2.8310   -3.3270 c2        1 KB2     -0.094000
      8 C8         -1.6640    2.1550   -3.2020 c1        1 KB2     -0.071000
      9 C9         -1.1090    1.5100   -4.3080 c1        1 KB2     -0.119000
     10 C10        -1.7700    1.5400   -5.5410 c2        1 KB2     -0.098000
     11 C11        -0.8260    2.3300   -1.8920 c3        1 KB2     -0.030000
     12 N12        -0.8520    1.0970   -1.1310 n3        1 KB2     -0.296000
     13 C13        -0.0620    1.2640    0.1010 c3        1 KB2      0.135000
     14 C14         0.0650   -0.0600    0.7990 c2        1 KB2     -0.160000
     15 N15        -0.9360   -0.7650    1.3280 n2        1 KB2     -0.074000
     16 N16        -0.4300   -1.9460    1.7720 n2        1 KB2      0.005000
     17 N17         0.8960   -1.9590    1.5070 n2        1 KB2     -0.170000
     18 C18         1.2100   -0.8040    0.9090 c1        1 KB2     -0.135000
     19 C19         1.8020   -3.0130    1.8190 c2        1 KB2     -0.001000
     20 C20         1.3760   -4.2680    1.1050 c2        1 KB2      0.233000
     21 O21         0.3850   -4.8670    1.4680 o         1 KB2     -0.266000
     22 C22         2.1670   -4.7670   -0.0820 c3        1 KB2     -0.269000
     23 C23         1.7980   -3.2580    3.3160 c3        1 KB2     -0.168000
     24 C24         3.2410   -3.2650    3.8360 c3        1 KB2     -0.161000
     25 C25         3.2480   -2.9120    5.3270 c3        1 KB2     -0.156000
     26 C26         4.6610   -3.0370    5.8710 c3        1 KB2     -0.211000
     27 C27        -0.7600    2.2590    1.0210 c3        1 KB2     -0.088000
     28 C28        -2.0880    1.6940    1.4580 c3        1 KB2     -0.209000
     29 C29         0.0980    2.5090    2.2280 c3        1 KB2     -0.209000
     30 C30         1.3190    1.7840   -0.2500 c3        1 KB2     -0.243000
     31 H1         -5.4160    2.7370   -7.8190 ha        1 KB2      0.151000
     32 H5         -5.1890    3.9110   -3.9120 ha        1 KB2      0.138000
     33 H6         -6.3650    3.8350   -5.9450 ha        1 KB2      0.151000
     34 H7         -3.2660    3.2800   -2.5560 ha        1 KB2      0.137000
     35 H9         -0.2610    1.0390   -4.2220 ha        1 KB2      0.132000
     36 H10        -1.3800    1.0870   -6.3170 ha        1 KB2      0.151000
     37 H11        -1.2100    3.0550   -1.3520 h1        1 KB2      0.074000
     38 H11A        0.0980    2.5510   -2.1230 h1        1 KB2      0.074000
     39 HN12       -0.4960    0.4230   -1.6320 hn        1 KB2      0.176000
     40 H18         2.0970   -0.5380    0.6060 DU        1 KB2      0.190000
     41 H19         2.7020   -2.7640    1.5320 ha        1 KB2      0.117000
     42 H22         2.5650   -5.6370    0.1320 hc        1 KB2      0.111667
     43 H22A        2.8770   -4.1250   -0.2940 hc        1 KB2      0.111667
     44 H22B        1.5710   -4.8620   -0.8560 hc        1 KB2      0.111667
     45 H23         1.3780   -4.1240    3.5040 hc        1 KB2      0.107000
     46 H23A        1.2950   -2.5490    3.7610 hc        1 KB2      0.107000
     47 H24         3.6280   -4.1520    3.7100 hc        1 KB2      0.085000
     48 H24A        3.7690   -2.6060    3.3430 hc        1 KB2      0.085000
     49 H25         2.9310   -1.9910    5.4470 hc        1 KB2      0.082500
     50 H25A        2.6580   -3.5240    5.8090 hc        1 KB2      0.082500
     51 H26         4.6620   -2.8310    6.8350 hc        1 KB2      0.073667
     52 H26A        5.2480   -2.4080    5.4030 hc        1 KB2      0.073667
     53 H26B        4.9850   -3.9500    5.7330 hc        1 KB2      0.073667
     54 H27        -0.9040    3.0950    0.5460 hc        1 KB2      0.087000
     55 H28        -1.9940    1.2840    2.3490 hc        1 KB2      0.076333
     56 H28A       -2.7510    2.4120    1.4980 hc        1 KB2      0.076333
     57 H28B       -2.3800    1.0150    0.8160 hc        1 KB2      0.076333
     58 H29        -0.4540    2.8650    2.9540 hc        1 KB2      0.076333
     59 H29A        0.5120    1.6690    2.5140 hc        1 KB2      0.076333
     60 H29B        0.7970    3.1570    2.0030 hc        1 KB2      0.076333
     61 H30         1.5770    1.4550   -1.1310 hc        1 KB2      0.080333
     62 H30A        1.9700    1.4690    0.4220 hc        1 KB2      0.080333
     63 H30B        1.3070    2.7630   -0.2570 hc        1 KB2      0.080333
@<TRIPOS>BOND
     1    1    6 1   
     2    1   31 1   
     3    2    3 1   
     4    3   10 1   
     5    4    5 1   
     6    4    7 1   
     7    5   32 1   
     8    6   33 1   
     9    7    8 1   
    10    7   34 1   
    11    8   11 1   
    12    9   10 1   
    13    9   35 1   
    14   10   36 1   
    15   11   12 1   
    16   11   37 1   
    17   11   38 1   
    18   12   13 1   
    19   12   39 1   
    20   13   14 1   
    21   13   27 1   
    22   13   30 1   
    23   14   15 1   
    24   14   18 1   
    25   15   16 1   
    26   16   17 1   
    27   17   18 1   
    28   19   20 1   
    29   19   23 1   
    30   19   41 1   
    31   20   21 1   
    32   20   22 1   
    33   22   42 1   
    34   22   43 1   
    35   22   44 1   
    36   23   24 1   
    37   23   45 1   
    38   23   46 1   
    39   24   25 1   
    40   24   47 1   
    41   24   48 1   
    42   25   26 1   
    43   25   49 1   
    44   25   50 1   
    45   26   51 1   
    46   26   52 1   
    47   26   53 1   
    48   27   28 1   
    49   27   29 1   
    50   27   54 1   
    51   28   55 1   
    52   28   56 1   
    53   28   57 1   
    54   29   58 1   
    55   29   59 1   
    56   29   60 1   
    57   30   61 1   
    58   30   62 1   
    59   30   63 1   
@<TRIPOS>SUBSTRUCTURE
     1 KB2         1 TEMP              0 ****  ****    0 ROOT
