@<TRIPOS>MOLECULE
KB2
   64    66     1     0     0
SMALL
bcc


@<TRIPOS>ATOM
      1 C1         -1.5090    1.6600    1.1280 ca        1 KB2      0.442200
      2 N2         -0.4860    0.9570    0.6740 nb        1 KB2     -0.651000
      3 C3          0.5700    0.7250    1.5340 ca        1 KB2      0.420600
      4 C4          0.5720    1.2180    2.8760 ca        1 KB2     -0.161300
      5 C5         -0.5540    1.9730    3.3200 ca        1 KB2     -0.078000
      6 C6         -1.5930    2.1980    2.4540 ca        1 KB2     -0.227300
      7 C7          1.6750    0.9500    3.7230 ca        1 KB2     -0.051000
      8 C8          2.7490    0.2230    3.2550 ca        1 KB2     -0.186300
      9 C9          2.7590   -0.2630    1.9220 ca        1 KB2     -0.134000
     10 C10         1.7040   -0.0250    1.0800 ca        1 KB2     -0.135300
     11 C11         3.9350   -0.0320    4.1250 c3        1 KB2      0.170100
     12 N12         3.9440   -1.4500    4.6010 n4        1 KB2     -0.765000
     13 C13         5.1670   -1.8410    5.4380 c3        1 KB2      0.171900
     14 C14         5.0760   -3.3110    5.7080 cc        1 KB2      0.142600
     15 N15         3.8700   -4.0630    5.7120 nc        1 KB2     -0.380000
     16 N16         4.1150   -5.2730    5.9940 nd        1 KB2     -0.122800
     17 N17         5.4460   -5.4360    6.2100 na        1 KB2      0.069400
     18 C18         6.1090   -4.2190    6.0290 cd        1 KB2     -0.136600
     19 C19         6.0890   -6.7130    6.5310 c3        1 KB2     -0.051000
     20 C20         7.0470   -6.5670    7.7270 c         1 KB2      0.569100
     21 O21         7.8610   -5.6430    7.7800 o         1 KB2     -0.523100
     22 C22         6.9070   -7.6120    8.7770 c3        1 KB2     -0.202100
     23 C23         6.8610   -7.2870    5.3310 c3        1 KB2     -0.093400
     24 C24         7.3220   -8.7020    5.6070 c3        1 KB2     -0.084400
     25 C25         7.9770   -9.3020    4.3800 c3        1 KB2     -0.078400
     26 C26         8.4600  -10.7040    4.6490 c3        1 KB2     -0.097100
     27 C27         5.1910   -1.0130    6.7560 c3        1 KB2     -0.070700
     28 C28         3.8850   -1.0790    7.5210 c3        1 KB2     -0.109100
     29 C29         6.3340   -1.4570    7.6470 c3        1 KB2     -0.109100
     30 C30         6.4470   -1.5600    4.6380 c3        1 KB2     -0.125100
     31 H1         -2.3390    1.8300    0.4140 h4        1 KB2      0.044100
     32 H5         -0.5670    2.3640    4.3490 ha        1 KB2      0.148000
     33 H6         -2.4820    2.7750    2.7460 ha        1 KB2      0.164000
     34 H7          1.6570    1.3450    4.7520 ha        1 KB2      0.140000
     35 H9          3.6360   -0.8230    1.5610 ha        1 KB2      0.133000
     36 H10         1.7140   -0.4010    0.0420 ha        1 KB2      0.172000
     37 H11         3.9250    0.6400    5.0300 hx        1 KB2      0.104200
     38 H11A        4.8850    0.1500    3.5450 hx        1 KB2      0.104200
     39 HN12        3.1020   -1.6160    5.1680 hn        1 KB2      0.458300
     40 H18         7.1880   -4.1080    6.1740 h4        1 KB2      0.230000
     41 H19         5.2680   -7.4410    6.8150 h1        1 KB2      0.114700
     42 H22         5.9880   -7.4030    9.3820 hc        1 KB2      0.083700
     43 H22A        6.8070   -8.6270    8.3160 hc        1 KB2      0.083700
     44 H22B        7.7930   -7.6060    9.4590 hc        1 KB2      0.083700
     45 H23         7.7460   -6.6340    5.1100 hc        1 KB2      0.066200
     46 H23A        6.1970   -7.2860    4.4260 hc        1 KB2      0.066200
     47 H24         8.0540   -8.7050    6.4580 hc        1 KB2      0.048700
     48 H24A        6.4480   -9.3370    5.9130 hc        1 KB2      0.048700
     49 H25         8.8400   -8.6580    4.0640 hc        1 KB2      0.044700
     50 H25A        7.2430   -9.3130    3.5310 hc        1 KB2      0.044700
     51 H26         9.2140  -10.7110    5.4730 hc        1 KB2      0.042033
     52 H26A        8.9370  -11.1280    3.7320 hc        1 KB2      0.042033
     53 H26B        7.6110  -11.3660    4.9430 hc        1 KB2      0.042033
     54 H27         5.3860    0.0610    6.4690 hc        1 KB2      0.059700
     55 H28         3.0890   -0.4680    7.0280 hc        1 KB2      0.057033
     56 H28A        4.0320   -0.6620    8.5490 hc        1 KB2      0.057033
     57 H28B        3.5260   -2.1310    7.6270 hc        1 KB2      0.057033
     58 H29         7.3180   -1.3240    7.1360 hc        1 KB2      0.057033
     59 H29A        6.3410   -0.8360    8.5780 hc        1 KB2      0.057033
     60 H29B        6.2220   -2.5290    7.9420 hc        1 KB2      0.057033
     61 H30         6.3810   -1.9660    3.5990 hc        1 KB2      0.072700
     62 H30A        6.6620   -0.4650    4.5970 hc        1 KB2      0.072700
     63 H30B        7.3080   -2.0620    5.1470 hc        1 KB2      0.072700
     64 H122        3.9010   -2.0720    3.7850 hn        1 KB2      0.458300
@<TRIPOS>BOND
     1    1    2 ar  
     2    1    6 ar  
     3    1   31 1   
     4    2    3 ar  
     5    3    4 ar  
     6    3   10 ar  
     7    4    5 ar  
     8    4    7 ar  
     9    5    6 ar  
    10    5   32 1   
    11    6   33 1   
    12    7    8 ar  
    13    7   34 1   
    14    8    9 ar  
    15    8   11 1   
    16    9   10 ar  
    17    9   35 1   
    18   10   36 1   
    19   11   12 1   
    20   11   37 1   
    21   11   38 1   
    22   12   13 1   
    23   12   39 1   
    24   12   64 1   
    25   13   14 1   
    26   13   27 1   
    27   13   30 1   
    28   14   15 1   
    29   14   18 2   
    30   15   16 2   
    31   16   17 1   
    32   17   18 1   
    33   17   19 1   
    34   18   40 1   
    35   19   20 1   
    36   19   23 1   
    37   19   41 1   
    38   20   21 2   
    39   20   22 1   
    40   22   42 1   
    41   22   43 1   
    42   22   44 1   
    43   23   24 1   
    44   23   45 1   
    45   23   46 1   
    46   24   25 1   
    47   24   47 1   
    48   24   48 1   
    49   25   26 1   
    50   25   49 1   
    51   25   50 1   
    52   26   51 1   
    53   26   52 1   
    54   26   53 1   
    55   27   28 1   
    56   27   29 1   
    57   27   54 1   
    58   28   55 1   
    59   28   56 1   
    60   28   57 1   
    61   29   58 1   
    62   29   59 1   
    63   29   60 1   
    64   30   61 1   
    65   30   62 1   
    66   30   63 1   
@<TRIPOS>SUBSTRUCTURE
     1 KB2         1 TEMP              0 ****  ****    0 ROOT
