@<TRIPOS>MOLECULE
KB2
   64    66     1     0     0
SMALL
bcc


@<TRIPOS>ATOM
      1 C1         -1.5530    1.6090    1.1200 ca        1 KB2      0.442200
      2 N2         -0.5290    0.9080    0.6670 nb        1 KB2     -0.651000
      3 C3          0.5330    0.6870    1.5240 ca        1 KB2      0.420600
      4 C4          0.5380    1.1880    2.8630 ca        1 KB2     -0.161300
      5 C5         -0.5900    1.9410    3.3060 ca        1 KB2     -0.078000
      6 C6         -1.6340    2.1540    2.4440 ca        1 KB2     -0.227300
      7 C7          1.6460    0.9320    3.7060 ca        1 KB2     -0.051000
      8 C8          2.7220    0.2080    3.2390 ca        1 KB2     -0.186300
      9 C9          2.7280   -0.2870    1.9090 ca        1 KB2     -0.134000
     10 C10         1.6690   -0.0600    1.0700 ca        1 KB2     -0.135300
     11 C11         3.9120   -0.0360    4.1050 c3        1 KB2      0.170100
     12 N12         3.9320   -1.4500    4.5900 ny        1 KB2     -0.765000
     13 C13         5.1590   -1.8290    5.4250 c3        1 KB2      0.171900
     14 C14         5.0780   -3.2970    5.7050 cc        1 KB2      0.142600
     15 N15         3.8770   -4.0560    5.7180 nc        1 KB2     -0.380000
     16 N16         4.1300   -5.2630    6.0070 nd        1 KB2     -0.122800
     17 N17         5.4620   -5.4170    6.2200 na        1 KB2      0.069400
     18 C18         6.1170   -4.1970    6.0280 cd        1 KB2     -0.136600
     19 C19         6.1130   -6.6880    6.5480 c3        1 KB2     -0.051000
     20 C20         7.0740   -6.5290    7.7410 c         1 KB2      0.569100
     21 O21         7.8820   -5.5990    7.7860 o         1 KB2     -0.523100
     22 C22         6.9420   -7.5670    8.7980 c3        1 KB2     -0.202100
     23 C23         6.8860   -7.2650    5.3500 c3        1 KB2     -0.093400
     24 C24         7.3560   -8.6760    5.6350 c3        1 KB2     -0.084400
     25 C25         8.0120   -9.2800    4.4100 c3        1 KB2     -0.078400
     26 C26         8.5040  -10.6770    4.6870 c3        1 KB2     -0.097100
     27 C27         5.1840   -0.9930    6.7380 c3        1 KB2     -0.070700
     28 C28         3.8820   -1.0600    7.5080 c3        1 KB2     -0.109100
     29 C29         6.3340   -1.4240    7.6270 c3        1 KB2     -0.109100
     30 C30         6.4360   -1.5460    4.6180 c3        1 KB2     -0.125100
     31 H1         -2.3870    1.7700    0.4090 h4        1 KB2      0.044100
     32 H5         -0.6010    2.3380    4.3330 ha        1 KB2      0.148000
     33 H6         -2.5250    2.7280    2.7360 ha        1 KB2      0.164000
     34 H7          1.6310    1.3330    4.7330 ha        1 KB2      0.140000
     35 H9          3.6070   -0.8440    1.5480 ha        1 KB2      0.133000
     36 H10         1.6760   -0.4420    0.0350 ha        1 KB2      0.172000
     37 H11         3.9030    0.6430    5.0050 hx        1 KB2      0.104200
     38 H11A        4.8590    0.1480    3.5200 hx        1 KB2      0.104200
     39 HN12        3.8890   -2.0780    3.7790 hn        1 KB2      0.458300
     40 H18         7.1960   -4.0790    6.1700 h4        1 KB2      0.230000
     41 H19         5.2970   -7.4190    6.8380 h1        1 KB2      0.114700
     42 H22         7.8300   -7.5510    9.4770 hc        1 KB2      0.083700
     43 H22A        6.8470   -8.5850    8.3440 hc        1 KB2      0.083700
     44 H22B        6.0240   -7.3590    9.4030 hc        1 KB2      0.083700
     45 H23         6.2210   -7.2750    4.4460 hc        1 KB2      0.066200
     46 H23A        7.7670   -6.6090    5.1220 hc        1 KB2      0.066200
     47 H24         6.4870   -9.3140    5.9470 hc        1 KB2      0.048700
     48 H24A        8.0910   -8.6680    6.4840 hc        1 KB2      0.048700
     49 H25         8.8710   -8.6330    4.0880 hc        1 KB2      0.044700
     50 H25A        7.2760   -9.3000    3.5630 hc        1 KB2      0.044700
     51 H26         7.6590  -11.3420    4.9880 hc        1 KB2      0.042033
     52 H26A        9.2600  -10.6750    5.5090 hc        1 KB2      0.042033
     53 H26B        8.9810  -11.1050    3.7720 hc        1 KB2      0.042033
     54 H27         5.3720    0.0810    6.4430 hc        1 KB2      0.059700
     55 H28         4.0300   -0.6370    8.5330 hc        1 KB2      0.057033
     56 H28A        3.0810   -0.4570    7.0140 hc        1 KB2      0.057033
     57 H28B        3.5300   -2.1130    7.6220 hc        1 KB2      0.057033
     58 H29         6.2280   -2.4940    7.9300 hc        1 KB2      0.057033
     59 H29A        6.3410   -0.7970    8.5530 hc        1 KB2      0.057033
     60 H29B        7.3140   -1.2890    7.1110 hc        1 KB2      0.057033
     61 H30         6.6440   -0.4500    4.5690 hc        1 KB2      0.072700
     62 H30A        6.3680   -1.9590    3.5830 hc        1 KB2      0.072700
     63 H30B        7.3010   -2.0400    5.1270 hc        1 KB2      0.072700
     64 H122        3.0930   -1.6170    5.1620 hn        1 KB2      0.458300
@<TRIPOS>BOND
     1    1    2 ar  
     2    1    6 ar  
     3    1   31 1   
     4    2    3 ar  
     5    3    4 ar  
     6    3   10 ar  
     7    4    5 ar  
     8    4    7 ar  
     9    5    6 ar  
    10    5   32 1   
    11    6   33 1   
    12    7    8 ar  
    13    7   34 1   
    14    8    9 ar  
    15    8   11 1   
    16    9   10 ar  
    17    9   35 1   
    18   10   36 1   
    19   11   12 1   
    20   11   37 1   
    21   11   38 1   
    22   12   13 1   
    23   12   39 1   
    24   12   64 1   
    25   13   14 1   
    26   13   27 1   
    27   13   30 1   
    28   14   15 1   
    29   14   18 2   
    30   15   16 2   
    31   16   17 1   
    32   17   18 1   
    33   17   19 1   
    34   18   40 1   
    35   19   20 1   
    36   19   23 1   
    37   19   41 1   
    38   20   21 2   
    39   20   22 1   
    40   22   42 1   
    41   22   43 1   
    42   22   44 1   
    43   23   24 1   
    44   23   45 1   
    45   23   46 1   
    46   24   25 1   
    47   24   47 1   
    48   24   48 1   
    49   25   26 1   
    50   25   49 1   
    51   25   50 1   
    52   26   51 1   
    53   26   52 1   
    54   26   53 1   
    55   27   28 1   
    56   27   29 1   
    57   27   54 1   
    58   28   55 1   
    59   28   56 1   
    60   28   57 1   
    61   29   58 1   
    62   29   59 1   
    63   29   60 1   
    64   30   61 1   
    65   30   62 1   
    66   30   63 1   
@<TRIPOS>SUBSTRUCTURE
     1 KB2         1 TEMP              0 ****  ****    0 ROOT
