@<TRIPOS>MOLECULE
KB8
   37    39     1     0     0
SMALL
bcc


@<TRIPOS>ATOM
      1 FAB         0.1080   -0.5250   -0.5060 f         1 KB8     -0.229300
      2 CAU         1.3250   -0.0930   -0.0480 c3        1 KB8      0.595600
      3 FAC         1.1450    0.0580    1.3050 f         1 KB8     -0.229300
      4 FAD         2.1540   -1.1790   -0.1600 f         1 KB8     -0.229300
      5 CAP         1.8510    1.1760   -0.7560 ca        1 KB8      0.352600
      6 CAG         2.0890    2.3390    0.0300 ca        1 KB8     -0.253300
      7 NAM         2.0470    1.1000   -2.0640 nb        1 KB8     -0.611000
      8 CAR         2.5160    2.2280   -2.7040 ca        1 KB8      0.386600
      9 CAF         2.7380    2.1740   -4.1210 ca        1 KB8     -0.160300
     10 CAE         3.2030    3.2730   -4.7910 ca        1 KB8     -0.120000
     11 CAO         3.4760    4.4880   -4.1070 ca        1 KB8     -0.069300
     12 CAA         3.9770    5.6470   -4.8810 c3        1 KB8     -0.057800
     13 CAH         3.2710    4.5670   -2.7470 ca        1 KB8     -0.103000
     14 CAS         2.7900    3.4510   -2.0140 ca        1 KB8     -0.106300
     15 CAQ         2.5620    3.4870   -0.5920 ca        1 KB8      0.148600
     16 NAT         2.8300    4.7020    0.1210 nh        1 KB8     -0.630000
     17 CAK         3.9100    4.5520    1.0940 c3        1 KB8      0.168800
     18 CAI         4.1900    5.8570    1.8640 c3        1 KB8      0.161800
     19 NAN         2.9920    6.4390    2.4370 n3        1 KB8     -0.821200
     20 CAJ         1.9170    6.5860    1.4780 c3        1 KB8      0.161800
     21 CAL         1.6230    5.2850    0.7050 c3        1 KB8      0.168800
     22 HAG         1.8950    2.3050    1.1140 ha        1 KB8      0.166000
     23 HAF         2.5280    1.2340   -4.6560 ha        1 KB8      0.156000
     24 HAE         3.3730    3.2310   -5.8780 ha        1 KB8      0.140000
     25 HAA1        4.9410    5.3850   -5.3870 hc        1 KB8      0.049367
     26 HAA2        4.1530    6.5320   -4.2230 hc        1 KB8      0.049367
     27 HAA3        3.2360    5.9330   -5.6700 hc        1 KB8      0.049367
     28 HAH         3.4820    5.5080   -2.2130 ha        1 KB8      0.157000
     29 HAK1        3.6900    3.7320    1.8370 h1        1 KB8      0.046700
     30 HAK2        4.8420    4.2710    0.5290 h1        1 KB8      0.046700
     31 HAL1        1.1040    4.5610    1.3970 h1        1 KB8      0.046700
     32 HAL2        0.9190    5.5280   -0.1390 h1        1 KB8      0.046700
     33 HAI1        4.8890    5.6120    2.7120 h1        1 KB8      0.037700
     34 HAI2        4.7230    6.5720    1.1710 h1        1 KB8      0.037700
     35 HAN         3.2050    7.3240    2.8570 hn        1 KB8      0.367800
     36 HAJ1        0.9860    6.8630    2.0480 h1        1 KB8      0.037700
     37 HAJ2        2.1200    7.4060    0.7280 h1        1 KB8      0.037700
@<TRIPOS>BOND
     1    1    2 1   
     2    2    3 1   
     3    2    4 1   
     4    2    5 1   
     5    5    6 ar  
     6    5    7 ar  
     7    6   15 ar  
     8    6   22 1   
     9    7    8 ar  
    10    8    9 ar  
    11    8   14 ar  
    12    9   10 ar  
    13    9   23 1   
    14   10   11 ar  
    15   10   24 1   
    16   11   12 1   
    17   11   13 ar  
    18   12   25 1   
    19   12   26 1   
    20   12   27 1   
    21   13   14 ar  
    22   13   28 1   
    23   14   15 ar  
    24   15   16 1   
    25   16   17 1   
    26   16   21 1   
    27   17   18 1   
    28   17   29 1   
    29   17   30 1   
    30   18   19 1   
    31   18   33 1   
    32   18   34 1   
    33   19   20 1   
    34   19   35 1   
    35   20   21 1   
    36   20   36 1   
    37   20   37 1   
    38   21   31 1   
    39   21   32 1   
@<TRIPOS>SUBSTRUCTURE
     1 KB8         1 TEMP              0 ****  ****    0 ROOT
