@<TRIPOS>MOLECULE
KB8
   37    39     1     0     0
SMALL
bcc


@<TRIPOS>ATOM
      1 FAB         0.1030   -0.5220   -0.5000 f         1 KB8     -0.229300
      2 CAU         1.3210   -0.0910   -0.0420 c3        1 KB8      0.595600
      3 FAC         1.1410    0.0620    1.3100 f         1 KB8     -0.229300
      4 FAD         2.1490   -1.1770   -0.1530 f         1 KB8     -0.229300
      5 CAP         1.8480    1.1770   -0.7520 ca        1 KB8      0.352600
      6 CAG         2.0880    2.3410    0.0330 ca        1 KB8     -0.253300
      7 NAM         2.0450    1.1000   -2.0610 nb        1 KB8     -0.611000
      8 CAR         2.5140    2.2250   -2.7020 ca        1 KB8      0.386600
      9 CAF         2.7360    2.1700   -4.1190 ca        1 KB8     -0.160300
     10 CAE         3.2020    3.2680   -4.7900 ca        1 KB8     -0.120000
     11 CAO         3.4760    4.4830   -4.1070 ca        1 KB8     -0.069300
     12 CAA         3.9790    5.6410   -4.8830 c3        1 KB8     -0.057800
     13 CAH         3.2720    4.5640   -2.7470 ca        1 KB8     -0.103000
     14 CAS         2.7900    3.4490   -2.0130 ca        1 KB8     -0.106300
     15 CAQ         2.5620    3.4870   -0.5910 ca        1 KB8      0.148600
     16 NAT         2.8320    4.7030    0.1210 nh        1 KB8     -0.630000
     17 CAK         3.9100    4.5520    1.0950 c3        1 KB8      0.168800
     18 CAI         4.1910    5.8580    1.8640 c3        1 KB8      0.161800
     19 NAN         2.9940    6.4430    2.4340 n7        1 KB8     -0.821200
     20 CAJ         1.9200    6.5910    1.4720 c3        1 KB8      0.161800
     21 CAL         1.6250    5.2890    0.7010 c3        1 KB8      0.168800
     22 HAG         1.8940    2.3080    1.1160 ha        1 KB8      0.166000
     23 HAF         2.5250    1.2290   -4.6520 ha        1 KB8      0.156000
     24 HAE         3.3720    3.2240   -5.8780 ha        1 KB8      0.140000
     25 HAA1        4.9430    5.3780   -5.3860 hc        1 KB8      0.049367
     26 HAA2        4.1530    6.5280   -4.2270 hc        1 KB8      0.049367
     27 HAA3        3.2390    5.9250   -5.6740 hc        1 KB8      0.049367
     28 HAH         3.4840    5.5050   -2.2150 ha        1 KB8      0.157000
     29 HAK1        4.8420    4.2680    0.5320 h1        1 KB8      0.046700
     30 HAK2        3.6870    3.7340    1.8400 h1        1 KB8      0.046700
     31 HAL1        0.9230    5.5330   -0.1440 h1        1 KB8      0.046700
     32 HAL2        1.1030    4.5670    1.3940 h1        1 KB8      0.046700
     33 HAI1        4.8890    5.6130    2.7130 h1        1 KB8      0.037700
     34 HAI2        4.7270    6.5700    1.1700 h1        1 KB8      0.037700
     35 HAN         3.2070    7.3290    2.8530 hn        1 KB8      0.367800
     36 HAJ1        0.9890    6.8710    2.0410 h1        1 KB8      0.037700
     37 HAJ2        2.1270    7.4090    0.7220 h1        1 KB8      0.037700
@<TRIPOS>BOND
     1    1    2 1   
     2    2    3 1   
     3    2    4 1   
     4    2    5 1   
     5    5    6 ar  
     6    5    7 ar  
     7    6   15 ar  
     8    6   22 1   
     9    7    8 ar  
    10    8    9 ar  
    11    8   14 ar  
    12    9   10 ar  
    13    9   23 1   
    14   10   11 ar  
    15   10   24 1   
    16   11   12 1   
    17   11   13 ar  
    18   12   25 1   
    19   12   26 1   
    20   12   27 1   
    21   13   14 ar  
    22   13   28 1   
    23   14   15 ar  
    24   15   16 1   
    25   16   17 1   
    26   16   21 1   
    27   17   18 1   
    28   17   29 1   
    29   17   30 1   
    30   18   19 1   
    31   18   33 1   
    32   18   34 1   
    33   19   20 1   
    34   19   35 1   
    35   20   21 1   
    36   20   36 1   
    37   20   37 1   
    38   21   31 1   
    39   21   32 1   
@<TRIPOS>SUBSTRUCTURE
     1 KB8         1 TEMP              0 ****  ****    0 ROOT
