@<TRIPOS>MOLECULE
KBE
   23    22     1     0     0
SMALL
bcc


@<TRIPOS>ATOM
      1 C          -2.7520    0.1300    0.1150 c         1 KBE      0.906600
      2 N          -0.3050   -1.3730   -0.8140 n3        1 KBE     -0.908800
      3 O          -3.1020   -0.8670   -0.5860 o         1 KBE     -0.850800
      4 CA         -1.4060    0.8060   -0.1950 c3        1 KBE     -0.230400
      5 CB         -0.2250   -0.1550   -0.0200 c3        1 KBE      0.174500
      6 CE          3.5670    0.6810   -0.0750 c3        1 KBE      0.138800
      7 CG          1.0740    0.6260   -0.2850 c3        1 KBE     -0.070400
      8 NZ          4.8170    0.0340    0.2460 n3        1 KBE     -0.906800
      9 OXT        -3.4560    0.6120    1.0460 o         1 KBE     -0.850800
     10 HN         -1.1600   -1.8500   -0.5640 hn        1 KBE      0.353300
     11 HNA        -0.3870   -1.1240   -1.7830 hn        1 KBE      0.353300
     12 HA         -1.4360    1.1830   -1.2480 hc        1 KBE      0.026200
     13 HAA        -1.2740    1.6810    0.4880 hc        1 KBE      0.026200
     14 HB         -0.2110   -0.4840    1.0630 h1        1 KBE      0.047700
     15 HD          2.3730   -1.0880   -0.5290 hc        1 KBE      0.044200
     16 HDA         2.2140   -0.4950    1.1690 hc        1 KBE      0.044200
     17 HE          3.6250    1.0250   -1.1460 h1        1 KBE      0.043700
     18 HEA         3.4830    1.6010    0.5710 h1        1 KBE      0.043700
     19 HG          1.1320    0.9140   -1.3660 hc        1 KBE      0.029200
     20 HGA         1.0360    1.5750    0.3120 hc        1 KBE      0.029200
     21 HNZ         4.8170   -0.2650    1.2030 hn        1 KBE      0.334800
     22 HNZA        4.9440   -0.7780   -0.3290 hn        1 KBE      0.334800
     23 CD          2.3040   -0.1630    0.1010 c3        1 KBE     -0.112400
@<TRIPOS>BOND
     1    1    3 1   
     2    1    4 1   
     3    1    9 1   
     4    2    5 1   
     5    2   10 1   
     6    2   11 1   
     7    4    5 1   
     8    4   12 1   
     9    4   13 1   
    10    5    7 1   
    11    5   14 1   
    12    6    8 1   
    13    6   17 1   
    14    6   18 1   
    15    6   23 1   
    16    7   19 1   
    17    7   20 1   
    18    7   23 1   
    19    8   21 1   
    20    8   22 1   
    21   15   23 1   
    22   16   23 1   
@<TRIPOS>SUBSTRUCTURE
     1 KBE         1 TEMP              0 ****  ****    0 ROOT
