@<TRIPOS>MOLECULE
KBG
   22    22     1     0     0
SMALL
bcc


@<TRIPOS>ATOM
      1 OAK         0.7930    2.4990   -0.2480 oh        1 KBG     -0.587800
      2 CAJ         0.2710    1.2500    0.1630 c3        1 KBG      0.101100
      3 CAI        -1.1100    1.0090   -0.4850 c3        1 KBG     -0.001900
      4 OAL        -2.0310    1.9690   -0.0100 oh        1 KBG     -0.584800
      5 CAH        -1.5260   -0.4210   -0.2320 c         1 KBG      0.485100
      6 OAG        -2.5950   -0.7260    0.2940 o         1 KBG     -0.485100
      7 CAB        -0.4660   -1.4360   -0.6450 c3        1 KBG      0.255900
      8 OAA        -0.7240   -2.7400   -0.2300 oh        1 KBG     -0.555800
      9 OAC         0.7610   -1.1310    0.0130 os        1 KBG     -0.449600
     10 CAD         1.2660    0.1720   -0.2940 c3        1 KBG      0.103100
     11 CAE         2.5920    0.2920    0.4640 c3        1 KBG      0.142400
     12 OAF         3.5590   -0.5870   -0.0630 oh        1 KBG     -0.591800
     13 HOAK        0.0940    3.1520   -0.0970 ho        1 KBG      0.428000
     14 HAJ         0.1650    1.2350    1.2840 h1        1 KBG      0.055700
     15 HAI        -1.0420    1.1970   -1.5970 h1        1 KBG      0.109700
     16 HOAL       -2.4970    1.5890    0.7490 ho        1 KBG      0.424000
     17 HAB        -0.3450   -1.4670   -1.7640 h2        1 KBG      0.103700
     18 HOAA       -0.8090   -2.7400    0.7340 ho        1 KBG      0.427000
     19 HAD         1.4440    0.2550   -1.4010 h1        1 KBG      0.074700
     20 HAE1        2.4280    0.0920    1.5560 h1        1 KBG      0.066200
     21 HAE2        3.0060    1.3250    0.3110 h1        1 KBG      0.066200
     22 HOAF        3.2150   -1.4840    0.0410 ho        1 KBG      0.413000
@<TRIPOS>BOND
     1    1    2 1   
     2    1   13 1   
     3    2    3 1   
     4    2   10 1   
     5    2   14 1   
     6    3    4 1   
     7    3    5 1   
     8    3   15 1   
     9    4   16 1   
    10    5    6 2   
    11    5    7 1   
    12    7    8 1   
    13    7    9 1   
    14    7   17 1   
    15    8   18 1   
    16    9   10 1   
    17   10   11 1   
    18   10   19 1   
    19   11   12 1   
    20   11   20 1   
    21   11   21 1   
    22   12   22 1   
@<TRIPOS>SUBSTRUCTURE
     1 KBG         1 TEMP              0 ****  ****    0 ROOT
