@<TRIPOS>MOLECULE
KBG
   22    22     1     0     0
SMALL
bcc


@<TRIPOS>ATOM
      1 OAK        -2.2660    0.5620    0.1290 oh        1 KBG     -0.587800
      2 CAJ        -0.8500    0.6020    0.0570 c3        1 KBG      0.101100
      3 CAI        -0.3080    0.6640    1.4690 c3        1 KBG     -0.001900
      4 OAL        -0.8220    1.9050    2.1980 oh        1 KBG     -0.584800
      5 CAH         1.1030    0.5990    1.4550 c         1 KBG      0.485100
      6 OAG         1.7490    1.1700    2.3110 o         1 KBG     -0.485100
      7 CAB         1.6890   -0.5160    0.7220 c3        1 KBG      0.255900
      8 OAA         3.1380   -0.4400    0.7380 oh        1 KBG     -0.555800
      9 OAC         1.1420   -0.5800   -0.6720 os        1 KBG     -0.449600
     10 CAD        -0.3610   -0.6300   -0.7960 c3        1 KBG      0.103100
     11 CAE        -0.7410   -0.4950   -2.1090 c3        1 KBG      0.142400
     12 OAF        -0.0660   -1.4300   -2.8860 oh        1 KBG     -0.591800
     13 HOAK       -2.6110    1.3270   -0.2250 ho        1 KBG      0.428000
     14 HAJ        -0.5830    1.4330   -0.4170 h1        1 KBG      0.055700
     15 HAI        -0.7000   -0.0860    2.0550 h1        1 KBG      0.109700
     16 HOAL       -1.1790    1.6660    2.9740 ho        1 KBG      0.424000
     17 HAB         1.5370   -1.3770    1.1950 h2        1 KBG      0.103700
     18 HOAA        3.4790   -1.2390    0.5460 ho        1 KBG      0.427000
     19 HAD        -0.7020   -1.4480   -0.4300 h1        1 KBG      0.074700
     20 HAE1       -0.5230    0.3970   -2.4180 h1        1 KBG      0.066200
     21 HAE2       -1.7070   -0.6420   -2.1870 h1        1 KBG      0.066200
     22 HOAF       -0.4180   -1.4420   -3.7080 ho        1 KBG      0.413000
@<TRIPOS>BOND
     1    1    2 1   
     2    1   13 1   
     3    2    3 1   
     4    2   10 1   
     5    2   14 1   
     6    3    4 1   
     7    3    5 1   
     8    3   15 1   
     9    4   16 1   
    10    5    6 2   
    11    5    7 1   
    12    7    8 1   
    13    7    9 1   
    14    7   17 1   
    15    8   18 1   
    16    9   10 1   
    17   10   11 1   
    18   10   19 1   
    19   11   12 1   
    20   11   20 1   
    21   11   21 1   
    22   12   22 1   
@<TRIPOS>SUBSTRUCTURE
     1 KBG         1 TEMP              0 ****  ****    0 ROOT
