@<TRIPOS>MOLECULE
KBI
   55    59     1     0     0
SMALL
bcc


@<TRIPOS>ATOM
      1 C1          0.1590    0.3030   -0.0740 ca        1 KBI      0.869900
      2 F1          2.5500   -2.1950    5.6520 f         1 KBI     -0.118900
      3 N1          1.5570    0.2270   -0.0700 nb        1 KBI     -0.742000
      4 O1          0.9620   -1.4560   -6.3620 oh        1 KBI     -0.597800
      5 C2          0.0200    0.1680    2.2160 ca        1 KBI      0.467800
      6 F2          5.1940   -0.0350    8.9490 f         1 KBI     -0.125900
      7 N2         -0.6590    0.2510    1.0460 nb        1 KBI     -0.759000
      8 O2         -2.3490    0.7140    6.2040 os        1 KBI     -0.428600
      9 C3          1.4760    0.1070    2.3230 ca        1 KBI     -0.180200
     10 F3          1.1360    1.9980    7.5350 f         1 KBI     -0.118900
     11 N3         -0.4650    0.1300    3.5350 na        1 KBI     -0.280000
     12 C4          2.1830    0.1360    1.1040 ca        1 KBI      0.514200
     13 N4          1.8690    0.0230    3.6640 nc        1 KBI     -0.557100
     14 C5          0.7060    0.0200    4.3730 cd        1 KBI      0.586700
     15 N5          0.5760   -0.1550    5.7760 nh        1 KBI     -0.634600
     16 C6          1.7700   -0.0920    6.5370 ca        1 KBI      0.024600
     17 N6         -0.4970    0.5380   -1.3020 nh        1 KBI     -0.809900
     18 C7          0.1190    0.1180   -2.5500 c3        1 KBI      0.203500
     19 C8         -0.6470    0.7150   -3.7470 c3        1 KBI     -0.092400
     20 C9          0.0570    0.3740   -5.0400 c3        1 KBI     -0.092900
     21 C10         0.1880   -1.1370   -5.2120 c3        1 KBI      0.139100
     22 C11         0.9070   -1.7580   -4.0190 c3        1 KBI     -0.092900
     23 C12         0.2030   -1.4090   -2.7280 c3        1 KBI     -0.092400
     24 C13        -1.8430    0.0950    3.9380 c3        1 KBI      0.033000
     25 C14        -2.2440    1.2560    4.8880 c3        1 KBI      0.100400
     26 C15        -2.6340   -0.6890    6.1200 c3        1 KBI      0.118400
     27 C16        -2.2550   -1.1730    4.7260 c3        1 KBI     -0.129400
     28 C17         2.0220    0.9770    7.4440 ca        1 KBI      0.179900
     29 C18         3.1590    0.9960    8.2620 ca        1 KBI     -0.215500
     30 C19         4.0870   -0.0530    8.1710 ca        1 KBI      0.177900
     31 C20         3.8790   -1.1190    7.2850 ca        1 KBI     -0.215500
     32 C21         2.7280   -1.1440    6.4800 ca        1 KBI      0.179900
     33 H4          3.2870    0.0820    1.0730 h4        1 KBI      0.042100
     34 HN5        -0.1670    0.4020    6.1720 hn        1 KBI      0.440800
     35 HN6        -1.4840    0.3750   -1.2720 hn        1 KBI      0.415800
     36 H7          1.1710    0.5340   -2.5760 h1        1 KBI      0.092700
     37 H8         -1.6940    0.3140   -3.7690 hc        1 KBI      0.049450
     38 H8A        -0.7100    1.8300   -3.6410 hc        1 KBI      0.049450
     39 H9         -0.5190    0.8000   -5.9020 hc        1 KBI      0.055700
     40 H9A         1.0790    0.8340   -5.0570 hc        1 KBI      0.055700
     41 H10        -0.8380   -1.5940   -5.3210 h1        1 KBI      0.031700
     42 H11         1.9660   -1.3910   -3.9980 hc        1 KBI      0.055700
     43 H11A        0.9390   -2.8710   -4.1490 hc        1 KBI      0.055700
     44 H12        -0.8290   -1.8480   -2.7270 hc        1 KBI      0.049450
     45 H12A        0.7680   -1.8590   -1.8700 hc        1 KBI      0.049450
     46 H13        -2.4610    0.1670    2.9950 h1        1 KBI      0.104700
     47 H14        -1.4980    2.0870    4.9530 h1        1 KBI      0.066700
     48 H14A       -3.2430    1.6610    4.5820 h1        1 KBI      0.066700
     49 H15        -2.0240   -1.1700    6.9270 h1        1 KBI      0.057200
     50 H15A       -3.7250   -0.8330    6.3300 h1        1 KBI      0.057200
     51 H16        -1.4350   -1.9310    4.7760 hc        1 KBI      0.074700
     52 H16A       -3.1300   -1.6520    4.2200 hc        1 KBI      0.074700
     53 H18         3.3240    1.8310    8.9590 ha        1 KBI      0.172500
     54 H20         4.6100   -1.9380    7.2160 ha        1 KBI      0.172500
     55 HO1         0.5490   -1.0070   -7.1080 ho        1 KBI      0.399000
@<TRIPOS>BOND
     1    1    3 ar  
     2    1    7 ar  
     3    1   17 1   
     4    2   32 1   
     5    3   12 ar  
     6    4   21 1   
     7    4   55 1   
     8    5    7 ar  
     9    5    9 ar  
    10    5   11 1   
    11    6   30 1   
    12    8   25 1   
    13    8   26 1   
    14    9   12 ar  
    15    9   13 1   
    16   10   28 1   
    17   11   14 1   
    18   11   24 1   
    19   12   33 1   
    20   13   14 2   
    21   14   15 1   
    22   15   16 1   
    23   15   34 1   
    24   16   28 ar  
    25   16   32 ar  
    26   17   18 1   
    27   17   35 1   
    28   18   19 1   
    29   18   23 1   
    30   18   36 1   
    31   19   20 1   
    32   19   37 1   
    33   19   38 1   
    34   20   21 1   
    35   20   39 1   
    36   20   40 1   
    37   21   22 1   
    38   21   41 1   
    39   22   23 1   
    40   22   42 1   
    41   22   43 1   
    42   23   44 1   
    43   23   45 1   
    44   24   25 1   
    45   24   27 1   
    46   24   46 1   
    47   25   47 1   
    48   25   48 1   
    49   26   27 1   
    50   26   49 1   
    51   26   50 1   
    52   27   51 1   
    53   27   52 1   
    54   28   29 ar  
    55   29   30 ar  
    56   29   53 1   
    57   30   31 ar  
    58   31   32 ar  
    59   31   54 1   
@<TRIPOS>SUBSTRUCTURE
     1 KBI         1 TEMP              0 ****  ****    0 ROOT
