@<TRIPOS>MOLECULE
KBI
   57    61     1     0     0
SMALL
bcc


@<TRIPOS>ATOM
      1 C1          0.0130    1.3990   -0.0540 ca        1 KBI      0.756900
      2 F1          1.2140   -2.1880    6.0130 f         1 KBI     -0.106400
      3 N1          1.2580    2.0150    0.0390 nb        1 KBI     -0.675000
      4 O1          1.0040   -2.6020   -5.0820 oh        1 KBI     -0.578800
      5 C2         -0.1140    0.8890    2.1620 ca        1 KBI      0.451800
      6 F2          5.3820   -0.9910    7.9730 f         1 KBI     -0.063900
      7 N2         -0.7220    0.8220    0.9370 nb        1 KBI     -0.650000
      8 O2         -2.2330   -0.5030    6.0150 os        1 KBI     -0.438600
      9 C3          1.1950    1.5140    2.3780 ca        1 KBI     -0.131200
     10 F3          2.3450    2.4240    6.6470 f         1 KBI     -0.106400
     11 N3         -0.5500    0.4340    3.4140 na        1 KBI     -0.209000
     12 C4          1.8370    2.0700    1.2380 ca        1 KBI      0.566200
     13 N4          1.5480    1.4370    3.7210 nc        1 KBI     -0.435100
     14 C5          0.5000    0.7930    4.3140 cd        1 KBI      0.453700
     15 N5          0.4430    0.5210    5.7610 n4        1 KBI     -0.536400
     16 C6          1.7370    0.1310    6.3140 ca        1 KBI     -0.185400
     17 N6         -0.5860    1.3860   -1.4220 n4        1 KBI     -0.750700
     18 C7          0.0750    0.3630   -2.3340 c3        1 KBI      0.128500
     19 C8         -0.2230    0.7050   -3.8000 c3        1 KBI     -0.097400
     20 C9          0.5190   -0.2690   -4.6920 c3        1 KBI     -0.102900
     21 C10         0.1440   -1.7170   -4.3840 c3        1 KBI      0.143100
     22 C11         0.3420   -2.0380   -2.9030 c3        1 KBI     -0.102900
     23 C12        -0.4030   -1.0570   -2.0220 c3        1 KBI     -0.097400
     24 C13        -1.7890   -0.2650    3.6960 c3        1 KBI     -0.008000
     25 C14        -2.5720    0.3270    4.9030 c3        1 KBI      0.089400
     26 C15        -2.1110   -1.8560    5.5310 c3        1 KBI      0.099400
     27 C16        -1.6040   -1.7540    4.0910 c3        1 KBI     -0.145400
     28 C17         2.6640    1.1180    6.7570 ca        1 KBI      0.233900
     29 C18         3.8870    0.7390    7.3190 ca        1 KBI     -0.202500
     30 C19         4.2070   -0.6270    7.4380 ca        1 KBI      0.271900
     31 C20         3.3060   -1.6220    6.9980 ca        1 KBI     -0.202500
     32 C21         2.0860   -1.2450    6.4360 ca        1 KBI      0.233900
     33 H4          2.8300    2.5690    1.2980 h4        1 KBI      0.101100
     34 HN5         0.1290    1.3910    6.2280 hn        1 KBI      0.501300
     35 HN6        -1.5920    1.1770   -1.3580 hn        1 KBI      0.477800
     36 H7          1.1910    0.4380   -2.1600 hx        1 KBI      0.126700
     37 H8         -1.3250    0.6330   -4.0000 hc        1 KBI      0.067450
     38 H8A         0.1120    1.7490   -4.0410 hc        1 KBI      0.067450
     39 H9          0.2720   -0.0380   -5.7630 hc        1 KBI      0.083950
     40 H9A         1.6280   -0.1430   -4.5720 hc        1 KBI      0.083950
     41 H10        -0.9280   -1.9020   -4.6770 h1        1 KBI      0.048700
     42 H11         1.4380   -2.0270   -2.6690 hc        1 KBI      0.083950
     43 H11A       -0.0320   -3.0770   -2.7020 hc        1 KBI      0.083950
     44 H12        -0.2120   -1.3100   -0.9470 hc        1 KBI      0.067450
     45 H12A       -1.5070   -1.1440   -2.2110 hc        1 KBI      0.067450
     46 H13        -2.4210   -0.1890    2.7640 h1        1 KBI      0.130700
     47 H14        -2.3040    1.3730    5.1900 h1        1 KBI      0.096700
     48 H14A       -3.6730    0.2560    4.6990 h1        1 KBI      0.096700
     49 H15        -3.1130   -2.3520    5.5930 h1        1 KBI      0.094700
     50 H15A       -1.3880   -2.3610    6.2220 h1        1 KBI      0.094700
     51 H16        -2.2160   -2.3980    3.4100 hc        1 KBI      0.094200
     52 H16A       -0.5430   -2.0990    4.0170 hc        1 KBI      0.094200
     53 H18         4.5960    1.5120    7.6690 ha        1 KBI      0.215000
     54 H20         3.5640   -2.6910    7.1030 ha        1 KBI      0.215000
     55 H52        -0.2500   -0.2360    5.9560 hn        1 KBI      0.501300
     56 H62        -0.4640    2.3230   -1.8370 hn        1 KBI      0.477800
     57 HO1         0.7800   -2.5400   -6.0190 ho        1 KBI      0.424000
@<TRIPOS>BOND
     1    1    3 ar  
     2    1    7 ar  
     3    1   17 1   
     4    2   32 1   
     5    3   12 ar  
     6    4   21 1   
     7    4   57 1   
     8    5    7 ar  
     9    5    9 ar  
    10    5   11 1   
    11    6   30 1   
    12    8   25 1   
    13    8   26 1   
    14    9   12 ar  
    15    9   13 1   
    16   10   28 1   
    17   11   14 1   
    18   11   24 1   
    19   12   33 1   
    20   13   14 2   
    21   14   15 1   
    22   15   16 1   
    23   15   34 1   
    24   15   55 1   
    25   16   28 ar  
    26   16   32 ar  
    27   17   18 1   
    28   17   35 1   
    29   17   56 1   
    30   18   19 1   
    31   18   23 1   
    32   18   36 1   
    33   19   20 1   
    34   19   37 1   
    35   19   38 1   
    36   20   21 1   
    37   20   39 1   
    38   20   40 1   
    39   21   22 1   
    40   21   41 1   
    41   22   23 1   
    42   22   42 1   
    43   22   43 1   
    44   23   44 1   
    45   23   45 1   
    46   24   25 1   
    47   24   27 1   
    48   24   46 1   
    49   25   47 1   
    50   25   48 1   
    51   26   27 1   
    52   26   49 1   
    53   26   50 1   
    54   27   51 1   
    55   27   52 1   
    56   28   29 ar  
    57   29   30 ar  
    58   29   53 1   
    59   30   31 ar  
    60   31   32 ar  
    61   31   54 1   
@<TRIPOS>SUBSTRUCTURE
     1 KBI         1 TEMP              0 ****  ****    0 ROOT
