@<TRIPOS>MOLECULE
KBI
   55    59     1     0     0
SMALL
bcc


@<TRIPOS>ATOM
      1 C1          0.1580    0.3050   -0.0740 ca        1 KBI      0.869900
      2 F1          2.5530   -2.1930    5.6500 f         1 KBI     -0.118900
      3 N1          1.5570    0.2330   -0.0690 nb        1 KBI     -0.742000
      4 O1          0.9710   -1.4440   -6.3630 oh        1 KBI     -0.597800
      5 C2          0.0180    0.1670    2.2160 ca        1 KBI      0.467800
      6 F2          5.1890   -0.0290    8.9510 f         1 KBI     -0.125900
      7 N2         -0.6610    0.2480    1.0460 nb        1 KBI     -0.759000
      8 O2         -2.3540    0.7020    6.2030 os        1 KBI     -0.428600
      9 C3          1.4750    0.1100    2.3240 ca        1 KBI     -0.180200
     10 F3          1.1260    1.9930    7.5390 f         1 KBI     -0.118900
     11 N3         -0.4670    0.1240    3.5350 na        1 KBI     -0.280000
     12 C4          2.1820    0.1430    1.1050 ca        1 KBI      0.514200
     13 N4          1.8670    0.0260    3.6660 nc        1 KBI     -0.557100
     14 C5          0.7040    0.0180    4.3740 cd        1 KBI      0.586700
     15 N5          0.5730   -0.1590    5.7760 nu        1 KBI     -0.634600
     16 C6          1.7670   -0.0940    6.5380 ca        1 KBI      0.024600
     17 N6         -0.4980    0.5380   -1.3010 nu        1 KBI     -0.809900
     18 C7          0.1210    0.1220   -2.5500 c3        1 KBI      0.203500
     19 C8         -0.6470    0.7180   -3.7460 c3        1 KBI     -0.092400
     20 C9          0.0580    0.3810   -5.0400 c3        1 KBI     -0.092900
     21 C10         0.1950   -1.1290   -5.2130 c3        1 KBI      0.139100
     22 C11         0.9160   -1.7500   -4.0210 c3        1 KBI     -0.092900
     23 C12         0.2100   -1.4040   -2.7300 c3        1 KBI     -0.092400
     24 C13        -1.8450    0.0860    3.9370 c3        1 KBI      0.033000
     25 C14        -2.2500    1.2450    4.8880 c3        1 KBI      0.100400
     26 C15        -2.6350   -0.7020    6.1180 c3        1 KBI      0.118400
     27 C16        -2.2540   -1.1840    4.7230 c3        1 KBI     -0.129400
     28 C17         2.0160    0.9750    7.4460 ca        1 KBI      0.179900
     29 C18         3.1520    0.9970    8.2650 ca        1 KBI     -0.215500
     30 C19         4.0830   -0.0490    8.1720 ca        1 KBI      0.177900
     31 C20         3.8780   -1.1150    7.2850 ca        1 KBI     -0.215500
     32 C21         2.7280   -1.1420    6.4790 ca        1 KBI      0.179900
     33 H4          3.2860    0.0930    1.0750 h4        1 KBI      0.042100
     34 HN5        -0.1710    0.3960    6.1730 hn        1 KBI      0.440800
     35 HN6        -1.4840    0.3720   -1.2720 hn        1 KBI      0.415800
     36 H7          1.1710    0.5420   -2.5750 h1        1 KBI      0.092700
     37 H8         -0.7140    1.8320   -3.6390 hc        1 KBI      0.049450
     38 H8A        -1.6930    0.3130   -3.7700 hc        1 KBI      0.049450
     39 H9         -0.5190    0.8060   -5.9020 hc        1 KBI      0.055700
     40 H9A         1.0790    0.8440   -5.0560 hc        1 KBI      0.055700
     41 H10        -0.8280   -1.5900   -5.3230 h1        1 KBI      0.031700
     42 H11         1.9740   -1.3780   -3.9980 hc        1 KBI      0.055700
     43 H11A        0.9530   -2.8620   -4.1520 hc        1 KBI      0.055700
     44 H12         0.7760   -1.8530   -1.8720 hc        1 KBI      0.049450
     45 H12A       -0.8190   -1.8480   -2.7300 hc        1 KBI      0.049450
     46 H13        -2.4630    0.1570    2.9940 h1        1 KBI      0.104700
     47 H14        -3.2500    1.6470    4.5820 h1        1 KBI      0.066700
     48 H14A       -1.5070    2.0780    4.9540 h1        1 KBI      0.066700
     49 H15        -3.7260   -0.8490    6.3270 h1        1 KBI      0.057200
     50 H15A       -2.0250   -1.1820    6.9250 h1        1 KBI      0.057200
     51 H16        -3.1270   -1.6650    4.2180 hc        1 KBI      0.074700
     52 H16A       -1.4310   -1.9390    4.7740 hc        1 KBI      0.074700
     53 H18         3.3140    1.8310    8.9630 ha        1 KBI      0.172500
     54 H20         4.6120   -1.9320    7.2160 ha        1 KBI      0.172500
     55 HO1         0.5560   -0.9960   -7.1090 ho        1 KBI      0.399000
@<TRIPOS>BOND
     1    1    3 ar  
     2    1    7 ar  
     3    1   17 1   
     4    2   32 1   
     5    3   12 ar  
     6    4   21 1   
     7    4   55 1   
     8    5    7 ar  
     9    5    9 ar  
    10    5   11 1   
    11    6   30 1   
    12    8   25 1   
    13    8   26 1   
    14    9   12 ar  
    15    9   13 1   
    16   10   28 1   
    17   11   14 1   
    18   11   24 1   
    19   12   33 1   
    20   13   14 2   
    21   14   15 1   
    22   15   16 1   
    23   15   34 1   
    24   16   28 ar  
    25   16   32 ar  
    26   17   18 1   
    27   17   35 1   
    28   18   19 1   
    29   18   23 1   
    30   18   36 1   
    31   19   20 1   
    32   19   37 1   
    33   19   38 1   
    34   20   21 1   
    35   20   39 1   
    36   20   40 1   
    37   21   22 1   
    38   21   41 1   
    39   22   23 1   
    40   22   42 1   
    41   22   43 1   
    42   23   44 1   
    43   23   45 1   
    44   24   25 1   
    45   24   27 1   
    46   24   46 1   
    47   25   47 1   
    48   25   48 1   
    49   26   27 1   
    50   26   49 1   
    51   26   50 1   
    52   27   51 1   
    53   27   52 1   
    54   28   29 ar  
    55   29   30 ar  
    56   29   53 1   
    57   30   31 ar  
    58   31   32 ar  
    59   31   54 1   
@<TRIPOS>SUBSTRUCTURE
     1 KBI         1 TEMP              0 ****  ****    0 ROOT
