@<TRIPOS>MOLECULE
KBI
   55    59     1     0     0
SMALL
bcc


@<TRIPOS>ATOM
      1 C1          2.7960    0.2010    0.5170 ca        1 KBI      0.870900
      2 F1         -3.1250   -1.4910   -2.0950 f         1 KBI     -0.118900
      3 N1          2.5760   -1.1810    0.5480 nb        1 KBI     -0.744000
      4 O1          9.0080   -1.6660   -0.6810 oh        1 KBI     -0.598800
      5 C2          0.5620    0.6750    0.2490 ca        1 KBI      0.468800
      6 F2         -6.8790   -3.4150    0.0800 f         1 KBI     -0.125900
      7 N2          1.8200    1.1730    0.3420 nb        1 KBI     -0.759000
      8 O2         -3.0260    3.6580    0.4090 os        1 KBI     -0.428600
      9 C3          0.2330   -0.7480    0.2950 ca        1 KBI     -0.181200
     10 F3         -4.9370    0.5360    1.8730 f         1 KBI     -0.118900
     11 N3         -0.6620    1.3490    0.1020 na        1 KBI     -0.280000
     12 C4          1.3240   -1.6270    0.4440 ca        1 KBI      0.514200
     13 N4         -1.1490   -0.9380    0.1700 nc        1 KBI     -0.557100
     14 C5         -1.6670    0.3150    0.0400 cd        1 KBI      0.586700
     15 N5         -3.0240    0.6420   -0.2190 nh        1 KBI     -0.634600
     16 C6         -3.9640   -0.4140   -0.1070 ca        1 KBI      0.024600
     17 N6          4.0990    0.6800    0.7650 nh        1 KBI     -0.811900
     18 C7          5.2540   -0.1540    0.4750 c3        1 KBI      0.204500
     19 C8          6.5290    0.4800    1.0630 c3        1 KBI     -0.092400
     20 C9          7.7120   -0.4420    0.8690 c3        1 KBI     -0.092900
     21 C10         7.9250   -0.7460   -0.6100 c3        1 KBI      0.139100
     22 C11         6.6620   -1.3340   -1.2320 c3        1 KBI     -0.092900
     23 C12         5.4780   -0.4170   -1.0250 c3        1 KBI     -0.092400
     24 C13        -0.8440    2.7650   -0.0540 c3        1 KBI      0.033000
     25 C14        -1.7660    3.3980    1.0240 c3        1 KBI      0.100400
     26 C15        -2.8440    3.8130   -1.0050 c3        1 KBI      0.118400
     27 C16        -1.5070    3.1890   -1.3880 c3        1 KBI     -0.129400
     28 C17        -4.9420   -0.4360    0.9280 ca        1 KBI      0.179900
     29 C18        -5.9270   -1.4300    0.9890 ca        1 KBI     -0.215500
     30 C19        -5.9390   -2.4450    0.0200 ca        1 KBI      0.177900
     31 C20        -4.9880   -2.4620   -1.0100 ca        1 KBI     -0.215500
     32 C21        -4.0130   -1.4540   -1.0790 ca        1 KBI      0.179900
     33 H4          1.1850   -2.7230    0.4770 h4        1 KBI      0.042100
     34 HN5        -3.3230    1.4790    0.2590 hn        1 KBI      0.441800
     35 HN6         4.2320    1.6430    0.5270 hn        1 KBI      0.416800
     36 H7          5.0990   -1.1510    0.9880 h1        1 KBI      0.091700
     37 H8          6.7310    1.4650    0.5660 hc        1 KBI      0.049700
     38 H8A         6.3890    0.6720    2.1590 hc        1 KBI      0.049700
     39 H9          8.6380    0.0330    1.2840 hc        1 KBI      0.055700
     40 H9A         7.5510   -1.4050    1.4210 hc        1 KBI      0.055700
     41 H10         8.2100    0.1980   -1.1570 h1        1 KBI      0.031700
     42 H11         6.8240   -1.4950   -2.3290 hc        1 KBI      0.055700
     43 H11A        6.4580   -2.3360   -0.7700 hc        1 KBI      0.055700
     44 H12         4.5630   -0.8890   -1.4680 hc        1 KBI      0.049700
     45 H12A        5.6550    0.5540   -1.5580 hc        1 KBI      0.049700
     46 H13         0.1790    3.2370    0.0210 h1        1 KBI      0.104700
     47 H14        -1.3240    4.3690    1.3690 h1        1 KBI      0.067200
     48 H14A       -1.9780    2.7410    1.9030 h1        1 KBI      0.067200
     49 H15        -3.7160    3.2970   -1.4810 h1        1 KBI      0.056700
     50 H15A       -2.8750    4.9090   -1.2390 h1        1 KBI      0.056700
     51 H16        -0.8540    3.9350   -1.9030 hc        1 KBI      0.074700
     52 H16A       -1.6550    2.3270   -2.0840 hc        1 KBI      0.074700
     53 H18        -6.6750   -1.4170    1.7950 ha        1 KBI      0.172500
     54 H20        -5.0000   -3.2610   -1.7660 ha        1 KBI      0.172500
     55 HO1         9.0890   -1.9300   -1.6040 ho        1 KBI      0.400000
@<TRIPOS>BOND
     1    1    3 ar  
     2    1    7 ar  
     3    1   17 1   
     4    2   32 1   
     5    3   12 ar  
     6    4   21 1   
     7    4   55 1   
     8    5    7 ar  
     9    5    9 ar  
    10    5   11 1   
    11    6   30 1   
    12    8   25 1   
    13    8   26 1   
    14    9   12 ar  
    15    9   13 1   
    16   10   28 1   
    17   11   14 1   
    18   11   24 1   
    19   12   33 1   
    20   13   14 2   
    21   14   15 1   
    22   15   16 1   
    23   15   34 1   
    24   16   28 ar  
    25   16   32 ar  
    26   17   18 1   
    27   17   35 1   
    28   18   19 1   
    29   18   23 1   
    30   18   36 1   
    31   19   20 1   
    32   19   37 1   
    33   19   38 1   
    34   20   21 1   
    35   20   39 1   
    36   20   40 1   
    37   21   22 1   
    38   21   41 1   
    39   22   23 1   
    40   22   42 1   
    41   22   43 1   
    42   23   44 1   
    43   23   45 1   
    44   24   25 1   
    45   24   27 1   
    46   24   46 1   
    47   25   47 1   
    48   25   48 1   
    49   26   27 1   
    50   26   49 1   
    51   26   50 1   
    52   27   51 1   
    53   27   52 1   
    54   28   29 ar  
    55   29   30 ar  
    56   29   53 1   
    57   30   31 ar  
    58   31   32 ar  
    59   31   54 1   
@<TRIPOS>SUBSTRUCTURE
     1 KBI         1 TEMP              0 ****  ****    0 ROOT
