@<TRIPOS>MOLECULE
KBK
   35    35     1     0     0
SMALL
bcc


@<TRIPOS>ATOM
      1 O9          0.0000    0.0000    0.0000 o         1 KBK     -0.585167
      2 P8          1.6100    0.0000    0.0000 p5        1 KBK      0.495700
      3 O11         2.1460    1.3150   -0.7580 o         1 KBK     -0.585167
      4 O10         2.1040   -1.2080   -0.6970 o         1 KBK     -0.585167
      5 C7          2.2180    0.0000    1.7200 c3        1 KBK      0.227200
      6 O12         3.5980    0.3680    1.7370 os        1 KBK     -0.363600
      7 C13         4.4790   -0.6550    1.2690 c3        1 KBK      0.149400
      8 C14         5.9070   -0.2090    1.4510 c         1 KBK      0.305100
      9 N16         6.9180   -1.0190    1.0770 nx        1 KBK      0.214300
     10 C17         8.3070   -0.5860    1.2540 c3        1 KBK      0.004100
     11 O18         6.6380   -2.2870    0.5130 oh        1 KBK     -0.518300
     12 O15         6.1470    0.8770    1.9330 o         1 KBK     -0.551100
     13 C3          1.4230    0.9880    2.5340 ca        1 KBK     -0.044300
     14 C4          1.8420    2.3020    2.6240 ca        1 KBK     -0.044000
     15 C5          1.1150    3.2100    3.3700 ca        1 KBK     -0.186000
     16 C6         -0.0350    2.8030    4.0270 ca        1 KBK      0.103100
     17 O19        -0.7520    3.6940    4.7610 os        1 KBK     -0.322900
     18 C20        -1.9270    3.2030    5.4110 c3        1 KBK      0.245700
     19 C1         -0.4540    1.4830    3.9350 ca        1 KBK     -0.186000
     20 C2          0.2740    0.5800    3.1840 ca        1 KBK     -0.044000
     21 H3          2.1030   -0.9910    2.1430 h1        1 KBK      0.007700
     22 H4          4.2900   -0.8420    0.2180 h1        1 KBK      0.045200
     23 H5          4.3090   -1.5640    1.8330 h1        1 KBK      0.045200
     24 H6          8.5520    0.1560    0.5040 hx        1 KBK      0.040700
     25 H7          8.4280   -0.1550    2.2410 hx        1 KBK      0.040700
     26 H8          8.9670   -1.4380    1.1480 hx        1 KBK      0.040700
     27 H9          6.9670   -2.3170   -0.3700 ho        1 KBK      0.416000
     28 H10         2.7410    2.6210    2.1110 ha        1 KBK      0.115500
     29 H11         1.4430    4.2400    3.4410 ha        1 KBK      0.099500
     30 H12        -1.6570    2.4010    6.0870 h1        1 KBK     -0.012633
     31 H13        -2.6220    2.8320    4.6680 h1        1 KBK     -0.012633
     32 H14        -2.3920    4.0060    5.9710 h1        1 KBK     -0.012633
     33 H15        -1.3810    1.1750    4.4030 ha        1 KBK      0.099500
     34 H16        -0.0530   -0.4500    3.1110 ha        1 KBK      0.115500
     35 H161        6.9290   -1.4270    1.9910 hn        1 KBK      0.243800
@<TRIPOS>BOND
     1    1    2 1   
     2    2    3 1   
     3    2    4 1   
     4    2    5 1   
     5    5    6 1   
     6    5   13 1   
     7    5   21 1   
     8    6    7 1   
     9    7    8 1   
    10    7   22 1   
    11    7   23 1   
    12    8    9 1   
    13    8   12 2   
    14    9   10 1   
    15    9   11 1   
    16    9   35 1   
    17   10   24 1   
    18   10   25 1   
    19   10   26 1   
    20   11   27 1   
    21   13   14 ar  
    22   13   20 ar  
    23   14   15 ar  
    24   14   28 1   
    25   15   16 ar  
    26   15   29 1   
    27   16   17 1   
    28   16   19 ar  
    29   17   18 1   
    30   18   30 1   
    31   18   31 1   
    32   18   32 1   
    33   19   20 ar  
    34   19   33 1   
    35   20   34 1   
@<TRIPOS>SUBSTRUCTURE
     1 KBK         1 TEMP              0 ****  ****    0 ROOT
