@<TRIPOS>MOLECULE
KBM
   31    33     1     0     0
SMALL
bcc


@<TRIPOS>ATOM
      1 CL1        -5.7590   -1.7230   -0.0200 cl        1 KBM     -0.086400
      2 C2         -4.3860   -0.7230   -0.0430 ca        1 KBM      0.043400
      3 C3         -4.4340    0.5360    0.5660 ca        1 KBM     -0.141000
      4 C4         -3.3070    1.3520    0.5410 ca        1 KBM     -0.066500
      5 C5         -3.2180   -1.1640   -0.6730 ca        1 KBM     -0.141000
      6 C6         -2.0910   -0.3440   -0.6860 ca        1 KBM     -0.066500
      7 C7         -2.1260    0.9140   -0.0770 ca        1 KBM     -0.163600
      8 C8         -0.9630    1.8250   -0.0900 c         1 KBM      0.614900
      9 O9         -1.1050    3.0560   -0.0980 o         1 KBM     -0.520100
     10 C10         0.3910    1.2620   -0.0870 cc        1 KBM     -0.062100
     11 O11         0.5530   -0.1130    0.1990 os        1 KBM     -0.190200
     12 C12         1.9300   -0.3400    0.1620 ca        1 KBM      0.043100
     13 C13         2.5730   -1.5510    0.3880 ca        1 KBM     -0.094000
     14 C14         1.6050    1.8830   -0.2980 cd        1 KBM     -0.086200
     15 C15         2.6300    0.8680   -0.1480 ca        1 KBM     -0.095800
     16 C16         4.0160    0.8550   -0.2350 ca        1 KBM     -0.100000
     17 C17         4.6670   -0.3700   -0.0090 ca        1 KBM      0.103100
     18 C18         3.9630   -1.5510    0.2970 ca        1 KBM     -0.169000
     19 O19         6.0450   -0.3030   -0.1160 os        1 KBM     -0.326900
     20 C20         6.7590   -1.5090    0.1240 c3        1 KBM      0.112700
     21 H3         -5.3560    0.8820    1.0570 ha        1 KBM      0.152500
     22 H4         -3.3360    2.3530    1.0020 ha        1 KBM      0.155000
     23 H5         -3.1840   -2.1520   -1.1560 ha        1 KBM      0.152500
     24 H6         -1.1690   -0.6960   -1.1780 ha        1 KBM      0.155000
     25 H13         2.0120   -2.4630    0.6280 ha        1 KBM      0.154000
     26 H14         1.7690    2.9350   -0.5300 ha        1 KBM      0.181000
     27 H16         4.5950    1.7580   -0.4700 ha        1 KBM      0.161000
     28 H18         4.5060   -2.4920    0.4700 ha        1 KBM      0.144000
     29 H20         7.8290   -1.2070   -0.0070 h1        1 KBM      0.045700
     30 H20A        6.5790   -1.8760    1.1640 h1        1 KBM      0.045700
     31 H20B        6.4770   -2.2910   -0.6230 h1        1 KBM      0.045700
@<TRIPOS>BOND
     1    1    2 1   
     2    2    3 ar  
     3    2    5 ar  
     4    3    4 ar  
     5    3   21 1   
     6    4    7 ar  
     7    4   22 1   
     8    5    6 ar  
     9    5   23 1   
    10    6    7 ar  
    11    6   24 1   
    12    7    8 1   
    13    8    9 2   
    14    8   10 1   
    15   10   11 1   
    16   10   14 2   
    17   11   12 1   
    18   12   13 ar  
    19   12   15 ar  
    20   13   18 ar  
    21   13   25 1   
    22   14   15 1   
    23   14   26 1   
    24   15   16 ar  
    25   16   17 ar  
    26   16   27 1   
    27   17   18 ar  
    28   17   19 1   
    29   18   28 1   
    30   19   20 1   
    31   20   29 1   
    32   20   30 1   
    33   20   31 1   
@<TRIPOS>SUBSTRUCTURE
     1 KBM         1 TEMP              0 ****  ****    0 ROOT
