@<TRIPOS>MOLECULE
KBM
   31    33     1     0     0
SMALL
bcc


@<TRIPOS>ATOM
      1 Cl1         0.0380    0.1570   -0.1210 cl        1 KBM     -0.086400
      2 C2          1.7360    0.1150   -0.0880 ca        1 KBM      0.043400
      3 C3          2.3940   -0.4470    1.0110 ca        1 KBM     -0.141000
      4 C4          3.7860   -0.4750    1.0340 ca        1 KBM     -0.066500
      5 C5          2.4630    0.6450   -1.1580 ca        1 KBM     -0.141000
      6 C6          3.8560    0.6050   -1.1320 ca        1 KBM     -0.066500
      7 C7          4.5250    0.0410   -0.0400 ca        1 KBM     -0.163600
      8 C8          6.0000    0.0020    0.0400 c         1 KBM      0.614900
      9 O9          6.5900    0.0600    1.1280 o         1 KBM     -0.520100
     10 C10         6.7840   -0.1160   -1.1930 cc        1 KBM     -0.062100
     11 O11         6.1160   -0.4590   -2.3910 os        1 KBM     -0.190200
     12 C12         7.1140   -0.5270   -3.3650 ca        1 KBM      0.043100
     13 C13         6.9360   -0.8380   -4.7080 ca        1 KBM     -0.094000
     14 C14         8.1420    0.0270   -1.3910 cd        1 KBM     -0.086200
     15 C15         8.3920   -0.2280   -2.7970 ca        1 KBM     -0.095800
     16 C16         9.5220   -0.2410   -3.6040 ca        1 KBM     -0.100000
     17 C17         9.3430   -0.5530   -4.9630 ca        1 KBM      0.103100
     18 C18         8.0770   -0.8470   -5.5080 ca        1 KBM     -0.169000
     19 O19        10.5130   -0.5420   -5.7020 os        1 KBM     -0.326900
     20 C20        10.3950   -0.8710   -7.0800 c3        1 KBM      0.112700
     21 H3          1.8200   -0.8600    1.8540 ha        1 KBM      0.152500
     22 H4          4.3180   -0.9000    1.9010 ha        1 KBM      0.155000
     23 H5          1.9430    1.0920   -2.0190 ha        1 KBM      0.152500
     24 H6          4.4280    1.0180   -1.9790 ha        1 KBM      0.155000
     25 H13         5.9440   -1.0670   -5.1180 ha        1 KBM      0.154000
     26 H14         8.8880    0.2810   -0.6400 ha        1 KBM      0.181000
     27 H16        10.5230   -0.0180   -3.2120 ha        1 KBM      0.161000
     28 H18         7.9740   -1.0880   -6.5760 ha        1 KBM      0.144000
     29 H20         9.9960   -1.9070   -7.2080 h1        1 KBM      0.045700
     30 H20A        9.7450   -0.1320   -7.6090 h1        1 KBM      0.045700
     31 H20B       11.4490   -0.8060   -7.4530 h1        1 KBM      0.045700
@<TRIPOS>BOND
     1    1    2 1   
     2    2    3 ar  
     3    2    5 ar  
     4    3    4 ar  
     5    3   21 1   
     6    4    7 ar  
     7    4   22 1   
     8    5    6 ar  
     9    5   23 1   
    10    6    7 ar  
    11    6   24 1   
    12    7    8 1   
    13    8    9 2   
    14    8   10 1   
    15   10   11 1   
    16   10   14 2   
    17   11   12 1   
    18   12   13 ar  
    19   12   15 ar  
    20   13   18 ar  
    21   13   25 1   
    22   14   15 1   
    23   14   26 1   
    24   15   16 ar  
    25   16   17 ar  
    26   16   27 1   
    27   17   18 ar  
    28   17   19 1   
    29   18   28 1   
    30   19   20 1   
    31   20   29 1   
    32   20   30 1   
    33   20   31 1   
@<TRIPOS>SUBSTRUCTURE
     1 KBM         1 TEMP              0 ****  ****    0 ROOT
