@<TRIPOS>MOLECULE
KBM
   31    33     1     0     0
SMALL
bcc


@<TRIPOS>ATOM
      1 CL1         0.0380    0.0770   -0.1080 cl        1 KBM     -0.086400
      2 C2          1.7360    0.0630   -0.0790 ca        1 KBM      0.043400
      3 C3          2.4070   -0.4800    1.0230 ca        1 KBM     -0.141000
      4 C4          3.7990   -0.4870    1.0420 ca        1 KBM     -0.066500
      5 C5          2.4530    0.5950   -1.1550 ca        1 KBM     -0.141000
      6 C6          3.8460    0.5770   -1.1320 ca        1 KBM     -0.066500
      7 C7          4.5270    0.0330   -0.0380 ca        1 KBM     -0.163600
      8 C8          6.0020    0.0170    0.0390 c         1 KBM      0.614900
      9 O9          6.5940    0.0930    1.1250 o         1 KBM     -0.520100
     10 C10         6.7850   -0.0990   -1.1960 cc        1 KBM     -0.062100
     11 O11         6.1190   -0.4620   -2.3890 os        1 KBM     -0.190200
     12 C12         7.1150   -0.5230   -3.3650 ca        1 KBM      0.043100
     13 C13         6.9390   -0.8470   -4.7050 ca        1 KBM     -0.094000
     14 C14         8.1400    0.0640   -1.3990 cd        1 KBM     -0.086200
     15 C15         8.3900   -0.2000   -2.8030 ca        1 KBM     -0.095800
     16 C16         9.5180   -0.2010   -3.6130 ca        1 KBM     -0.100000
     17 C17         9.3400   -0.5280   -4.9690 ca        1 KBM      0.103100
     18 C18         8.0780   -0.8450   -5.5080 ca        1 KBM     -0.169000
     19 O19        10.5080   -0.5050   -5.7110 os        1 KBM     -0.326900
     20 C20        10.3920   -0.8480   -7.0860 c3        1 KBM      0.112700
     21 H3          1.8410   -0.8950    1.8710 ha        1 KBM      0.152500
     22 H4          4.3390   -0.8960    1.9110 ha        1 KBM      0.155000
     23 H5          1.9230    1.0270   -2.0180 ha        1 KBM      0.152500
     24 H6          4.4090    0.9920   -1.9840 ha        1 KBM      0.155000
     25 H13         5.9500   -1.0950   -5.1100 ha        1 KBM      0.154000
     26 H14         8.8840    0.3360   -0.6520 ha        1 KBM      0.181000
     27 H16        10.5170    0.0400   -3.2250 ha        1 KBM      0.161000
     28 H18         7.9760   -1.0970   -6.5730 ha        1 KBM      0.144000
     29 H20        10.0090   -1.8910   -7.2040 h1        1 KBM      0.045700
     30 H20A        9.7290   -0.1230   -7.6200 h1        1 KBM      0.045700
     31 H20B       11.4440   -0.7700   -7.4620 h1        1 KBM      0.045700
@<TRIPOS>BOND
     1    1    2 1   
     2    2    3 ar  
     3    2    5 ar  
     4    3    4 ar  
     5    3   21 1   
     6    4    7 ar  
     7    4   22 1   
     8    5    6 ar  
     9    5   23 1   
    10    6    7 ar  
    11    6   24 1   
    12    7    8 1   
    13    8    9 2   
    14    8   10 1   
    15   10   11 1   
    16   10   14 2   
    17   11   12 1   
    18   12   13 ar  
    19   12   15 ar  
    20   13   18 ar  
    21   13   25 1   
    22   14   15 1   
    23   14   26 1   
    24   15   16 ar  
    25   16   17 ar  
    26   16   27 1   
    27   17   18 ar  
    28   17   19 1   
    29   18   28 1   
    30   19   20 1   
    31   20   29 1   
    32   20   30 1   
    33   20   31 1   
@<TRIPOS>SUBSTRUCTURE
     1 KBM         1 TEMP              0 ****  ****    0 ROOT
