@<TRIPOS>MOLECULE
KBP
   46    44     1     0     0
SMALL
bcc


@<TRIPOS>ATOM
      1 CAA        -1.9950    0.1190   -1.0770 c1        1 KBP      0.096000
      2 CAB        -0.4660   -0.0190   -1.1130 c2        1 KBP     -0.244000
      3 CAC         0.0920    0.1390    0.2930 c3        1 KBP      0.047000
      4 CAD         1.6170    0.0390    0.2520 c3        1 KBP     -0.153000
      5 CAE         2.1420   -0.3710    1.6360 c3        1 KBP     -0.157000
      6 CAF         3.6900   -0.4470    1.6020 c3        1 KBP     -0.157000
      7 CAG         4.2170   -0.8870    2.9890 c3        1 KBP     -0.157000
      8 CAH         5.7620   -0.9020    2.9740 c3        1 KBP     -0.158000
      9 CAI         6.2850   -1.4320    4.3240 c3        1 KBP     -0.159000
     10 CAJ         7.8130   -1.3960    4.3270 c3        1 KBP     -0.210000
     11 OAM        -2.6320   -0.4050   -0.1850 o         1 KBP     -0.310000
     12 OAN        -0.2790    1.3830    0.8030 oh        1 KBP     -0.329000
     13 SAO        -2.8380    1.0810   -2.3360 ss        1 KBP      0.147000
     14 CAP        -4.5220    0.5060   -2.5020 c3        1 KBP     -0.327000
     15 CAQ        -5.1980    1.2320   -3.6770 c3        1 KBP     -0.018000
     16 NAR        -6.6100    0.9100   -3.6990 n         1 KBP     -0.382000
     17 CAS        -7.4600    1.4690   -4.7170 c2        1 KBP      0.298000
     18 CAT        -8.9680    1.2550   -4.6540 c3        1 KBP     -0.243000
     19 OAY        -6.9740    2.1080   -5.6330 o         1 KBP     -0.363000
     20 HAB        -0.2260   -0.9010   -1.4620 ha        1 KBP      0.129000
     21 HABA       -0.0900    0.6740   -1.6920 ha        1 KBP      0.129000
     22 HAC        -0.2650   -0.5680    0.8670 h1        1 KBP      0.079000
     23 HAD         1.8820   -0.6320   -0.4090 hc        1 KBP      0.089000
     24 HADA        1.9930    0.9060    0.0050 hc        1 KBP      0.089000
     25 HAE         1.7790   -1.2460    1.8760 hc        1 KBP      0.088500
     26 HAEA        1.8620    0.2910    2.3010 hc        1 KBP      0.088500
     27 HAF         3.9690   -1.0940    0.9270 hc        1 KBP      0.078500
     28 HAFA        4.0540    0.4340    1.3790 hc        1 KBP      0.078500
     29 HAG         3.9050   -0.2610    3.6690 hc        1 KBP      0.079500
     30 HAGA        3.8840   -1.7840    3.1950 hc        1 KBP      0.079500
     31 HAH         6.0740   -1.4820    2.2530 hc        1 KBP      0.078500
     32 HAHA        6.0950    0.0060    2.8290 hc        1 KBP      0.078500
     33 HAI         5.9430   -0.8710    5.0490 hc        1 KBP      0.077500
     34 HAIA        5.9800   -2.3550    4.4530 hc        1 KBP      0.077500
     35 HAJ         8.1540   -1.9840    3.6250 hc        1 KBP      0.071667
     36 HAJA        8.1450   -1.7000    5.1990 hc        1 KBP      0.071667
     37 HAJB        8.1180   -0.4790    4.1630 hc        1 KBP      0.071667
     38 HOAN       -0.6860    1.2740    1.5780 ho        1 KBP      0.220000
     39 HAP        -5.0150    0.6940   -1.6750 h1        1 KBP      0.131500
     40 HAPA       -4.5230   -0.4580   -2.6700 h1        1 KBP      0.131500
     41 HAQ        -4.7850    0.9460   -4.5170 h1        1 KBP      0.112000
     42 HAQA       -5.0850    2.2050   -3.5710 h1        1 KBP      0.112000
     43 HNAR       -6.9640    0.3760   -3.0540 hn        1 KBP      0.220000
     44 HAT        -9.3630    1.4410   -5.5380 hc        1 KBP      0.106333
     45 HATA       -9.1560    0.3270   -4.4010 hc        1 KBP      0.106333
     46 HATB       -9.3560    1.8600   -3.9880 hc        1 KBP      0.106333
@<TRIPOS>BOND
     1    1   11 1   
     2    1   13 1   
     3    2    3 1   
     4    2   20 1   
     5    2   21 1   
     6    3    4 1   
     7    3   12 1   
     8    3   22 1   
     9    4    5 1   
    10    4   23 1   
    11    4   24 1   
    12    5    6 1   
    13    5   25 1   
    14    5   26 1   
    15    6    7 1   
    16    6   27 1   
    17    6   28 1   
    18    7    8 1   
    19    7   29 1   
    20    7   30 1   
    21    8    9 1   
    22    8   31 1   
    23    8   32 1   
    24    9   10 1   
    25    9   33 1   
    26    9   34 1   
    27   10   35 1   
    28   10   36 1   
    29   10   37 1   
    30   12   38 1   
    31   13   14 1   
    32   14   15 1   
    33   14   39 1   
    34   14   40 1   
    35   15   16 1   
    36   15   41 1   
    37   15   42 1   
    38   16   17 1   
    39   16   43 1   
    40   17   18 1   
    41   17   19 1   
    42   18   44 1   
    43   18   45 1   
    44   18   46 1   
@<TRIPOS>SUBSTRUCTURE
     1 KBP         1 TEMP              0 ****  ****    0 ROOT
