@<TRIPOS>MOLECULE
KBP
   47    46     1     0     0
SMALL
bcc


@<TRIPOS>ATOM
      1 CAA        -0.2060    1.2690   -0.3410 c         1 KBP      0.583700
      2 CAB         1.2340    1.4510   -0.0010 c3        1 KBP     -0.219400
      3 CAC         1.6120    0.7540    1.3120 c3        1 KBP      0.159100
      4 CAD         3.1290    0.7470    1.4840 c3        1 KBP     -0.075400
      5 CAE         3.5410   -0.1460    2.6350 c3        1 KBP     -0.078400
      6 CAF         5.0420   -0.1180    2.8340 c3        1 KBP     -0.079400
      7 CAG         5.4570   -1.0210    3.9760 c3        1 KBP     -0.078400
      8 CAH         6.9570   -0.9920    4.1790 c3        1 KBP     -0.079400
      9 CAI         7.3750   -1.8960    5.3190 c3        1 KBP     -0.079400
     10 CAJ         8.8670   -1.8700    5.5260 c3        1 KBP     -0.094100
     11 OAM        -1.1270    1.1950    0.4810 o         1 KBP     -0.566100
     12 OAN         1.0720    1.4610    2.4150 oh        1 KBP     -0.583800
     13 SAO        -0.4190    1.1560   -2.0590 ss        1 KBP     -0.158700
     14 CAP        -2.1640    1.2160   -2.2780 c3        1 KBP     -0.083300
     15 CAQ        -2.8080   -0.0650   -1.7800 c3        1 KBP      0.107800
     16 NAR        -4.3030    0.0030   -1.7630 ny        1 KBP     -0.689800
     17 CAS        -4.8970   -1.2660   -1.1640 c         1 KBP      0.556100
     18 CAT        -5.0370   -1.2780    0.3170 c3        1 KBP     -0.188100
     19 OAY        -5.2050   -2.1200   -1.9770 o         1 KBP     -0.391100
     20 HAB         1.4290    2.5550    0.1120 hc        1 KBP      0.106200
     21 HABA        1.8810    1.0690   -0.8360 hc        1 KBP      0.106200
     22 HAC         1.2160   -0.3000    1.3010 h1        1 KBP      0.035700
     23 HAD         3.4800    1.7950    1.6750 hc        1 KBP      0.056700
     24 HADA        3.6010    0.3880    0.5330 hc        1 KBP      0.056700
     25 HAE         3.2070   -1.1980    2.4360 hc        1 KBP      0.048700
     26 HAEA        3.0250    0.1990    3.5700 hc        1 KBP      0.048700
     27 HAF         5.3730    0.9330    3.0460 hc        1 KBP      0.042200
     28 HAFA        5.5550   -0.4440    1.8910 hc        1 KBP      0.042200
     29 HAG         5.1270   -2.0720    3.7640 hc        1 KBP      0.040200
     30 HAGA        4.9440   -0.6960    4.9190 hc        1 KBP      0.040200
     31 HAH         7.2880    0.0580    4.3920 hc        1 KBP      0.041200
     32 HAHA        7.4710   -1.3160    3.2360 hc        1 KBP      0.041200
     33 HAI         7.0420   -2.9460    5.1060 hc        1 KBP      0.038700
     34 HAIA        6.8590   -1.5710    6.2620 hc        1 KBP      0.038700
     35 HAJ         9.3990   -2.2140    4.6060 hc        1 KBP      0.035367
     36 HAJA        9.1540   -2.5420    6.3700 hc        1 KBP      0.035367
     37 HAJB        9.2150   -0.8360    5.7650 hc        1 KBP      0.035367
     38 HOAN        0.1110    1.3670    2.3720 ho        1 KBP      0.410000
     39 HAP        -2.5800    2.1070   -1.7410 h1        1 KBP      0.108200
     40 HAPA       -2.3300    1.3580   -3.3780 h1        1 KBP      0.108200
     41 HAQ        -2.5130   -0.9360   -2.4370 hx        1 KBP      0.122700
     42 HAQA       -2.4690   -0.2690   -0.7190 hx        1 KBP      0.122700
     43 HNAR       -4.5990    0.8140   -1.2100 hn        1 KBP      0.458800
     44 HAT        -5.8860   -0.6130    0.6260 hc        1 KBP      0.119367
     45 HATA       -4.1010   -0.9400    0.8290 hc        1 KBP      0.119367
     46 HATB       -5.2710   -2.3270    0.6440 hc        1 KBP      0.119367
     47 HAR2       -4.6430    0.1200   -2.7260 hn        1 KBP      0.458800
@<TRIPOS>BOND
     1    1    2 1   
     2    1   11 2   
     3    1   13 1   
     4    2    3 1   
     5    2   20 1   
     6    2   21 1   
     7    3    4 1   
     8    3   12 1   
     9    3   22 1   
    10    4    5 1   
    11    4   23 1   
    12    4   24 1   
    13    5    6 1   
    14    5   25 1   
    15    5   26 1   
    16    6    7 1   
    17    6   27 1   
    18    6   28 1   
    19    7    8 1   
    20    7   29 1   
    21    7   30 1   
    22    8    9 1   
    23    8   31 1   
    24    8   32 1   
    25    9   10 1   
    26    9   33 1   
    27    9   34 1   
    28   10   35 1   
    29   10   36 1   
    30   10   37 1   
    31   12   38 1   
    32   13   14 1   
    33   14   15 1   
    34   14   39 1   
    35   14   40 1   
    36   15   16 1   
    37   15   41 1   
    38   15   42 1   
    39   16   17 1   
    40   16   43 1   
    41   16   47 1   
    42   17   18 1   
    43   17   19 2   
    44   18   44 1   
    45   18   45 1   
    46   18   46 1   
@<TRIPOS>SUBSTRUCTURE
     1 KBP         1 TEMP              0 ****  ****    0 ROOT
