@<TRIPOS>MOLECULE
KBP
   47    46     1     0     0
SMALL
bcc


@<TRIPOS>ATOM
      1 CAA        -0.3630   -0.7240   -0.1610 c         1 KBP      0.582700
      2 CAB         1.1230   -0.6240   -0.1190 c3        1 KBP     -0.217400
      3 CAC         1.6390   -0.2580    1.2800 c3        1 KBP      0.159100
      4 CAD         3.1620   -0.3590    1.3150 c3        1 KBP     -0.076400
      5 CAE         3.6790   -0.2650    2.7350 c3        1 KBP     -0.079400
      6 CAF         5.1910   -0.3150    2.7680 c3        1 KBP     -0.078400
      7 CAG         5.7090   -0.2360    4.1880 c3        1 KBP     -0.078400
      8 CAH         7.2220   -0.2830    4.2230 c3        1 KBP     -0.079400
      9 CAI         7.7420   -0.2050    5.6430 c3        1 KBP     -0.079400
     10 CAJ         9.2480   -0.2520    5.6820 c3        1 KBP     -0.094100
     11 OAM        -1.1430   -0.0300    0.5050 o         1 KBP     -0.567100
     12 OAN         1.3020    1.0840    1.5850 oh        1 KBP     -0.586800
     13 SAO        -0.8720   -1.9260   -1.3050 ss        1 KBP     -0.158700
     14 CAP        -2.6220   -1.9520   -1.1300 c3        1 KBP     -0.082300
     15 CAQ        -3.2290   -0.6790   -1.6900 c3        1 KBP      0.108800
     16 NAR        -4.6850   -0.5390   -1.3750 n4        1 KBP     -0.689800
     17 CAS        -5.2250    0.7940   -1.8790 c         1 KBP      0.556100
     18 CAT        -5.0670    1.9480   -0.9530 c3        1 KBP     -0.188100
     19 OAY        -5.7400    0.7540   -2.9830 o         1 KBP     -0.391100
     20 HAB         1.4410    0.1840   -0.8360 hc        1 KBP      0.103200
     21 HABA        1.5880   -1.5900   -0.4520 hc        1 KBP      0.103200
     22 HAC         1.1840   -0.9550    2.0380 h1        1 KBP      0.043700
     23 HAD         3.4730   -1.3340    0.8590 hc        1 KBP      0.056200
     24 HADA        3.5980    0.4700    0.6990 hc        1 KBP      0.056200
     25 HAE         3.3190    0.6950    3.1940 hc        1 KBP      0.049200
     26 HAEA        3.2600   -1.1060    3.3480 hc        1 KBP      0.049200
     27 HAF         5.5480   -1.2660    2.2900 hc        1 KBP      0.041700
     28 HAFA        5.6090    0.5350    2.1670 hc        1 KBP      0.041700
     29 HAG         5.3510    0.7140    4.6660 hc        1 KBP      0.041200
     30 HAGA        5.2920   -1.0860    4.7900 hc        1 KBP      0.041200
     31 HAH         7.6390    0.5680    3.6230 hc        1 KBP      0.040700
     32 HAHA        7.5800   -1.2320    3.7440 hc        1 KBP      0.040700
     33 HAI         7.3820    0.7450    6.1200 hc        1 KBP      0.039200
     34 HAIA        7.3220   -1.0560    6.2420 hc        1 KBP      0.039200
     35 HAJ         9.6840    0.6030    5.1110 hc        1 KBP      0.035367
     36 HAJA        9.6250   -1.2020    5.2320 hc        1 KBP      0.035367
     37 HAJB        9.6100   -0.1920    6.7370 hc        1 KBP      0.035367
     38 HOAN        0.3520    1.1060    1.7600 ho        1 KBP      0.410000
     39 HAP        -2.8890   -2.0800   -0.0490 h1        1 KBP      0.109200
     40 HAPA       -2.9750   -2.8560   -1.6900 h1        1 KBP      0.109200
     41 HAQ        -3.1190   -0.6510   -2.8140 hx        1 KBP      0.121700
     42 HAQA       -2.7020    0.2180   -1.2430 hx        1 KBP      0.121700
     43 HNAR       -5.1990   -1.3080   -1.8230 hn        1 KBP      0.459300
     44 HAT        -5.7960    1.8600   -0.1060 hc        1 KBP      0.119700
     45 HATA       -5.2920    2.8920   -1.5190 hc        1 KBP      0.119700
     46 HATB       -4.0290    2.0140   -0.5380 hc        1 KBP      0.119700
     47 HAR2       -4.8190   -0.6010   -0.3610 hn        1 KBP      0.459300
@<TRIPOS>BOND
     1    1    2 1   
     2    1   11 2   
     3    1   13 1   
     4    2    3 1   
     5    2   20 1   
     6    2   21 1   
     7    3    4 1   
     8    3   12 1   
     9    3   22 1   
    10    4    5 1   
    11    4   23 1   
    12    4   24 1   
    13    5    6 1   
    14    5   25 1   
    15    5   26 1   
    16    6    7 1   
    17    6   27 1   
    18    6   28 1   
    19    7    8 1   
    20    7   29 1   
    21    7   30 1   
    22    8    9 1   
    23    8   31 1   
    24    8   32 1   
    25    9   10 1   
    26    9   33 1   
    27    9   34 1   
    28   10   35 1   
    29   10   36 1   
    30   10   37 1   
    31   12   38 1   
    32   13   14 1   
    33   14   15 1   
    34   14   39 1   
    35   14   40 1   
    36   15   16 1   
    37   15   41 1   
    38   15   42 1   
    39   16   17 1   
    40   16   43 1   
    41   16   47 1   
    42   17   18 1   
    43   17   19 2   
    44   18   44 1   
    45   18   45 1   
    46   18   46 1   
@<TRIPOS>SUBSTRUCTURE
     1 KBP         1 TEMP              0 ****  ****    0 ROOT
