@<TRIPOS>MOLECULE
KBP
   47    46     1     0     0
SMALL
bcc


@<TRIPOS>ATOM
      1 CAA        -0.3940   -0.7780   -0.1070 c         1 KBP      0.582700
      2 CAB         1.0950   -0.7250   -0.0810 c3        1 KBP     -0.217400
      3 CAC         1.6350   -0.2760    1.2840 c3        1 KBP      0.159100
      4 CAD         3.1540   -0.4240    1.3180 c3        1 KBP     -0.076400
      5 CAE         3.6860   -0.2430    2.7230 c3        1 KBP     -0.079400
      6 CAF         5.1960   -0.3410    2.7500 c3        1 KBP     -0.078400
      7 CAG         5.7290   -0.1730    4.1570 c3        1 KBP     -0.078400
      8 CAH         7.2400   -0.2670    4.1850 c3        1 KBP     -0.079400
      9 CAI         7.7750   -0.1000    5.5910 c3        1 KBP     -0.079400
     10 CAJ         9.2780   -0.1930    5.6250 c3        1 KBP     -0.094100
     11 OAM        -1.1450   -0.0130    0.5140 o         1 KBP     -0.567100
     12 OAN         1.3440    1.0950    1.4920 oh        1 KBP     -0.586800
     13 SAO        -0.9520   -2.0390   -1.1610 ss        1 KBP     -0.158700
     14 CAP        -2.7010   -1.9930   -0.9740 c3        1 KBP     -0.082300
     15 CAQ        -3.2690   -0.7420   -1.6190 c3        1 KBP      0.108800
     16 NAR        -4.7170   -0.5300   -1.3050 n4        1 KBP     -0.689800
     17 CAS        -5.2150    0.7830   -1.8960 c         1 KBP      0.556100
     18 CAT        -5.0090    1.9920   -1.0530 c3        1 KBP     -0.188100
     19 OAY        -5.7400    0.6850   -2.9910 o         1 KBP     -0.391100
     20 HAB         1.4340    0.0170   -0.8570 hc        1 KBP      0.103200
     21 HABA        1.5240   -1.7290   -0.3450 hc        1 KBP      0.103200
     22 HAC         1.1640   -0.9000    2.0950 h1        1 KBP      0.043700
     23 HAD         3.6110    0.3420    0.6390 hc        1 KBP      0.055700
     24 HADA        3.4290   -1.4400    0.9330 hc        1 KBP      0.055700
     25 HAE         3.2460   -1.0230    3.3990 hc        1 KBP      0.049200
     26 HAEA        3.3610    0.7590    3.1120 hc        1 KBP      0.049200
     27 HAF         5.6360    0.4480    2.0840 hc        1 KBP      0.041700
     28 HAFA        5.5180   -1.3360    2.3420 hc        1 KBP      0.041700
     29 HAG         5.2900   -0.9620    4.8230 hc        1 KBP      0.041200
     30 HAGA        5.4070    0.8220    4.5640 hc        1 KBP      0.041200
     31 HAH         7.6790    0.5220    3.5200 hc        1 KBP      0.040700
     32 HAHA        7.5630   -1.2610    3.7760 hc        1 KBP      0.040700
     33 HAI         7.3330   -0.8890    6.2560 hc        1 KBP      0.039200
     34 HAIA        7.4500    0.8940    5.9990 hc        1 KBP      0.039200
     35 HAJ         9.6210   -1.1870    5.2450 hc        1 KBP      0.035367
     36 HAJA        9.6520   -0.0670    6.6700 hc        1 KBP      0.035367
     37 HAJB        9.7380    0.6010    4.9880 hc        1 KBP      0.035367
     38 HOAN        0.3970    1.1610    1.6730 ho        1 KBP      0.410000
     39 HAP        -3.0890   -2.9210   -1.4680 h1        1 KBP      0.109200
     40 HAPA       -2.9630   -2.0360    0.1150 h1        1 KBP      0.109200
     41 HAQ        -2.7080    0.1650   -1.2390 hx        1 KBP      0.121700
     42 HAQA       -3.1670   -0.7960   -2.7420 hx        1 KBP      0.121700
     43 HNAR       -5.2610   -1.3100   -1.6950 hn        1 KBP      0.459300
     44 HAT        -3.9660    2.0500   -0.6500 hc        1 KBP      0.119700
     45 HATA       -5.7340    1.9880   -0.1970 hc        1 KBP      0.119700
     46 HATB       -5.2070    2.9020   -1.6820 hc        1 KBP      0.119700
     47 HAR2       -4.8440   -0.5170   -0.2880 hn        1 KBP      0.459300
@<TRIPOS>BOND
     1    1    2 1   
     2    1   11 2   
     3    1   13 1   
     4    2    3 1   
     5    2   20 1   
     6    2   21 1   
     7    3    4 1   
     8    3   12 1   
     9    3   22 1   
    10    4    5 1   
    11    4   23 1   
    12    4   24 1   
    13    5    6 1   
    14    5   25 1   
    15    5   26 1   
    16    6    7 1   
    17    6   27 1   
    18    6   28 1   
    19    7    8 1   
    20    7   29 1   
    21    7   30 1   
    22    8    9 1   
    23    8   31 1   
    24    8   32 1   
    25    9   10 1   
    26    9   33 1   
    27    9   34 1   
    28   10   35 1   
    29   10   36 1   
    30   10   37 1   
    31   12   38 1   
    32   13   14 1   
    33   14   15 1   
    34   14   39 1   
    35   14   40 1   
    36   15   16 1   
    37   15   41 1   
    38   15   42 1   
    39   16   17 1   
    40   16   43 1   
    41   16   47 1   
    42   17   18 1   
    43   17   19 2   
    44   18   44 1   
    45   18   45 1   
    46   18   46 1   
@<TRIPOS>SUBSTRUCTURE
     1 KBP         1 TEMP              0 ****  ****    0 ROOT
