@<TRIPOS>MOLECULE
KBP
   46    45     1     0     0
SMALL
bcc


@<TRIPOS>ATOM
      1 CAA         1.2040    0.0590   -0.1400 c         1 KBP      0.581700
      2 CAB        -0.0690   -0.7020    0.0800 c3        1 KBP     -0.206400
      3 CAC        -1.2750    0.2310    0.2050 c3        1 KBP      0.145100
      4 CAD        -2.5620   -0.5480   -0.0490 c3        1 KBP     -0.111400
      5 CAE        -3.7700    0.3620   -0.0010 c3        1 KBP     -0.080400
      6 CAF        -5.0550   -0.4230   -0.1540 c3        1 KBP     -0.078400
      7 CAG        -6.2610    0.4910   -0.1190 c3        1 KBP     -0.079400
      8 CAH        -7.5480   -0.2920   -0.2670 c3        1 KBP     -0.079400
      9 CAI        -8.7550    0.6200   -0.2330 c3        1 KBP     -0.080400
     10 CAJ       -10.0390   -0.1550   -0.3800 c3        1 KBP     -0.093100
     11 OAM         1.3330    0.9360   -1.0000 o         1 KBP     -0.531100
     12 OAN        -1.2920    0.8720    1.4680 oh        1 KBP     -0.587800
     13 SAO         2.4150   -0.4940    0.9520 ss        1 KBP     -0.232700
     14 CAP         3.8460    0.4710    0.5760 c3        1 KBP     -0.062300
     15 CAQ         4.8540   -0.3570   -0.2160 c3        1 KBP      0.096000
     16 NAR         6.0290    0.3620   -0.6160 n         1 KBP     -0.572900
     17 CAS         7.2280    0.2740    0.0740 c         1 KBP      0.653100
     18 CAT         8.3560    1.1620   -0.3900 c3        1 KBP     -0.175100
     19 OAY         7.3750   -0.5330    1.0120 o         1 KBP     -0.603100
     20 HAB        -0.2180   -1.3810   -0.8020 hc        1 KBP      0.079200
     21 HABA        0.0130   -1.3400    1.0000 hc        1 KBP      0.079200
     22 HAC        -1.1770    1.0830   -0.5290 h1        1 KBP      0.099700
     23 HAD        -2.5000   -1.0420   -1.0540 hc        1 KBP      0.046200
     24 HADA       -2.6650   -1.3580    0.7200 hc        1 KBP      0.046200
     25 HAE        -3.7750    0.9180    0.9740 hc        1 KBP      0.050700
     26 HAEA       -3.6950    1.1280   -0.8170 hc        1 KBP      0.050700
     27 HAF        -5.0390   -0.9870   -1.1230 hc        1 KBP      0.038200
     28 HAFA       -5.1350   -1.1820    0.6690 hc        1 KBP      0.038200
     29 HAG        -6.2750    1.0580    0.8490 hc        1 KBP      0.041700
     30 HAGA       -6.1840    1.2470   -0.9440 hc        1 KBP      0.041700
     31 HAH        -7.5340   -0.8600   -1.2350 hc        1 KBP      0.039200
     32 HAHA       -7.6260   -1.0490    0.5580 hc        1 KBP      0.039200
     33 HAI        -8.7670    1.1880    0.7350 hc        1 KBP      0.038700
     34 HAIA       -8.6750    1.3770   -1.0580 hc        1 KBP      0.038700
     35 HAJ       -10.9160    0.5360   -0.3520 hc        1 KBP      0.032700
     36 HAJA      -10.0570   -0.7080   -1.3500 hc        1 KBP      0.032700
     37 HAJB      -10.1490   -0.8970    0.4470 hc        1 KBP      0.032700
     38 HOAN       -1.4740    0.1980    2.1350 ho        1 KBP      0.398000
     39 HAP         3.5450    1.3870    0.0080 h1        1 KBP      0.091200
     40 HAPA        4.2840    0.7890    1.5550 h1        1 KBP      0.091200
     41 HAQ         5.1700   -1.2440    0.4090 h1        1 KBP      0.072200
     42 HAQA        4.3500   -0.7410   -1.1500 h1        1 KBP      0.072200
     43 HNAR        5.9060    1.1060   -1.2590 hn        1 KBP      0.306500
     44 HAT         8.0730    2.2380   -0.2950 hc        1 KBP      0.066700
     45 HATA        9.2520    0.9650    0.2480 hc        1 KBP      0.066700
     46 HATB        8.6130    0.9440   -1.4540 hc        1 KBP      0.066700
@<TRIPOS>BOND
     1    1    2 1   
     2    1   11 2   
     3    1   13 1   
     4    2    3 1   
     5    2   20 1   
     6    2   21 1   
     7    3    4 1   
     8    3   12 1   
     9    3   22 1   
    10    4    5 1   
    11    4   23 1   
    12    4   24 1   
    13    5    6 1   
    14    5   25 1   
    15    5   26 1   
    16    6    7 1   
    17    6   27 1   
    18    6   28 1   
    19    7    8 1   
    20    7   29 1   
    21    7   30 1   
    22    8    9 1   
    23    8   31 1   
    24    8   32 1   
    25    9   10 1   
    26    9   33 1   
    27    9   34 1   
    28   10   35 1   
    29   10   36 1   
    30   10   37 1   
    31   12   38 1   
    32   13   14 1   
    33   14   15 1   
    34   14   39 1   
    35   14   40 1   
    36   15   16 1   
    37   15   41 1   
    38   15   42 1   
    39   16   17 1   
    40   16   43 1   
    41   17   18 1   
    42   17   19 2   
    43   18   44 1   
    44   18   45 1   
    45   18   46 1   
@<TRIPOS>SUBSTRUCTURE
     1 KBP         1 TEMP              0 ****  ****    0 ROOT
