@<TRIPOS>MOLECULE
KBT
   49    51     1     0     0
SMALL
bcc


@<TRIPOS>ATOM
      1 C1          0.0000    0.0000    0.0000 c3        1 KBT     -0.297000
      2 C2          1.5300    0.0000    0.0000 c3        1 KBT     -0.082000
      3 C3          2.0410    0.0000    1.4420 c3        1 KBT     -0.100000
      4 C4         -0.5100   -0.0010   -1.4420 DU        1 KBT     -0.133000
      5 N5         -1.9750   -0.0000   -1.4410 n         1 KBT      0.185000
      6 C6         -2.6530    1.1890   -1.5970 c2        1 KBT     -0.145000
      7 C7         -1.9060    2.4590   -1.7650 c2        1 KBT      0.379000
      8 O8         -1.2930    2.9310   -0.8280 o         1 KBT     -0.274000
      9 C9         -1.9070    3.1480   -3.0700 ca        1 KBT     -0.143000
     10 C10        -2.4820    2.5370   -4.1850 ca        1 KBT     -0.054000
     11 C11        -2.4780    3.1940   -5.4120 ca        1 KBT      0.020000
     12 C12        -3.0670    2.5740   -6.5610 c1        1 KBT     -0.112000
     13 N13        -3.5220    2.0920   -7.4840 n1        1 KBT     -0.032000
     14 C14        -1.8970    4.4620   -5.5200 ca        1 KBT     -0.045000
     15 C15        -1.3290    5.0610   -4.4130 ca        1 KBT     -0.059000
     16 C16        -0.7060    6.4290   -4.5380 c3        1 KBT     -0.091000
     17 C17        -1.3350    4.4190   -3.1920 ca        1 KBT     -0.024000
     18 C18        -4.0120    1.1880   -1.5970 c2        1 KBT     -0.206000
     19 C19        -4.7850    2.4710   -1.7660 c3        1 KBT     -0.092000
     20 C20        -5.7480    2.3350   -2.9480 c3        1 KBT     -0.124000
     21 C21        -5.5820    2.7580   -0.4900 c3        1 KBT     -0.124000
     22 C22        -4.7090   -0.0920   -1.4280 c2        1 KBT      0.254000
     23 O23        -5.9250   -0.1400   -1.4220 o         1 KBT     -0.368000
     24 N24        -3.9780   -1.2160   -1.2800 ns        1 KBT      0.091000
     25 C25        -2.6350   -1.1620   -1.2940 c2        1 KBT      0.158000
     26 O26        -1.9990   -2.1890   -1.1590 o         1 KBT     -0.414000
     27 H1         -0.2970    0.3420    0.9840 hc        1 KBT      0.142000
     28 H1A        -0.5970   -0.8040   -0.4140 DU        1 KBT      0.134000
     29 H2          1.9610   -0.9920    0.0530 hc        1 KBT      0.053000
     30 H2A         2.1550    0.2670   -0.8440 hc        1 KBT      0.053000
     31 H3          2.0860   -0.9130    2.0240 hc        1 KBT      0.027667
     32 H3A         1.5620    0.7290    2.0850 hc        1 KBT      0.027667
     33 H3B         3.0690    0.2410    1.6840 hc        1 KBT      0.027667
     34 H4          0.4140   -0.1480   -1.9870 ha        1 KBT      0.108500
     35 H4A        -0.8650    1.0180   -1.3430 ha        1 KBT      0.108500
     36 H10        -2.7030    1.4990   -4.4070 ha        1 KBT      0.130000
     37 H14        -1.9960    5.0800   -6.4040 ha        1 KBT      0.121000
     38 H16        -1.0070    7.1310   -3.7700 hc        1 KBT      0.052667
     39 H16A       -0.4270    6.9000   -5.4730 hc        1 KBT      0.052667
     40 H16B        0.2890    6.4500   -4.1100 hc        1 KBT      0.052667
     41 H17        -0.7890    4.8770   -2.3770 ha        1 KBT      0.131000
     42 H19        -4.0860    2.8590   -2.4960 hc        1 KBT      0.123000
     43 H20        -6.7950    2.3360   -2.6710 hc        1 KBT      0.061000
     44 H20A       -5.8810    1.3730   -3.4280 hc        1 KBT      0.061000
     45 H20B       -5.5160    3.2040   -3.5510 hc        1 KBT      0.061000
     46 H21        -4.8320    3.1290    0.1970 hc        1 KBT      0.061000
     47 H21A       -6.2060    3.4800   -1.0040 hc        1 KBT      0.061000
     48 H21B       -6.1300    1.8760   -0.1800 hc        1 KBT      0.061000
     49 HN24       -4.4510   -2.0580   -1.0170 hn        1 KBT      0.121000
@<TRIPOS>BOND
     1    1    2 1   
     2    1    4 1   
     3    1   27 1   
     4    1   28 1   
     5    2    3 1   
     6    2   29 1   
     7    2   30 1   
     8    3   31 1   
     9    3   32 1   
    10    3   33 1   
    11    4    5 1   
    12    4   28 1   
    13    4   34 1   
    14    4   35 1   
    15    5    6 1   
    16    5   25 1   
    17    6    7 1   
    18    6   18 1   
    19    7    8 1   
    20    7    9 1   
    21    9   10 1   
    22    9   17 1   
    23   10   11 1   
    24   10   36 1   
    25   11   12 1   
    26   11   14 1   
    27   12   13 1   
    28   14   15 1   
    29   14   37 1   
    30   15   16 1   
    31   15   17 1   
    32   16   38 1   
    33   16   39 1   
    34   16   40 1   
    35   17   41 1   
    36   18   19 1   
    37   18   22 1   
    38   19   20 1   
    39   19   21 1   
    40   19   42 1   
    41   20   43 1   
    42   20   44 1   
    43   20   45 1   
    44   21   46 1   
    45   21   47 1   
    46   21   48 1   
    47   22   23 1   
    48   22   24 1   
    49   24   25 1   
    50   24   49 1   
    51   25   26 1   
@<TRIPOS>SUBSTRUCTURE
     1 KBT         1 TEMP              0 ****  ****    0 ROOT
