@<TRIPOS>MOLECULE
KBT
   49    50     1     0     0
SMALL
bcc


@<TRIPOS>ATOM
      1 C1         -0.0220    0.3210   -0.1550 c3        1 KBT     -0.111400
      2 C2          1.4900    0.3800   -0.2110 c3        1 KBT     -0.075400
      3 C3          2.0780    0.5650    1.1650 c3        1 KBT     -0.093100
      4 C4         -0.5840    0.1440   -1.5650 c3        1 KBT      0.089000
      5 N5         -2.0310    0.0490   -1.6410 n         1 KBT     -0.359000
      6 C6         -2.8360    1.1860   -1.5870 cc        1 KBT      0.017400
      7 C7         -2.1420    2.5250   -1.6580 c         1 KBT      0.589900
      8 O8         -1.7820    3.0930   -0.6240 o         1 KBT     -0.494100
      9 C9         -1.9240    3.0920   -3.0020 ca        1 KBT     -0.182600
     10 C10        -2.4280    2.4720   -4.1500 ca        1 KBT     -0.048000
     11 C11        -2.1880    3.0420   -5.4060 ca        1 KBT     -0.022000
     12 C12        -2.6950    2.4140   -6.5770 cg        1 KBT      0.225800
     13 N13        -3.1080    1.9010   -7.5350 n1        1 KBT     -0.343800
     14 C14        -1.4520    4.2300   -5.5170 ca        1 KBT     -0.061000
     15 C15        -0.9540    4.8550   -4.3690 ca        1 KBT     -0.090300
     16 C16        -0.1920    6.1210   -4.4810 c3        1 KBT     -0.059800
     17 C17        -1.1920    4.2830   -3.1160 ca        1 KBT     -0.055000
     18 C18        -4.2000    1.1190   -1.4810 cd        1 KBT     -0.218400
     19 C19        -5.0630    2.3400   -1.4560 c3        1 KBT      0.001500
     20 C20        -6.0180    2.3560   -2.6350 c3        1 KBT     -0.096600
     21 C21        -5.8270    2.4420   -0.1480 c3        1 KBT     -0.096600
     22 C22        -4.8580   -0.2000   -1.3810 c         1 KBT      0.719700
     23 O23        -6.0810   -0.3950   -1.2760 o         1 KBT     -0.605500
     24 N24        -4.0170   -1.3240   -1.4100 n         1 KBT     -0.584500
     25 C25        -2.6220   -1.2370   -1.5040 c         1 KBT      0.804500
     26 O26        -1.9210   -2.2710   -1.5000 o         1 KBT     -0.632500
     27 H1         -0.4240    1.2640    0.3040 hc        1 KBT      0.062200
     28 H1A        -0.3420   -0.5370    0.4930 hc        1 KBT      0.062200
     29 H2          1.8860   -0.5660   -0.6660 hc        1 KBT      0.040700
     30 H2A         1.8100    1.2280   -0.8740 hc        1 KBT      0.040700
     31 H3          1.7920   -0.2830    1.8320 hc        1 KBT      0.037367
     32 H3A         1.7110    1.5140    1.6270 hc        1 KBT      0.037367
     33 H3B         3.1920    0.6080    1.1050 hc        1 KBT      0.037367
     34 H4         -0.1590   -0.8010   -2.0140 h1        1 KBT      0.074700
     35 H4A        -0.2650    1.0160   -2.2070 h1        1 KBT      0.074700
     36 H10        -3.0170    1.5430   -4.0710 ha        1 KBT      0.160000
     37 H14        -1.2660    4.6720   -6.5090 ha        1 KBT      0.153000
     38 H16        -0.8970    6.9910   -4.4740 hc        1 KBT      0.053700
     39 H16A        0.3930    6.1520   -5.4340 hc        1 KBT      0.053700
     40 H16B        0.5170    6.2390   -3.6260 hc        1 KBT      0.053700
     41 H17        -0.8060    4.7660   -2.2020 ha        1 KBT      0.162000
     42 H19        -4.4000    3.2510   -1.5360 hc        1 KBT      0.044700
     43 H20        -6.7190    1.4870   -2.5810 hc        1 KBT      0.046033
     44 H20A       -5.4520    2.3030   -3.5960 hc        1 KBT      0.046033
     45 H20B       -6.6160    3.2990   -2.6230 hc        1 KBT      0.046033
     46 H21        -5.1220    2.4610    0.7160 hc        1 KBT      0.046033
     47 H21A       -6.4300    3.3820   -0.1390 hc        1 KBT      0.046033
     48 H21B       -6.5190    1.5720   -0.0310 hc        1 KBT      0.046033
     49 HN24       -4.4110   -2.2380   -1.3350 hn        1 KBT      0.355500
@<TRIPOS>BOND
     1    1    2 1   
     2    1    4 1   
     3    1   27 1   
     4    1   28 1   
     5    2    3 1   
     6    2   29 1   
     7    2   30 1   
     8    3   31 1   
     9    3   32 1   
    10    3   33 1   
    11    4    5 1   
    12    4   34 1   
    13    4   35 1   
    14    5    6 1   
    15    5   25 1   
    16    6    7 1   
    17    6   18 2   
    18    7    8 2   
    19    7    9 1   
    20    9   10 ar  
    21    9   17 ar  
    22   10   11 ar  
    23   10   36 1   
    24   11   12 1   
    25   11   14 ar  
    26   12   13 3   
    27   14   15 ar  
    28   14   37 1   
    29   15   16 1   
    30   15   17 ar  
    31   16   38 1   
    32   16   39 1   
    33   16   40 1   
    34   17   41 1   
    35   18   19 1   
    36   18   22 1   
    37   19   20 1   
    38   19   21 1   
    39   19   42 1   
    40   20   43 1   
    41   20   44 1   
    42   20   45 1   
    43   21   46 1   
    44   21   47 1   
    45   21   48 1   
    46   22   23 2   
    47   22   24 1   
    48   24   25 1   
    49   24   49 1   
    50   25   26 2   
@<TRIPOS>SUBSTRUCTURE
     1 KBT         1 TEMP              0 ****  ****    0 ROOT
