@<TRIPOS>MOLECULE
KBT
   49    47     1     0     0
SMALL
bcc


@<TRIPOS>ATOM
      1 C1          3.0950   -1.7150    0.4410 c3        1 KBT     -0.190000
      2 C2          4.4810   -1.1520    0.5630 c3        1 KBT     -0.154000
      3 C3          5.4420   -2.2590    1.0120 c3        1 KBT     -0.211000
      4 C4          2.1360   -0.6190   -0.0370 c3        1 KBT     -0.027000
      5 N5          0.9850   -1.2270   -0.6620 n         1 KBT     -0.252000
      6 C6         -0.3210   -0.8410   -0.2670 c2        1 KBT      0.034000
      7 C7         -0.5070    0.1340    0.9070 c2        1 KBT      0.311000
      8 O8         -0.4830   -0.2770    2.0390 o         1 KBT     -0.255000
      9 C9         -0.6400    1.6590    0.6400 c2        1 KBT     -0.162000
     10 C10         0.0850    2.2510   -0.3810 c1        1 KBT     -0.048000
     11 C11         0.0190    3.6290   -0.5730 c1        1 KBT     -0.018000
     12 C12         0.7740    4.2660   -1.7040 c1        1 KBT     -0.104000
     13 N13         1.3470    4.7480   -2.5620 n1        1 KBT     -0.018000
     14 C14        -0.7740    4.4100    0.2610 c1        1 KBT     -0.061000
     15 C15        -1.4930    3.8200    1.2750 c1        1 KBT     -0.083000
     16 C16        -2.3540    4.6820    2.2170 c3        1 KBT     -0.185000
     17 C17        -1.4260    2.4360    1.4670 c2        1 KBT     -0.055000
     18 C18        -1.5060   -1.5040   -0.8750 c1        1 KBT     -0.195000
     19 C19        -2.9000   -1.2760   -0.2810 c3        1 KBT     -0.042000
     20 C20        -3.9020   -1.0250   -1.4010 c3        1 KBT     -0.214500
     21 C21        -3.3210   -2.5080    0.5120 c3        1 KBT     -0.214500
     22 C22        -1.3190   -2.4700   -1.9820 c1        1 KBT      0.358000
     23 O23        -2.2680   -3.0090   -2.4760 o         1 KBT     -0.330000
     24 N24        -0.0100   -2.8070   -2.4160 n         1 KBT     -0.364000
     25 C25         1.1660   -2.1900   -1.7690 c2        1 KBT      0.395000
     26 O26         2.2510   -2.3890   -2.2100 o         1 KBT     -0.357000
     27 H1          2.7940   -2.0550    1.3260 hc        1 KBT      0.101500
     28 H1A         3.0980   -2.4380   -0.1980 hc        1 KBT      0.101500
     29 H2          4.7720   -0.7980   -0.3200 hc        1 KBT      0.080000
     30 H2A         4.4860   -0.4150    1.2340 hc        1 KBT      0.080000
     31 H3          5.6530   -2.8500    0.2360 hc        1 KBT      0.076667
     32 H3A         5.0230   -2.7870    1.7190 hc        1 KBT      0.076667
     33 H3B         6.2730   -1.8540    1.3530 hc        1 KBT      0.076667
     34 H4          2.5960   -0.0430   -0.6870 h1        1 KBT      0.114000
     35 H4A         1.8410   -0.0770    0.7360 h1        1 KBT      0.114000
     36 H10         0.5980    1.6910   -1.0110 ha        1 KBT      0.160000
     37 H14        -0.8190    5.3430    0.1310 ha        1 KBT      0.153000
     38 H16        -3.2900    4.4170    2.1340 hc        1 KBT      0.093000
     39 H16A       -2.2610    5.6340    1.9740 hc        1 KBT      0.093000
     40 H16B       -2.0620    4.5530    3.1270 hc        1 KBT      0.093000
     41 H17        -1.9260    2.0280    2.1720 ha        1 KBT      0.162000
     42 H19        -2.8740   -0.5050    0.3090 hc        1 KBT      0.084000
     43 H20        -4.5130   -1.7750   -1.4600 hc        1 KBT      0.085333
     44 H20A       -3.4240   -0.9240   -2.2510 hc        1 KBT      0.085333
     45 H20B       -4.4100   -0.2030   -1.2110 hc        1 KBT      0.085333
     46 H21        -2.8940   -2.4920    1.3870 hc        1 KBT      0.085333
     47 H21A       -4.2750   -2.5110    0.6210 hc        1 KBT      0.085333
     48 H21B       -3.0480   -3.3080    0.0350 hc        1 KBT      0.085333
     49 HN24        0.1040   -3.3980   -3.0940 hn        1 KBT      0.269000
@<TRIPOS>BOND
     1    1    2 1   
     2    1    4 1   
     3    1   27 1   
     4    1   28 1   
     5    2    3 1   
     6    2   29 1   
     7    2   30 1   
     8    3   31 1   
     9    3   32 1   
    10    3   33 1   
    11    4    5 1   
    12    4   34 1   
    13    4   35 1   
    14    5    6 1   
    15    5   25 1   
    16    6    7 1   
    17    6   18 1   
    18    7    8 1   
    19    7    9 1   
    20    9   10 1   
    21    9   17 1   
    22   10   36 1   
    23   11   12 1   
    24   11   14 1   
    25   12   13 1   
    26   14   37 1   
    27   15   16 1   
    28   15   17 1   
    29   16   38 1   
    30   16   39 1   
    31   16   40 1   
    32   17   41 1   
    33   18   19 1   
    34   19   20 1   
    35   19   21 1   
    36   19   42 1   
    37   20   43 1   
    38   20   44 1   
    39   20   45 1   
    40   21   46 1   
    41   21   47 1   
    42   21   48 1   
    43   22   23 1   
    44   22   24 1   
    45   24   25 1   
    46   24   49 1   
    47   25   26 1   
@<TRIPOS>SUBSTRUCTURE
     1 KBT         1 TEMP              0 ****  ****    0 ROOT
